data_mof_unit_60074.cif
_audit_creation_date              2012-12-10T19:34:19-0500
_audit_creation_method            fapswitch 2.2
_symmetry_space_group_name_H-M    P1
_symmetry_Int_Tables_number       1
_space_group_crystal_system       triclinic
_cell_length_a                    23.68156
_cell_length_b                    23.419738
_cell_length_c                    16.396334
_cell_angle_alpha                 89.738991
_cell_angle_beta                  93.599601
_cell_angle_gamma                 90.073144
_cell_volume                      9075.62909843

loop_
_atom_site_label
_atom_site_type_symbol
_atom_type_description
_atom_site_fract_x
_atom_site_fract_y
_atom_site_fract_z
_atom_type_partial_charge
C1    C     C_R   0.424577 0.077312 0.488239 0.916256
C2    C     C_R   0.576767 0.924260 0.512005 0.920212
C3    C     C_R   0.576196 0.076433 0.511589 0.900139
C4    C     C_R   0.426591 0.921107 0.488909 0.918079
C5    C     C_R   0.924596 0.577322 0.488232 0.916308
C6    C     C_R   0.076752 0.424268 0.512014 0.918739
C7    C     C_R   0.076221 0.576425 0.511581 0.899573
C8    C     C_R   0.926555 0.421145 0.488888 0.917441
C9    C     C_R   0.533451 0.017363 0.847934 -0.221081
C10   C     C_R   0.467923 0.020138 0.151804 -0.220136
C11   C     C_R   0.035681 0.511463 0.847978 -0.221385
C12   C     C_R   0.964038 0.489807 0.152009 -0.222647
C13   C     C_R   0.483339 0.000660 0.883263 0.183743
C14   C     C_R   0.516842 0.000148 0.116729 0.188007
C15   C     C_R   0.983668 0.503086 0.883255 0.182488
C16   C     C_R   0.016270 0.496646 0.116715 0.187306
C17   C     C_R   0.436398 0.984658 0.832061 -0.240448
C18   C     C_R   0.562645 0.981326 0.168152 -0.241878
C19   C     C_R   0.934865 0.493790 0.832105 -0.240565
C20   C     C_R   0.065343 0.504335 0.167949 -0.240302
C21   C     C_R   0.440555 0.984548 0.747708 0.076697
C22   C     C_R   0.558437 0.981573 0.252486 0.064498
C23   C     C_R   0.938919 0.492112 0.747731 0.073334
C24   C     C_R   0.061349 0.506041 0.252357 0.066311
C25   C     C_2   0.477770 0.000913 0.972573 -0.179574
C26   C     C_2   0.522408 0.999726 0.027433 -0.178857
C27   C     C_2   0.978311 0.505436 0.972502 -0.180263
C28   C     C_2   0.021557 0.494369 0.027395 -0.178931
C29   C     C_R   0.396885 0.866906 0.482068 -0.155476
C30   C     C_R   0.626276 0.111958 0.520474 -0.154906
C31   C     C_R   0.628791 0.891925 0.522355 -0.142256
C32   C     C_R   0.391652 0.129630 0.480983 -0.162001
C33   C     C_R   0.896742 0.367027 0.481940 -0.152464
C34   C     C_R   0.126354 0.611919 0.520427 -0.154396
C35   C     C_R   0.128766 0.391975 0.522397 -0.142932
C36   C     C_R   0.891832 0.629733 0.480980 -0.160829
C37   C     C_R   0.412498 0.820833 0.534458 0.159340
C38   C     C_R   0.636420 0.154869 0.463206 0.164308
C39   C     C_R   0.641519 0.848946 0.467318 0.163901
C40   C     C_R   0.350590 0.142705 0.536112 0.173786
C41   C     C_R   0.912388 0.320826 0.534052 0.160496
C42   C     C_R   0.136833 0.654424 0.462681 0.160093
C43   C     C_R   0.141148 0.348486 0.468010 0.169681
C44   C     C_R   0.849936 0.642339 0.534974 0.171639
C45   C     C_R   0.386803 0.768108 0.521508 -0.204814
C46   C     C_R   0.689036 0.180983 0.465658 -0.210329
C47   C     C_R   0.695258 0.825271 0.472365 -0.226674
C48   C     C_R   0.326662 0.196753 0.534070 -0.221147
C49   C     C_R   0.886611 0.268161 0.520926 -0.205790
C50   C     C_R   0.189485 0.680465 0.465281 -0.210774
C51   C     C_R   0.194874 0.324795 0.472877 -0.227674
C52   C     C_R   0.826057 0.696407 0.533195 -0.219795
C53   C     C_R   0.345211 0.760681 0.457943 0.039540
C54   C     C_R   0.731958 0.164462 0.524055 0.026832
C55   C     C_R   0.736814 0.844290 0.531322 0.025309
C56   C     C_R   0.343178 0.238301 0.477943 0.028718
C57   C     C_R   0.844883 0.260941 0.457484 0.039782
C58   C     C_R   0.232152 0.664272 0.524259 0.027088
C59   C     C_R   0.236754 0.344343 0.530980 0.025075
C60   C     C_R   0.843438 0.738426 0.478393 0.027541
C61   C     C_R   0.331934 0.805681 0.403032 0.430074
C62   C     C_R   0.720705 0.123874 0.584020 0.442278
C63   C     C_R   0.723200 0.885722 0.588229 0.441657
C64   C     C_R   0.382368 0.224330 0.420733 0.437291
C65   C     C_R   0.831595 0.306073 0.402806 0.430803
C66   C     C_R   0.220587 0.624076 0.584608 0.441889
C67   C     C_R   0.223467 0.386279 0.587337 0.442031
C68   C     C_R   0.883473 0.724935 0.422187 0.436431
C69   C     C_R   0.357986 0.858451 0.415324 -0.240448
C70   C     C_R   0.667932 0.097674 0.581796 -0.269655
C71   C     C_R   0.669343 0.909464 0.583298 -0.260545
C72   C     C_R   0.406424 0.170241 0.422629 -0.255827
C73   C     C_R   0.857748 0.358774 0.415254 -0.245349
C74   C     C_R   0.167764 0.597959 0.582266 -0.267479
C75   C     C_R   0.169609 0.410015 0.582601 -0.263049
C76   C     C_R   0.907506 0.670827 0.423883 -0.249479
C77   C     C_2   0.309283 0.709910 0.457163 -0.151696
C78   C     C_2   0.786395 0.193935 0.526004 -0.129283
C79   C     C_2   0.791496 0.815130 0.538975 -0.124732
C80   C     C_2   0.313166 0.292896 0.472367 -0.128562
C81   C     C_2   0.808837 0.210257 0.456659 -0.151032
C82   C     C_2   0.286601 0.693761 0.526412 -0.128932
C83   C     C_2   0.291522 0.315345 0.538318 -0.125085
C84   C     C_2   0.813580 0.793109 0.473067 -0.128368
C85   C     C_R   0.535820 0.016239 0.763385 0.035158
C86   C     C_R   0.465416 0.019242 0.236367 0.033576
C87   C     C_R   0.037747 0.509467 0.763384 0.040483
C88   C     C_R   0.962020 0.491934 0.236585 0.040485
H1    H     H_    0.432241 0.037166 0.115219 0.147750
H2    H     H_    0.570204 0.032107 0.884272 0.150933
H3    H     H_    0.925266 0.481619 0.115598 0.147242
H4    H     H_    0.074164 0.520760 0.884497 0.150617
H5    H     H_    0.660345 0.064254 0.625764 0.185087
H6    H     H_    0.347298 0.893248 0.373355 0.192851
H7    H     H_    0.438162 0.160615 0.379942 0.212305
H8    H     H_    0.659807 0.943219 0.625316 0.187167
H9    H     H_    0.159957 0.564845 0.626597 0.185180
H10   H     H_    0.847073 0.393674 0.373454 0.188707
H11   H     H_    0.939890 0.661528 0.382074 0.214773
H12   H     H_    0.160290 0.444150 0.624124 0.185279
H13   H     H_    0.303266 0.709666 0.585260 0.195064
H14   H     H_    0.790943 0.194605 0.398332 0.207605
H15   H     H_    0.800321 0.809094 0.412520 0.197174
H16   H     H_    0.308149 0.303046 0.599166 0.198558
H17   H     H_    0.803278 0.209632 0.584856 0.195086
H18   H     H_    0.291641 0.694056 0.398812 0.206878
H19   H     H_    0.299407 0.308443 0.411777 0.197754
H20   H     H_    0.807646 0.802302 0.599831 0.198632
H21   H     H_    0.696092 0.214845 0.422254 0.211412
H22   H     H_    0.398203 0.733062 0.562634 0.194131
H23   H     H_    0.293686 0.205533 0.575091 0.181805
H24   H     H_    0.703956 0.790818 0.431180 0.181200
H25   H     H_    0.196750 0.714046 0.421530 0.211788
H26   H     H_    0.898045 0.233009 0.561842 0.194040
H27   H     H_    0.792465 0.704865 0.573321 0.182316
H28   H     H_    0.203334 0.289969 0.432198 0.180757
H29   H     H_    0.574249 0.028686 0.735659 0.137247
H30   H     H_    0.427856 0.034188 0.263857 0.141547
H31   H     H_    0.077475 0.516072 0.735530 0.134511
H32   H     H_    0.922128 0.486481 0.264419 0.138433
H33   H     H_    0.593618 0.967099 0.292484 0.148853
H34   H     H_    0.404554 0.972226 0.707798 0.157963
H35   H     H_    0.098962 0.511811 0.292428 0.142549
H36   H     H_    0.901557 0.484820 0.707772 0.159187
H37   H     H_    0.564842 0.995655 0.006857 0.157078
H38   H     H_    0.435175 0.999474 0.993229 0.155903
H39   H     H_    0.062881 0.483759 0.006786 0.158215
H40   H     H_    0.936934 0.515991 0.992907 0.156887
H41   H     H_    0.396960 0.972145 0.857136 0.156826
H42   H     H_    0.601217 0.966305 0.143261 0.155421
H43   H     H_    0.894069 0.487624 0.857270 0.157381
H44   H     H_    0.106321 0.509165 0.142833 0.154721
N1    N     N_R   0.489810 1.000000 0.715580 -0.100886
N2    N     N_R   0.510190 1.000000 0.284420 -0.100490
N3    N     N_R   0.989810 0.500000 0.715580 -0.101515
N4    N     N_R   0.010190 0.500000 0.284420 -0.101199
O1    O     O_R   0.445750 0.057890 0.422600 -0.629512
O2    O     O_R   0.554250 0.942110 0.577400 -0.603359
O3    O     O_R   0.554250 0.057890 0.577400 -0.629525
O4    O     O_R   0.445750 0.942110 0.422600 -0.602998
O5    O     O_R   0.945750 0.557890 0.422600 -0.618236
O6    O     O_R   0.054250 0.442110 0.577400 -0.606630
O7    O     O_R   0.054250 0.557890 0.577400 -0.625955
O8    O     O_R   0.945750 0.442110 0.422600 -0.614499
O9    O     O_R   0.439220 0.057900 0.561040 -0.582681
O10   O     O_R   0.560780 0.942100 0.438960 -0.608581
O11   O     O_R   0.560780 0.057900 0.438960 -0.593190
O12   O     O_R   0.439220 0.942100 0.561040 -0.599445
O13   O     O_R   0.939220 0.557900 0.561040 -0.586486
O14   O     O_R   0.060780 0.442100 0.438960 -0.596679
O15   O     O_R   0.060780 0.557900 0.438960 -0.603665
O16   O     O_R   0.939220 0.442100 0.561040 -0.594642
Zn1   Zn    Zn3+2 0.504350 0.000000 0.407560 0.986509
Zn2   Zn    Zn3+2 0.495650 0.000000 0.592440 0.990731
Zn3   Zn    Zn3+2 0.004350 0.500000 0.407560 0.986135
Zn4   Zn    Zn3+2 0.995650 0.500000 0.592440 0.990362
I1    I     I_    0.476226 0.824656 0.631728 -0.264412
I2    I     I_    0.574289 0.184067 0.373456 -0.226353
I3    I     I_    0.581216 0.815573 0.378433 -0.279653
I4    I     I_    0.319478 0.082837 0.620376 -0.306889
I5    I     I_    0.976276 0.324403 0.631120 -0.260690
I6    I     I_    0.075226 0.683177 0.371872 -0.233134
I7    I     I_    0.080310 0.314485 0.380425 -0.265759
I8    I     I_    0.817439 0.581653 0.616753 -0.314349
Cl1   Cl    Cl    0.280097 0.798929 0.321703 -0.576089
Cl2   Cl    Cl    0.772514 0.102796 0.659929 -0.524636
Cl3   Cl    Cl    0.773034 0.910245 0.664406 -0.517423
Cl4   Cl    Cl    0.403470 0.273935 0.347470 -0.533792
Cl5   Cl    Cl    0.779631 0.299576 0.321597 -0.578257
Cl6   Cl    Cl    0.272062 0.603397 0.661224 -0.524773
Cl7   Cl    Cl    0.273708 0.411457 0.662486 -0.518255
Cl8   Cl    Cl    0.905659 0.775164 0.350540 -0.530490

loop_
_geom_bond_atom_site_label_1
_geom_bond_atom_site_label_2
_ccdc_geom_bond_type
C16   C28   S    
C3    O11   A    
C2    O10   A    
C41   I5    S    
C60   C84   S    
C14   C18   A    
C12   H3    S    
C1    O9    A    
C34   C42   A    
C43   C51   A    
C7    O7    A    
C49   C57   A    
C32   C72   A    
C76   H11   S    
C15   C19   A    
C80   H19   S    
C30   C38   A    
C22   N2    A    
C78   H17   S    
C47   C55   A    
C77   H18   S    
C8    O16   A    
O13   Zn4   S    
C59   C83   S    
C58   C82   S    
C79   C84   D    
N2    Zn1   S    
C37   I1    S    
C47   H24   S    
C4    O12   A    
C5    C36   S    
C65   C73   A    
C6    C35   S    
C62   C70   A    
C40   C48   A    
C21   N1    A    
C21   H34   S    
C9    C13   A    
C36   C76   A    
C59   C67   A    
C5    O13   A    
C11   C15   A    
C11   H4    S    
C86   N2    A    
O16   Zn4   S    
C10   H1    S    
C11   C87   A    
C55   C63   A    
C56   C64   A    
O15   Zn3   S    
C6    O6    A    
C35   C43   A    
C4    C29   S    
C28   H39   S    
O4    Zn1   S    
C9    C85   A    
C44   C52   A    
C31   C71   A    
C49   H26   S    
C66   Cl6   S    
C45   C53   A    
C72   H7    S    
C13   C25   S    
O12   Zn2   S    
C20   H44   S    
C80   C83   D    
C41   C49   A    
C30   C70   A    
C58   C66   A    
C74   H9    S    
C29   C69   A    
C81   H14   S    
C51   C59   A    
C19   H43   S    
C73   H10   S    
C83   H16   S    
C12   C88   A    
C17   H41   S    
N1    Zn2   S    
C2    O2    A    
C12   C16   A    
C70   H5    S    
C88   N4    A    
C86   H30   S    
C69   H6    S    
C10   C14   A    
N4    Zn3   S    
C45   H22   S    
O5    Zn3   S    
C71   H8    S    
C54   C62   A    
O3    Zn2   S    
C67   Cl7   S    
C25   C26   D    
C24   H35   S    
C17   C21   A    
N3    Zn4   S    
C65   Cl5   S    
C2    C31   S    
C26   H37   S    
C50   C58   A    
C3    C30   S    
C19   C23   A    
C25   H38   S    
C87   H31   S    
C87   N3    A    
C4    O4    A    
C66   C74   A    
C55   C79   S    
C27   H40   S    
C15   C27   S    
C16   C20   A    
C35   C75   A    
C46   C54   A    
O1    Zn1   S    
C8    O8    A    
C14   C26   S    
C85   H29   S    
C38   I2    S    
C63   C71   A    
C42   C50   A    
C7    O15   A    
O9    Zn2   S    
C33   C73   A    
C62   Cl2   S    
C34   C74   A    
O14   Zn3   S    
C53   C77   S    
C7    C34   S    
C57   C81   S    
C18   H42   S    
C88   H32   S    
C1    C32   S    
C53   C61   A    
C32   C40   A    
C1    O1    A    
C22   H33   S    
C39   C47   A    
C52   H27   S    
C61   C69   A    
C48   C56   A    
C10   C86   A    
C39   I3    S    
C18   C22   A    
C40   I4    S    
C5    O5    A    
C57   C65   A    
C9    H2    S    
C42   I6    S    
C23   H36   S    
C13   C17   A    
C68   C76   A    
C51   H28   S    
C56   C80   S    
C23   N3    A    
C50   H25   S    
C33   C41   A    
O8    Zn3   S    
C64   Cl4   S    
C68   Cl8   S    
C78   C81   D    
C24   N4    A    
O7    Zn4   S    
O10   Zn1   S    
C77   C82   D    
C3    O3    A    
C63   Cl3   S    
C75   H12   S    
C82   H13   S    
C31   C39   A    
C79   H20   S    
C61   Cl1   S    
C8    C33   S    
C64   C72   A    
O11   Zn1   S    
C38   C46   A    
C36   C44   A    
C6    O14   A    
C48   H23   S    
C67   C75   A    
C60   C68   A    
C52   C60   A    
C46   H21   S    
C29   C37   A    
C27   C28   D    
C84   H15   S    
C44   I8    S    
O6    Zn4   S    
O2    Zn2   S    
C37   C45   A    
C20   C24   A    
C85   N1    A    
C54   C78   S    
C43   I7    S    
