data_mof_unit_35072.cif
_audit_creation_date              2012-12-10T17:01:38-0500
_audit_creation_method            fapswitch 2.2
_symmetry_space_group_name_H-M    P1
_symmetry_Int_Tables_number       1
_space_group_crystal_system       triclinic
_cell_length_a                    9.892232
_cell_length_b                    11.085779
_cell_length_c                    12.972367
_cell_angle_alpha                 89.500304
_cell_angle_beta                  75.805538
_cell_angle_gamma                 110.975694
_cell_volume                      1280.42518734

loop_
_atom_site_label
_atom_site_type_symbol
_atom_type_description
_atom_site_fract_x
_atom_site_fract_y
_atom_site_fract_z
_atom_type_partial_charge
C1    C     C_R   0.439465 0.254472 0.509503 0.833087
C2    C     C_R   0.560535 0.745528 0.490497 0.833088
C3    C     C_2   0.083351 0.509167 0.489003 0.372910
C4    C     C_2   0.916649 0.490833 0.510997 0.372910
C5    C     C_R   0.474582 0.500211 0.701896 0.887333
C6    C     C_R   0.525417 0.499789 0.298104 0.887340
C7    C     C_R   0.536519 0.489818 0.184902 -0.164420
C8    C     C_R   0.463480 0.510180 0.815098 -0.164422
C9    C     C_R   0.379144 0.591630 0.982054 0.431707
C10   C     C_R   0.620844 0.408357 0.017950 0.431719
C11   C     C_R   0.391702 0.588278 0.871717 -0.023263
C12   C     C_R   0.608289 0.411713 0.128285 -0.023268
C13   C     C_R   0.525456 0.439790 0.865860 0.369108
C14   C     C_R   0.474542 0.560206 0.134140 0.369118
C15   C     C_R   0.536333 0.460958 0.970960 -0.141966
C16   C     C_R   0.463661 0.539035 0.029041 -0.141973
C17   C     C_2   0.407758 0.117042 0.502984 -0.340246
C18   C     C_2   0.592241 0.882957 0.497016 -0.340244
C19   C     C_2   0.499074 0.060447 0.524269 0.162522
C20   C     C_2   0.500926 0.939553 0.475731 0.162521
Cu1   Cu    Cu3+1 0.647370 0.522180 0.481340 1.000905
Cu2   Cu    Cu3+1 0.352630 0.477820 0.518660 1.000904
H1    H     H_    0.680806 0.932280 0.534597 0.133900
H2    H     H_    0.319194 0.067719 0.465403 0.133900
H3    H     H_    0.945276 0.627512 0.395164 0.160437
H4    H     H_    0.054724 0.372488 0.604836 0.160435
N1    N     N_2   0.131210 0.444490 0.546730 -0.287989
N2    N     N_2   0.868790 0.555510 0.453270 -0.287989
O1    O     O_R   0.578710 0.332530 0.490040 -0.521166
O2    O     O_R   0.421290 0.667470 0.509960 -0.521166
O3    O     O_R   0.329810 0.295070 0.521560 -0.590154
O4    O     O_R   0.670190 0.704930 0.478440 -0.590153
O5    O     O_R   0.604230 0.515670 0.637800 -0.501365
O6    O     O_R   0.395770 0.484330 0.362200 -0.501367
O7    O     O_R   0.355330 0.478200 0.669330 -0.595122
O8    O     O_R   0.644670 0.521800 0.330670 -0.595123
O9    O     O_3   0.429909 0.651769 0.188631 -0.685881
H5    H     H_    0.468771 0.731879 0.138431 0.349324
O10   O     O_3   0.570096 0.348232 0.811367 -0.685874
H6    H     H_    0.531216 0.268116 0.861560 0.349322
C21   C     C_3   0.663851 0.327188 0.186022 -0.811819
H7    H     H_    0.678296 0.246704 0.140020 0.237092
H8    H     H_    0.772526 0.387069 0.201352 0.248761
H9    H     H_    0.580337 0.279671 0.263059 0.220870
C22   C     C_3   0.336137 0.672803 0.813983 -0.811826
H10   H     H_    0.321693 0.753286 0.859986 0.237089
H11   H     H_    0.419648 0.720321 0.736945 0.220874
H12   H     H_    0.227461 0.612921 0.798655 0.248760
O11   O     O_3   0.282122 0.641733 0.045755 -0.717546
H13   H     H_    0.197019 0.630266 0.014469 0.330333
O12   O     O_3   0.717854 0.358241 0.954252 -0.717541
H14   H     H_    0.802964 0.369713 0.985532 0.330331
C23   C     C_3   0.406870 0.885445 0.397920 -0.731967
H15   H     H_    0.427581 0.963799 0.335403 0.198698
H16   H     H_    0.437038 0.809561 0.353785 0.279439
H17   H     H_    0.285894 0.845183 0.441442 0.245203
C24   C     C_3   0.593130 0.114555 0.602080 -0.731968
H18   H     H_    0.572419 0.036201 0.664596 0.198698
H19   H     H_    0.714106 0.154817 0.558558 0.245204
H20   H     H_    0.562962 0.190439 0.646214 0.279437
O13   O     O_3   0.811148 0.404998 0.594958 -0.670917
H21   H     H_    0.856175 0.409791 0.655647 0.322186
O14   O     O_3   0.188852 0.595002 0.405042 -0.670918
H22   H     H_    0.143825 0.590208 0.344353 0.322188

loop_
_geom_bond_atom_site_label_1
_geom_bond_atom_site_label_2
_ccdc_geom_bond_type
C5    C8    S    
C23   H15   S    
O9    H5    S    
C3    O14   S    
C2    C18   S    
C9    C11   A    
C21   H7    S    
C23   H16   S    
C1    C17   S    
C19   C20   S    
C2    O2    A    
Cu1   O4    S    
C23   H17   S    
C22   H11   S    
H4    N1    S    
O12   H14   S    
Cu1   O8    S    
C22   H10   S    
C19   C24   S    
H3    N2    S    
Cu2   O7    S    
C21   H8    S    
C24   H18   S    
C12   C21   S    
C10   C12   A    
C8    C11   A    
C10   O12   S    
C5    O7    A    
C11   C22   S    
C3    N1    D    
C17   C19   D    
Cu1   N2    S    
C6    O8    A    
C6    C7    S    
C18   C20   D    
Cu2   N1    S    
C13   C15   A    
O13   H21   S    
Cu2   O6    S    
C21   H9    S    
C14   C16   A    
C7    C12   A    
C24   H19   S    
C17   H2    S    
Cu1   O5    S    
Cu2   O3    S    
C1    O1    A    
C18   H1    S    
C8    C13   A    
C6    O6    A    
C1    O3    A    
C9    O11   S    
C3    C4    S    
C2    O4    A    
O11   H13   S    
C22   H12   S    
O10   H6    S    
C20   C23   S    
C24   H20   S    
Cu2   O2    S    
C4    N2    D    
C10   C15   A    
Cu1   Cu2   S    
Cu1   O1    S    
C4    O13   S    
C9    C16   A    
C7    C14   A    
C13   O10   S    
C15   C16   A    
O14   H22   S    
C14   O9    S    
C5    O5    A    
