data_mof_unit_54505.cif
_audit_creation_date              2012-12-11T15:41:21-0500
_audit_creation_method            fapswitch 2.2
_symmetry_space_group_name_H-M    P1
_symmetry_Int_Tables_number       1
_space_group_crystal_system       triclinic
_cell_length_a                    14.835585
_cell_length_b                    14.813736
_cell_length_c                    14.850155
_cell_angle_alpha                 109.114584
_cell_angle_beta                  109.697586
_cell_angle_gamma                 109.451168
_cell_volume                      2516.94060303

loop_
_atom_site_label
_atom_site_type_symbol
_atom_type_description
_atom_site_fract_x
_atom_site_fract_y
_atom_site_fract_z
_atom_type_partial_charge
C1    C     C_R   0.252844 0.067711 0.975934 -0.128060
C2    C     C_R   0.806130 0.006416 0.096868 -0.139883
C3    C     C_R   0.772442 0.325528 0.326377 0.145828
C4    C     C_R   0.129426 0.700283 0.698012 0.155332
C5    C     C_R   0.500139 0.932015 0.301682 0.056424
C6    C     C_R   0.500175 0.947779 0.674266 0.055483
C7    C     C_R   0.497144 0.298999 0.926401 0.081051
C8    C     C_R   0.501421 0.674326 0.945940 0.092721
C9    C     C_R   0.190219 0.084422 0.582652 -0.071629
C10   C     C_R   0.902531 0.766033 0.045114 -0.073216
C11   C     C_R   0.288698 0.184159 0.659423 -0.213662
C12   C     C_R   0.805787 0.689570 0.031506 -0.261310
C13   C     C_R   0.291307 0.268533 0.741132 -0.120847
C14   C     C_R   0.702190 0.651954 0.943366 -0.094028
C15   C     C_R   0.193265 0.251787 0.743920 0.755808
C16   C     C_R   0.697565 0.693777 0.870118 0.784393
C17   C     C_R   0.094986 0.151772 0.666667 -0.257495
C18   C     C_R   0.794681 0.770378 0.884504 -0.256101
C19   C     C_R   0.093478 0.068250 0.586263 -0.181531
C20   C     C_R   0.896944 0.805405 0.970986 -0.179294
C21   C     C_R   0.400213 0.471098 0.831587 -0.141880
C22   C     C_R   0.596608 0.470304 0.925032 -0.238245
C23   C     C_R   0.748250 0.221986 0.314841 -0.096344
C24   C     C_R   0.195549 0.793181 0.700348 -0.114011
C25   C     C_R   0.501027 0.570118 0.895468 0.097174
C26   C     C_R   0.495927 0.378411 0.886607 0.032863
C27   C     C_R   0.599510 0.565136 0.923863 0.090468
C28   C     C_R   0.396793 0.373234 0.822417 0.106426
C29   C     C_R   0.866103 0.528824 0.428477 -0.382926
C30   C     C_R   0.959055 0.527390 0.624650 -0.386595
C31   C     C_R   0.957300 0.623984 0.521107 0.768413
C32   C     C_R   0.866744 0.432691 0.532166 0.783854
C33   C     C_R   0.012454 0.619667 0.616297 -0.160015
C34   C     C_R   0.829486 0.429430 0.429999 -0.151865
C35   C     C_R   0.600199 0.939804 0.570590 -0.139464
C36   C     C_R   0.400249 0.838191 0.376935 -0.137044
C37   C     C_R   0.600246 0.937754 0.476775 -0.140021
C38   C     C_R   0.400309 0.840299 0.470785 -0.146374
C39   C     C_R   0.500229 0.897216 0.383065 0.118979
C40   C     C_R   0.500244 0.902482 0.570884 0.132375
C41   C     C_R   0.136521 0.070226 0.169132 0.756894
C42   C     C_R   0.042717 0.167217 0.063981 0.775122
C43   C     C_R   0.043801 0.072512 0.169278 -0.396233
C44   C     C_R   0.134366 0.163714 0.062986 -0.373415
C45   C     C_R   0.408542 0.903479 0.208513 -0.099690
C46   C     C_R   0.592437 0.025648 0.777504 -0.108491
C47   C     C_R   0.988496 0.108765 0.105199 -0.160354
C48   C     C_R   0.172059 0.101982 0.102248 -0.155645
C49   C     C_R   0.589703 0.298361 0.991142 -0.135502
C50   C     C_R   0.408622 0.685444 0.931873 -0.097482
C51   C     C_R   0.591607 0.995001 0.300034 -0.104027
C52   C     C_R   0.407789 0.933493 0.685229 -0.121932
C53   C     C_R   0.407203 0.207796 0.903347 -0.116761
C54   C     C_R   0.592990 0.777543 0.026429 -0.122154
C55   C     C_R   0.746865 0.314667 0.222648 -0.123463
C56   C     C_R   0.194100 0.700816 0.791156 -0.147955
C57   C     C_R   0.251752 0.973931 0.066837 -0.108778
C58   C     C_R   0.804496 0.097577 0.004890 -0.119350
C59   C     C_R   0.227843 0.053596 0.054534 0.143337
C60   C     C_R   0.870906 0.070883 0.068782 0.150950
H1    H     H_    0.243546 0.121942 0.944466 0.112695
H2    H     H_    0.834221 0.982518 0.157595 0.100754
H3    H     H_    0.188952 0.019604 0.520408 0.148542
H4    H     H_    0.981976 0.794162 0.112693 0.160739
H5    H     H_    0.363111 0.195498 0.655716 0.164066
H6    H     H_    0.811779 0.659758 0.089645 0.154231
H7    H     H_    0.019932 0.138685 0.669463 0.170081
H8    H     H_    0.790806 0.801562 0.827587 0.161004
H9    H     H_    0.323673 0.469829 0.791222 0.150638
H10   H     H_    0.673091 0.469279 0.957172 0.136926
H11   H     H_    0.831929 0.532072 0.353588 0.181979
H12   H     H_    0.992825 0.524047 0.699524 0.191552
H13   H     H_    0.678951 0.981332 0.644835 0.123897
H14   H     H_    0.321387 0.799867 0.303853 0.122156
H15   H     H_    0.679085 0.977905 0.482385 0.120487
H16   H     H_    0.321547 0.803440 0.466364 0.122859
H17   H     H_    0.759033 0.198138 0.377052 0.179379
H18   H     H_    0.170768 0.829320 0.651288 0.178502
H19   H     H_    0.010620 0.036315 0.211221 0.184551
H20   H     H_    0.167600 0.200134 0.021217 0.198981
H21   H     H_    0.324121 0.842277 0.174983 0.092211
H22   H     H_    0.678100 0.057882 0.799802 0.106582
H23   H     H_    0.673943 0.349001 0.013650 0.097841
H24   H     H_    0.323063 0.622455 0.876954 0.115774
H25   H     H_    0.676161 0.018280 0.350999 0.091422
H26   H     H_    0.322153 0.880353 0.621970 0.103008
H27   H     H_    0.321467 0.173903 0.847186 0.107699
H28   H     H_    0.678888 0.800677 0.061746 0.103967
H29   H     H_    0.755309 0.377744 0.199787 0.106379
H30   H     H_    0.166217 0.649377 0.824266 0.110883
H31   H     H_    0.240861 0.939458 0.118358 0.175298
H32   H     H_    0.829055 0.158775 0.981032 0.184341
H33   H     H_    0.017336 0.990892 0.526845 0.166510
H34   H     H_    0.971840 0.862829 0.980179 0.146538
N1    N     N_R   0.293810 0.002730 0.945950 -0.047707
N2    N     N_R   0.706190 0.997270 0.054050 -0.041881
N3    N     N_R   0.706160 0.152130 0.208910 -0.060181
N4    N     N_R   0.293840 0.847870 0.791090 -0.053535
N5    N     N_R   0.443140 0.945920 0.152090 -0.044019
N6    N     N_R   0.556860 0.054080 0.847910 -0.043704
N7    N     N_R   0.556830 0.208940 0.002760 -0.041760
N8    N     N_R   0.443170 0.791060 0.997240 -0.047626
N9    N     N_R   0.556790 0.002750 0.208910 -0.045104
N10   N     N_R   0.443210 0.997250 0.791090 -0.043399
N11   N     N_R   0.443180 0.152110 0.945950 -0.044876
N12   N     N_R   0.556820 0.847890 0.054050 -0.046713
N13   N     N_R   0.706170 0.208950 0.152090 -0.047267
N14   N     N_R   0.293830 0.791050 0.847910 -0.043460
N15   N     N_R   0.293800 0.945910 0.002760 -0.057669
N16   N     N_R   0.706200 0.054090 0.997240 -0.053307
Ni1   Ni    Ni4+2 0.369690 0.999990 0.869700 0.226725
Ni2   Ni    Ni4+2 0.630310 0.000010 0.130300 0.219886
Ni3   Ni    Ni4+2 0.369670 0.869670 0.000000 0.225072
Ni4   Ni    Ni4+2 0.630330 0.130330 0.000000 0.230100
F1    F     F_    0.193443 0.330549 0.823149 -0.703509
F2    F     F_    0.599542 0.658102 0.782858 -0.702561
F3    F     F_    0.994821 0.715721 0.512370 -0.735234
F4    F     F_    0.820919 0.343507 0.542515 -0.711904
F5    F     F_    0.183422 0.027701 0.225935 -0.728524
F6    F     F_    0.003756 0.219616 0.015770 -0.711135

loop_
_geom_bond_atom_site_label_1
_geom_bond_atom_site_label_2
_ccdc_geom_bond_type
C54   H28   S    
C8    C25   S    
C58   N16   A    
C3    C23   A    
C51   H25   S    
C58   H32   S    
C50   H24   S    
N12   Ni2   S    
N2    Ni2   S    
C7    C26   S    
C24   N4    A    
C35   C37   A    
C1    C59   A    
C49   N7    A    
C4    C24   A    
C2    C60   A    
C57   C59   A    
C58   C60   A    
N6    N10   A    
N4    N14   A    
C31   F3    S    
C21   C25   A    
C47   C60   S    
C46   H22   S    
C3    C55   A    
C9    C19   A    
C57   N15   A    
C10   C20   A    
C31   C33   A    
C13   C28   S    
C14   C27   S    
C35   H13   S    
N16   Ni4   S    
C18   C20   A    
C19   H33   S    
N15   Ni3   S    
C56   H30   S    
N11   Ni1   S    
C38   C40   A    
N2    N16   A    
C4    C56   A    
N7    Ni4   S    
C41   C43   A    
C6    C46   A    
C42   C44   A    
C52   H26   S    
C16   F2    S    
N7    N11   A    
C45   H21   S    
C17   H7    S    
C54   N12   A    
C44   H20   S    
C6    C40   S    
N6    Ni4   S    
C7    C49   A    
N5    N9    A    
N1    N15   A    
C51   N9    A    
C8    C54   A    
N3    Ni2   S    
C38   H16   S    
C3    C34   S    
C12   H6    S    
C29   C34   A    
C41   F5    S    
C55   N13   A    
N9    Ni2   S    
C32   C34   A    
N14   Ni3   S    
N13   Ni4   S    
C46   N6    A    
C1    N1    A    
C53   H27   S    
C16   C18   A    
C23   H17   S    
C44   C48   A    
C9    C11   A    
C43   H19   S    
C10   C12   A    
C24   H18   S    
C23   N3    A    
C21   C28   A    
C12   C14   A    
C50   N8    A    
C22   C27   A    
C13   C15   A    
C45   N5    A    
C14   C16   A    
C7    C53   A    
C8    C50   A    
C48   C59   S    
C15   C17   A    
C5    C39   S    
C20   H34   S    
C4    C33   S    
C36   H14   S    
N4    Ni1   S    
C57   H31   S    
C30   C33   A    
C9    H3    S    
C36   C39   A    
C10   H4    S    
C32   F4    S    
C43   C47   A    
C1    H1    S    
N5    Ni3   S    
N10   Ni1   S    
C30   H12   S    
C25   C27   A    
C26   C28   A    
C49   H23   S    
C36   C38   A    
C35   C40   A    
C37   C39   A    
N8    Ni3   S    
N1    Ni1   S    
C30   C32   A    
C11   C13   A    
C42   F6    S    
C5    C45   A    
C2    N2    A    
C17   C19   A    
C41   C48   A    
C52   N10   A    
N8    N12   A    
C15   F1    S    
C42   C47   A    
C37   H15   S    
C55   H29   S    
N3    N13   A    
C53   N11   A    
C29   C31   A    
C22   C26   A    
C21   H9    S    
C2    H2    S    
C56   N14   A    
C5    C51   A    
C6    C52   A    
C18   H8    S    
C22   H10   S    
C11   H5    S    
C29   H11   S    
