data_mof_unit_44845.cif
_audit_creation_date              2013-03-05T16:49:09-0500
_audit_creation_method            fapswitch 2.2
_symmetry_space_group_name_H-M    P1
_symmetry_Int_Tables_number       1
_space_group_crystal_system       triclinic
_cell_length_a                    10.860264
_cell_length_b                    10.633768
_cell_length_c                    9.489136
_cell_angle_alpha                 87.424074
_cell_angle_beta                  90.908698
_cell_angle_gamma                 89.515854
_cell_volume                      1094.56682728

loop_
_atom_site_label
_atom_site_type_symbol
_atom_site_description
_atom_site_fract_x
_atom_site_fract_y
_atom_site_fract_z
_atom_type_partial_charge
O1    O     O_R   0.500060 0.316850 0.620870 -0.559089
O2    O     O_R   0.499940 0.683150 0.379130 -0.559091
O3    O     O_R   0.500000 0.316860 0.379090 -0.524453
O4    O     O_R   0.500000 0.683140 0.620910 -0.524453
C1    C     C_R   0.500647 0.259645 0.502522 0.855880
C2    C     C_R   0.499356 0.740355 0.497478 0.855875
O5    O     O_R   0.319670 0.500010 0.620890 -0.477323
O6    O     O_R   0.680330 0.499990 0.379110 -0.477327
O7    O     O_R   0.319620 0.500010 0.379110 -0.617607
O8    O     O_R   0.680380 0.499990 0.620890 -0.617607
C3    C     C_R   0.262698 0.502676 0.498747 0.866159
C4    C     C_R   0.737302 0.497323 0.501253 0.866166
Cu1   Cu    Cu3+1 0.500030 0.499990 0.643150 1.079582
Cu2   Cu    Cu3+1 0.499970 0.500010 0.356850 1.079580
H1    H     H_    0.214088 0.884234 0.974930 0.213196
H2    H     H_    0.785923 0.115768 0.025076 0.213193
C5    C     C_R   0.218421 0.840413 0.198610 -0.135641
C6    C     C_R   0.781605 0.159571 0.801390 -0.135649
H3    H     H_    0.267935 0.924554 0.222335 0.154237
H4    H     H_    0.732108 0.075417 0.777668 0.154234
C7    C     C_R   0.182444 0.756305 0.307541 -0.129363
C8    C     C_R   0.817579 0.243678 0.692457 -0.129378
H5    H     H_    0.203615 0.776962 0.415904 0.164417
H6    H     H_    0.796425 0.223008 0.584093 0.164435
C9    C     C_R   0.114565 0.648946 0.276390 0.196002
C10   C     C_R   0.885434 0.351053 0.723606 0.196021
C11   C     C_R   0.085418 0.626081 0.135033 -0.094529
C12   C     C_R   0.914562 0.373936 0.864963 -0.094545
H7    H     H_    0.032189 0.544342 0.109459 0.135223
H8    H     H_    0.967772 0.455689 0.890535 0.135206
C13   C     C_R   0.120786 0.710817 0.026878 -0.079891
C14   C     C_R   0.879198 0.289200 0.973122 -0.079886
H9    H     H_    0.096275 0.693539 0.918461 0.175302
H10   H     H_    0.903695 0.306492 0.081541 0.175314
C15   C     C_R   0.187054 0.818199 0.058701 0.026945
C16   C     C_R   0.812953 0.181803 0.941301 0.026949
C17   C     C_R   0.930950 0.565870 0.395377 0.590030
C18   C     C_R   0.069049 0.434131 0.604622 0.590042
C19   C     C_R   0.871382 0.496426 0.502728 -0.274556
C20   C     C_R   0.128618 0.503574 0.497270 -0.274558
C21   C     C_R   0.940952 0.430179 0.609221 -0.195156
C22   C     C_R   0.059048 0.569821 0.390775 -0.195145
C23   C     C_3   0.505342 0.031364 0.636374 -0.220867
C24   C     C_3   0.494667 0.968637 0.363627 -0.220877
C25   C     C_3   0.603725 0.952085 0.562110 -0.343599
C26   C     C_3   0.396283 0.047915 0.437891 -0.343599
H11   H     H_    0.689386 0.910146 0.610057 0.186075
H12   H     H_    0.310622 0.089853 0.389943 0.186080
H13   H     H_    0.507874 0.056176 0.748088 0.247818
H14   H     H_    0.492139 0.943825 0.251913 0.247818
C27   C     C_3   0.499762 0.877342 0.493900 -0.180470
C28   C     C_3   0.500246 0.122658 0.506100 -0.180470
C29   C     C_3   0.402971 0.955190 0.567096 0.724047
C30   C     C_3   0.597037 0.044810 0.432905 0.724048
C31   C     C_3   0.531432 0.606831 0.042625 0.297601
C32   C     C_3   0.468568 0.393169 0.957375 0.297605
C33   C     C_3   0.424009 0.582351 0.943596 0.678534
C34   C     C_3   0.575991 0.417649 0.056404 0.678526
N1    N     N_3   0.500090 0.499970 0.858290 -0.279724
N2    N     N_3   0.499910 0.500030 0.141710 -0.279723
C35   C     C_3   0.609513 0.525297 0.949524 -0.346270
C36   C     C_3   0.390487 0.474703 0.050476 -0.346260
H15   H     H_    0.700513 0.548264 0.903941 0.188846
H16   H     H_    0.299487 0.451738 0.096059 0.188851
F1    F     F_    0.347291 0.671355 0.877173 -0.611761
F2    F     F_    0.652706 0.328643 0.122828 -0.611767
N3    N     N_R   0.566254 0.730363 0.088529 0.135368
O9    O     O_R   0.511295 0.829893 0.032166 -0.344593
O10   O     O_R   0.667109 0.743123 0.161688 -0.261382
N4    N     N_R   0.433745 0.269637 0.911471 0.135370
O11   O     O_R   0.488705 0.170107 0.967832 -0.344587
O12   O     O_R   0.332890 0.256877 0.838312 -0.261379
F3    F     F_    0.863944 0.636025 0.298096 -0.612197
F4    F     F_    0.136055 0.363979 0.701907 -0.612189
F5    F     F_    0.302094 0.905800 0.636599 -0.626806
F6    F     F_    0.697914 0.094201 0.363402 -0.626812

loop_
_geom_bond_atom_site_label_1
_geom_bond_atom_site_label_2
_geom_bond_distance
_ccdc_geom_bond_type
C11   H7    1.082391 S    
C33   C36   1.544628 S    
C19   C21   1.411059 A    
O2    C2    1.301086 A    
O5    C3    1.304220 A    
C34   F2    1.379721 S    
O1    C1    1.301084 A    
C14   C16   1.396786 A    
C8    H6    1.082648 S    
C23   C28   1.537112 S    
C33   N1    1.475837 S    
C25   C27   1.537417 S    
C34   N2    1.475835 S    
C26   C28   1.537416 S    
C17   C22   1.393475 A    
N2    C36   1.492639 S    
O4    Cu1   1.949521 S    
C35   H15   1.109771 S    
C13   C15   1.396777 A    
C23   C29   1.537602 S    
C28   C30   1.527349 S    
C36   H16   1.109771 S    
C13   H9    1.082661 S    
C1    C28   1.455605 S    
N4    O11   1.300300 A    
C2    C27   1.455606 S    
C34   C35   1.544628 S    
C20   C22   1.411065 A    
C31   N2    1.487221 S    
C29   F5    1.382951 S    
H1    C15   1.082544 S    
C24   C26   1.552734 S    
C25   H11   1.110258 S    
C26   H12   1.110258 S    
N1    C35   1.492639 S    
C11   C13   1.395700 A    
N3    O9    1.300299 A    
C12   C14   1.395704 A    
C18   C21   1.393472 A    
O4    C2    1.295250 A    
C23   H13   1.103842 S    
C5    C7    1.398804 A    
N3    O10   1.298813 A    
C14   H10   1.082666 S    
O7    Cu2   1.973334 S    
C23   C25   1.552735 S    
O6    C4    1.304218 A    
O7    C3    1.302537 A    
O3    Cu2   1.949521 S    
O8    C4    1.302539 A    
C30   F6    1.382951 S    
C24   C27   1.537111 S    
C17   F3    1.358621 S    
C25   C30   1.538828 S    
C32   N4    1.453600 S    
C31   C33   1.517957 S    
C32   C36   1.526901 S    
O1    Cu1   1.968331 S    
C18   F4    1.358622 S    
C24   H14   1.103840 S    
C7    C9    1.404196 A    
O6    Cu2   1.966777 S    
C6    C8    1.398810 A    
C33   F1    1.379721 S    
O3    C1    1.295251 A    
O8    Cu1   1.973334 S    
C9    C22   1.482182 S    
C31   N3    1.453601 S    
Cu1   N1    2.041473 S    
C9    C11   1.405596 A    
Cu2   N2    2.041472 S    
C10   C12   1.405595 A    
C32   N1    1.487222 S    
C4    C19   1.455936 S    
C7    H5    1.082644 S    
C17   C19   1.401033 A    
H2    C16   1.082548 S    
C18   C20   1.401034 A    
C31   C35   1.526901 S    
C26   C29   1.538826 S    
C12   H8    1.082397 S    
C5    H3    1.078328 S    
C32   C34   1.517957 S    
C6    H4    1.078341 S    
C3    C20   1.455938 S    
O2    Cu2   1.968331 S    
C24   C30   1.537601 S    
O5    Cu1   1.966777 S    
C8    C10   1.404203 A    
N4    O12   1.298813 A    
C5    C15   1.396288 A    
C27   C29   1.527350 S    
Cu1   Cu2   2.716720 S    
C6    C16   1.396295 A    
C10   C21   1.482178 S    
