data_mof_unit_44248.cif
_audit_creation_date              2012-12-10T17:24:44-0500
_audit_creation_method            fapswitch 2.2
_symmetry_space_group_name_H-M    P1
_symmetry_Int_Tables_number       1
_space_group_crystal_system       triclinic
_cell_length_a                    23.525964
_cell_length_b                    10.754105
_cell_length_c                    9.630637
_cell_angle_alpha                 90.625277
_cell_angle_beta                  90.904415
_cell_angle_gamma                 92.916143
_cell_volume                      2432.93196553

loop_
_atom_site_label
_atom_site_type_symbol
_atom_type_description
_atom_site_fract_x
_atom_site_fract_y
_atom_site_fract_z
_atom_type_partial_charge
C1    C     C_R   0.498200 0.262721 0.499322 0.789857
C2    C     C_R   0.963672 0.263904 0.486658 -0.151830
C3    C     C_R   0.023179 0.259330 0.488084 0.149248
C4    C     C_R   0.057546 0.372776 0.487873 -0.031381
C5    C     C_R   0.030357 0.487683 0.485442 -0.053391
C6    C     C_R   0.062999 0.601598 0.484415 -0.001177
C7    C     C_R   0.035756 0.714842 0.482222 -0.165082
C8    C     C_R   0.976655 0.716021 0.481777 -0.168227
C9    C     C_R   0.117948 0.377430 0.490051 0.535443
C10   C     C_R   0.122367 0.599923 0.486160 0.528942
C11   C     C_R   0.239336 0.512185 0.369262 -0.104837
C12   C     C_R   0.391085 0.498818 0.499040 0.771561
C13   C     C_R   0.298632 0.514493 0.371478 -0.216527
C14   C     C_R   0.328502 0.496316 0.496598 -0.037812
C15   C     C_R   0.297991 0.474921 0.619142 -0.237147
C16   C     C_R   0.238669 0.471981 0.616431 -0.113058
C17   C     C_R   0.209260 0.490956 0.491627 0.372208
C18   C     C_R   0.762874 0.449767 0.608952 -0.097562
C19   C     C_R   0.703368 0.449285 0.616205 0.124479
C20   C     C_R   0.671831 0.496446 0.502787 -0.050141
C21   C     C_R   0.701146 0.541050 0.385641 -0.269382
C22   C     C_R   0.760195 0.540220 0.380258 -0.101183
C23   C     C_R   0.498375 0.737031 0.500543 0.770928
C24   C     C_R   0.791252 0.494692 0.491766 0.309335
C25   C     C_R   0.405480 0.121395 0.632892 -0.196508
C26   C     C_R   0.362149 0.053028 0.700258 0.228601
C27   C     C_R   0.362920 0.923195 0.702669 -0.110443
C28   C     C_R   0.406399 0.862135 0.637981 -0.221651
C29   C     C_R   0.450848 0.929993 0.570854 0.095492
C30   C     C_R   0.450446 0.061273 0.568709 0.058262
C31   C     C_R   0.494134 0.128525 0.497954 -0.093072
C32   C     C_R   0.535399 0.067344 0.425179 -0.195106
C33   C     C_R   0.535693 0.939202 0.426759 -0.199468
C34   C     C_R   0.608977 0.498414 0.501165 0.786431
C35   C     C_R   0.494760 0.870590 0.501236 -0.075770
C36   C     C_R   0.574744 0.668678 0.147995 -0.140085
C37   C     C_R   0.611190 0.750936 0.077955 -0.214460
C38   C     C_R   0.611213 0.750383 0.934816 -0.191044
C39   C     C_R   0.574754 0.667626 0.860780 -0.138896
C40   C     C_R   0.536476 0.582998 0.927670 0.186352
C41   C     C_R   0.536376 0.583404 0.076997 0.181767
C42   C     C_R   0.465988 0.417655 0.069102 0.242694
C43   C     C_R   0.465831 0.420361 0.921703 -0.055611
C44   C     C_R   0.883826 0.603486 0.484632 0.535257
C45   C     C_R   0.877473 0.381277 0.485511 0.543865
C46   C     C_R   0.937063 0.377392 0.485387 -0.060576
C47   C     C_R   0.970311 0.489548 0.484494 -0.020109
C48   C     C_R   0.943467 0.603978 0.483185 -0.001969
Cu1   Cu    Cu3+1 0.500000 0.499990 0.640660 0.922408
Cu2   Cu    Cu3+1 0.500000 0.500010 0.359340 0.934132
H1    H     H_    0.937827 0.177562 0.487119 0.191994
H2    H     H_    0.781891 0.574633 0.288954 0.153595
H3    H     H_    0.568367 0.119345 0.369669 0.154786
H4    H     H_    0.402765 0.221424 0.629026 0.143109
H5    H     H_    0.404043 0.761564 0.639230 0.164695
H6    H     H_    0.568790 0.893326 0.371922 0.137627
H7    H     H_    0.579153 0.675261 0.257634 0.189000
H8    H     H_    0.640009 0.814915 0.135550 0.153705
H9    H     H_    0.640022 0.813948 0.880433 0.159531
H10   H     H_    0.578832 0.673030 0.751401 0.199855
H11   H     H_    0.060026 0.803180 0.481337 0.187710
H12   H     H_    0.216673 0.526780 0.272543 0.135265
H13   H     H_    0.321016 0.531172 0.275521 0.159545
H14   H     H_    0.215489 0.455393 0.711253 0.136459
N1    N     N_R   0.852159 0.493165 0.486206 -0.462897
N2    N     N_R   0.148329 0.489369 0.489227 -0.471089
N3    N     N_R   0.500540 0.501210 0.147910 -0.196756
N4    N     N_R   0.500560 0.501290 0.852040 -0.215988
O1    O     O_R   0.500000 0.319640 0.618810 -0.578117
O2    O     O_2   0.845012 0.274089 0.484443 -0.536496
O3    O     O_2   0.146634 0.272155 0.492508 -0.543079
O4    O     O_2   0.154141 0.708047 0.485628 -0.535797
O5    O     O_R   0.500000 0.319660 0.381240 -0.573602
O6    O     O_R   0.417880 0.499950 0.618810 -0.591066
O7    O     O_R   0.417880 0.499980 0.381240 -0.581430
O8    O     O_R   0.500000 0.680340 0.618760 -0.597314
O9    O     O_R   0.500000 0.680360 0.381190 -0.586443
O10   O     O_R   0.582120 0.500020 0.618760 -0.591084
O11   O     O_R   0.582120 0.500050 0.381190 -0.595274
O12   O     O_2   0.857684 0.712321 0.486281 -0.537574
C49   C     C_3   0.675357 0.394773 0.743249 -0.803222
H15   H     H_    0.642865 0.320764 0.712110 0.241772
H16   H     H_    0.706574 0.351939 0.813444 0.220400
H17   H     H_    0.655358 0.468925 0.803499 0.246974
H18   H     H_    0.678383 0.577360 0.297617 0.165708
C50   C     C_3   0.314996 0.119816 0.767059 -0.857863
H19   H     H_    0.333034 0.185329 0.848112 0.217759
H20   H     H_    0.292238 0.173368 0.687484 0.252217
H21   H     H_    0.283792 0.053794 0.816362 0.240740
H22   H     H_    0.329394 0.868639 0.753081 0.147449
C51   C     C_3   0.429590 0.314604 0.132836 -0.771890
H23   H     H_    0.400776 0.267042 0.054243 0.174443
H24   H     H_    0.456678 0.241661 0.173444 0.246295
H25   H     H_    0.401341 0.348944 0.212896 0.251007
C52   C     C_3   0.047477 0.131885 0.489866 -0.739136
H26   H     H_    0.073597 0.121246 0.585595 0.259681
H27   H     H_    0.013695 0.055808 0.489312 0.192747
H28   H     H_    0.073357 0.118213 0.396047 0.260508
H29   H     H_    0.438575 0.355030 0.861704 0.141575
H30   H     H_    0.957112 0.805073 0.480636 0.184193
H31   H     H_    0.319874 0.459719 0.716812 0.157429
H32   H     H_    0.787660 0.414751 0.694492 0.144584

loop_
_geom_bond_atom_site_label_1
_geom_bond_atom_site_label_2
_ccdc_geom_bond_type
Cu1   N4    S    
C12   O6    A    
C52   H26   S    
C23   O8    A    
C11   H12   S    
Cu2   O11   S    
C49   H15   S    
C36   C41   A    
C52   H28   S    
C7    C8    A    
C41   N3    A    
C45   C46   A    
C2    C46   A    
C5    C47   A    
C17   N2    S    
C29   C30   A    
C18   C24   A    
C36   C37   A    
C43   H29   S    
C18   C19   A    
C30   C31   A    
C50   H20   S    
C15   C16   A    
C1    C31   S    
Cu1   O10   S    
C27   H22   S    
C42   C51   S    
C18   H32   S    
C9    N2    A    
C7    H11   S    
C11   C17   A    
C31   C32   A    
C43   N4    A    
Cu2   N3    S    
C37   H8    S    
C20   C34   S    
C33   H6    S    
Cu1   O1    S    
C21   C22   A    
C44   N1    A    
C49   H16   S    
C28   H5    S    
C10   N2    A    
C38   C39   A    
C21   H18   S    
C44   O12   S    
C25   H4    S    
C36   H7    S    
Cu2   O5    S    
C51   H23   S    
C50   H19   S    
C16   C17   A    
C15   H31   S    
C25   C26   A    
C1    O1    A    
C8    C48   A    
C37   C38   A    
C34   O11   A    
C51   H24   S    
C47   C48   A    
C13   H13   S    
C26   C50   S    
C26   C27   A    
Cu1   O8    S    
C23   O9    A    
C24   N1    S    
C40   C41   A    
C12   C14   S    
C23   C35   S    
C45   N1    A    
C42   N3    A    
C22   C24   A    
C42   C43   A    
C3    C4    A    
Cu2   O9    S    
C32   H3    S    
C39   C40   A    
C49   H17   S    
C22   H2    S    
C25   C30   A    
C46   C47   A    
C28   C29   A    
C45   O2    S    
C14   C15   A    
C9    O3    S    
C4    C5    A    
C50   H21   S    
C6    C10   A    
C52   H27   S    
C6    C7    A    
C29   C35   A    
C1    O5    A    
C32   C33   A    
C19   C20   A    
C2    C3    A    
C8    H30   S    
C19   C49   S    
Cu2   O7    S    
C34   O10   A    
C51   H25   S    
C11   C13   A    
C5    C6    A    
C39   H10   S    
C33   C35   A    
C2    H1    S    
C38   H9    S    
C20   C21   A    
Cu1   Cu2   S    
C40   N4    A    
C12   O7    A    
C27   C28   A    
Cu1   O6    S    
C3    C52   S    
C16   H14   S    
C4    C9    A    
C13   C14   A    
C44   C48   A    
C10   O4    S    
