data_mof_unit_52404.cif
_audit_creation_date              2012-10-26T19:59:10-0400
_audit_creation_method            fapswitch 2.2
_symmetry_space_group_name_H-M    P1
_symmetry_Int_Tables_number       1
_space_group_crystal_system       triclinic
_cell_length_a                    7.422666
_cell_length_b                    8.691618
_cell_length_c                    15.715397
_cell_angle_alpha                 94.234149
_cell_angle_beta                  75.191938
_cell_angle_gamma                 103.152934
_cell_volume                      954.358120676

loop_
_atom_site_label
_atom_site_type_symbol
_atom_type_description
_atom_site_fract_x
_atom_site_fract_y
_atom_site_fract_z
_atom_type_partial_charge
C1    C     C_R   0.545081 0.800230 0.502664 0.568898
C2    C     C_R   0.613972 0.500694 0.332948 0.563326
C3    C     C_R   0.311639 0.450924 0.760336 0.018756
C4    C     C_R   0.680925 0.487212 0.235540 0.004022
C5    C     C_R   0.113027 0.254885 0.865741 -0.126809
C6    C     C_R   0.936738 0.560950 0.104863 -0.136486
C7    C     C_R   0.151354 0.327778 0.785433 -0.160482
C8    C     C_R   0.873677 0.547614 0.195777 -0.157328
C9    C     C_R   0.424936 0.511302 0.820216 -0.009671
C10   C     C_R   0.552499 0.422644 0.181525 0.001278
C11   C     C_R   0.407260 0.419093 0.894204 -0.005246
C12   C     C_R   0.454836 0.199763 0.497440 0.555367
C13   C     C_R   0.617996 0.432537 0.087926 0.004429
C14   C     C_R   0.242809 0.295409 0.918734 0.043001
C15   C     C_R   0.808835 0.512760 0.051418 0.041454
C16   C     C_R   0.546740 0.443773 0.944530 0.015731
C17   C     C_R   0.497714 0.376418 0.029022 0.015537
C18   C     C_2   0.347080 0.361894 0.222783 0.220546
C19   C     C_2   0.532675 0.679636 0.814047 0.195783
C20   C     C_R   0.338422 0.248752 0.048494 -0.144925
C21   C     C_R   0.738824 0.518581 0.909754 -0.147169
C22   C     C_R   0.213099 0.209185 0.994283 -0.124755
C23   C     C_R   0.869308 0.547677 0.961823 -0.124904
C24   C     C_2   0.570500 0.968074 0.504047 -0.133857
C25   C     C_2   0.429299 0.031929 0.496210 -0.139078
C26   C     C_R   0.383976 0.487856 0.666487 0.599852
Cu1   Cu    Cu3+1 0.322120 0.483240 0.490330 1.006241
Cu2   Cu    Cu3+1 0.677880 0.516760 0.509670 1.002054
H1    H     H_    0.092319 0.110314 0.011603 0.116721
H2    H     H_    0.293199 0.960568 0.488800 0.140489
H3    H     H_    0.004095 0.615424 0.569091 0.246889
H4    H     H_    0.995947 0.384625 0.430877 0.255555
H5    H     H_    0.240081 0.412152 0.205672 0.098904
H6    H     H_    0.590137 0.735991 0.868193 0.108976
H7    H     H_    0.016078 0.605003 0.932807 0.122688
H8    H     H_    0.974476 0.593648 0.235427 0.134266
H9    H     H_    0.060895 0.282341 0.740955 0.142026
H10   H     H_    0.988382 0.159486 0.883677 0.126849
H11   H     H_    0.084601 0.616256 0.076525 0.113947
H12   H     H_    0.314549 0.171559 0.102832 0.151620
H13   H     H_    0.791702 0.549521 0.841063 0.125972
H14   H     H_    0.706588 0.039443 0.511470 0.141527
N1    N     N_2   0.945180 0.542040 0.524240 -0.262076
N2    N     N_2   0.054820 0.457960 0.475760 -0.254709
O1    O     O_R   0.384450 0.714270 0.493720 -0.512857
O2    O     O_2   0.549559 0.760780 0.751110 -0.503785
O3    O     O_R   0.615550 0.285730 0.506280 -0.515922
O4    O     O_R   0.684880 0.742590 0.510050 -0.479079
O5    O     O_R   0.315120 0.257410 0.489950 -0.476136
O6    O     O_R   0.265540 0.477900 0.617090 -0.521388
O7    O     O_R   0.734460 0.522100 0.382910 -0.517218
O8    O     O_R   0.565970 0.506210 0.633420 -0.461883
O9    O     O_R   0.434030 0.493790 0.366580 -0.463502
O10   O     O_2   0.296377 0.250620 0.272904 -0.503442

loop_
_geom_bond_atom_site_label_1
_geom_bond_atom_site_label_2
_ccdc_geom_bond_type
C2    C4    S    
N1    N2    D    
Cu1   O9    S    
C1    O4    A    
C16   C21   A    
C3    C9    A    
C22   H1    S    
C26   O8    A    
C18   H5    S    
C24   H14   S    
C11   C16   A    
Cu2   N1    S    
C23   H7    S    
Cu1   O6    S    
C13   C17   A    
C12   C25   S    
C4    C8    A    
C14   C22   A    
C26   O6    A    
C12   O5    A    
H4    N2    S    
C19   O2    D    
Cu2   O3    S    
C10   C13   A    
C5    H10   S    
C9    C11   A    
C1    O1    A    
C5    C14   A    
H3    N1    S    
C10   C18   S    
C12   O3    A    
C21   H13   S    
C6    C8    A    
C15   C23   A    
C11   C14   A    
C20   C22   A    
C3    C7    A    
C13   C15   A    
C21   C23   A    
C8    H8    S    
C20   H12   S    
Cu2   O7    S    
Cu1   O1    S    
C18   O10   D    
C4    C10   A    
C2    O9    A    
Cu1   Cu2   S    
C17   C20   A    
C24   C25   D    
C1    C24   S    
C2    O7    A    
C25   H2    S    
C5    C7    A    
C6    H11   S    
Cu2   O4    S    
Cu2   O8    S    
C6    C15   A    
Cu1   N2    S    
C9    C19   S    
C3    C26   S    
Cu1   O5    S    
C16   C17   A    
C7    H9    S    
C19   H6    S    
