data_mof_unit_37783.cif
_audit_creation_date              2013-03-05T16:37:44-0500
_audit_creation_method            fapswitch 2.2
_symmetry_space_group_name_H-M    P1
_symmetry_Int_Tables_number       1
_space_group_crystal_system       triclinic
_cell_length_a                    18.669158
_cell_length_b                    18.729376
_cell_length_c                    18.940988
_cell_angle_alpha                 109.96157
_cell_angle_beta                  109.713591
_cell_angle_gamma                 109.239005
_cell_volume                      5066.44769275

loop_
_atom_site_label
_atom_site_type_symbol
_atom_site_description
_atom_site_fract_x
_atom_site_fract_y
_atom_site_fract_z
_atom_type_partial_charge
O1    O     O_R   0.408360 0.551710 0.460090 -0.640740
O2    O     O_R   0.408390 0.448280 0.356670 -0.612059
C1    C     C_R   0.381534 0.502166 0.380187 0.870474
O3    O     O_R   0.591600 0.643340 0.551710 -0.657384
O4    O     O_R   0.591630 0.539900 0.448290 -0.564516
C2    C     C_R   0.620056 0.621118 0.500485 0.954785
Zn1   Zn    Zn3+2 0.499980 0.569070 0.569050 0.982337
Zn2   Zn    Zn3+2 0.500020 0.430930 0.430950 1.063692
O5    O     O_R   0.591610 0.551720 0.643330 -0.618537
O6    O     O_R   0.591640 0.448290 0.539910 -0.611254
O7    O     O_R   0.408370 0.460100 0.551710 -0.616285
O8    O     O_R   0.408400 0.356660 0.448290 -0.615137
C3    C     C_R   0.624625 0.504086 0.619877 0.962983
C4    C     C_R   0.378093 0.379878 0.497937 0.897187
H1    H     H_    0.788534 0.877471 0.896182 0.183109
C5    C     C_R   0.711377 0.846243 0.764958 -0.041801
H2    H     H_    0.664306 0.862095 0.776882 0.166917
C6    C     C_R   0.702539 0.817789 0.682474 -0.050471
H3    H     H_    0.649026 0.812785 0.631385 0.143722
C7    C     C_R   0.761998 0.794986 0.665670 0.117847
C8    C     C_R   0.834218 0.807402 0.734599 -0.064089
H4    H     H_    0.883312 0.794402 0.724268 0.164509
C9    C     C_R   0.843599 0.837104 0.817391 -0.133201
H5    H     H_    0.899348 0.846789 0.870223 0.148681
C10   C     C_R   0.781566 0.855282 0.832258 -0.037148
C11   C     C_R   0.819492 0.825941 0.574623 -0.204031
H6    H     H_    0.874656 0.885705 0.634152 0.177585
C12   C     C_R   0.811502 0.810815 0.494330 -0.061323
C13   C     C_R   0.736893 0.737045 0.415115 0.011484
C14   C     C_R   0.676662 0.674817 0.420568 -0.236568
H7    H     H_    0.621347 0.615013 0.361369 0.165447
C15   C     C_R   0.685004 0.689566 0.501022 -0.041728
C16   C     C_R   0.754522 0.768456 0.579011 0.034321
C17   C     C_R   0.632023 0.693223 0.263101 -0.106996
H8    H     H_    0.580803 0.683638 0.279104 0.204533
C18   C     C_R   0.611813 0.676242 0.178933 -0.080545
H9    H     H_    0.545485 0.653792 0.131043 0.177791
C19   C     C_R   0.677049 0.687869 0.156568 -0.103534
H10   H     H_    0.661478 0.674434 0.091338 0.165639
C20   C     C_R   0.762437 0.716879 0.218545 -0.113513
H11   H     H_    0.812963 0.725736 0.201139 0.155848
C21   C     C_R   0.782553 0.734333 0.302878 -0.103449
H12   H     H_    0.848647 0.757234 0.349978 0.115227
C22   C     C_R   0.717778 0.722500 0.326425 0.086539
C23   C     C_R   0.463682 0.789369 0.544663 -0.226305
H13   H     H_    0.464948 0.812686 0.606056 0.192868
C24   C     C_R   0.398249 0.704388 0.476276 -0.185208
H14   H     H_    0.349476 0.664556 0.485795 0.179857
C25   C     C_R   0.394831 0.670981 0.395944 -0.014591
C26   C     C_R   0.456149 0.725932 0.383190 0.276812
C27   C     C_R   0.521609 0.811505 0.452637 -0.275197
H15   H     H_    0.569153 0.853046 0.443205 0.220249
C28   C     C_R   0.526232 0.843810 0.533713 0.300022
C29   C     C_R   0.255548 0.579068 0.256235 -0.148181
H16   H     H_    0.258610 0.639569 0.261055 0.176737
C30   C     C_R   0.186637 0.498201 0.183729 -0.093611
C31   C     C_R   0.180296 0.418691 0.176305 0.019096
C32   C     C_R   0.245934 0.422262 0.242072 -0.196592
H17   H     H_    0.242436 0.361577 0.236975 0.197091
C33   C     C_R   0.315404 0.503299 0.314808 -0.073277
C34   C     C_R   0.320359 0.582857 0.322941 0.070973
C35   C     C_R   0.046469 0.275882 0.113469 -0.233185
H18   H     H_    0.055485 0.296640 0.178051 0.222354
C36   C     C_R   0.975482 0.193251 0.043241 0.259373
C37   C     C_R   0.963231 0.167136 0.958555 0.269777
C38   C     C_R   0.024614 0.222839 0.947427 -0.235499
H19   H     H_    0.015996 0.203853 0.883233 0.181974
C39   C     C_R   0.095480 0.304336 0.017985 -0.165517
H20   H     H_    0.141466 0.346544 0.007643 0.149200
C40   C     C_R   0.106320 0.331648 0.101274 0.070773
H21   H     H_    0.177873 0.568390 0.446848 0.194859
C41   C     C_R   0.228875 0.531018 0.539291 -0.118569
H22   H     H_    0.247251 0.590946 0.594440 0.183006
C42   C     C_R   0.244995 0.467494 0.552448 0.512073
C43   C     C_R   0.220783 0.388888 0.479552 -0.077645
C44   C     C_R   0.181037 0.376919 0.394569 0.467348
C45   C     C_R   0.165979 0.442110 0.384327 -0.119218
H23   H     H_    0.135279 0.433454 0.320047 0.164724
C46   C     C_R   0.189777 0.518537 0.455969 -0.315476
C47   C     C_R   0.174621 0.257176 0.496771 0.293675
C48   C     C_R   0.187641 0.188731 0.502737 -0.203130
C49   C     C_R   0.262825 0.184237 0.506690 -0.019306
C50   C     C_R   0.323910 0.247850 0.504065 -0.193006
H24   H     H_    0.382290 0.245538 0.507501 0.161867
C51   C     C_R   0.310586 0.314148 0.496511 -0.113573
C52   C     C_R   0.235848 0.319416 0.491644 -0.159294
C53   C     C_R   0.354030 0.131328 0.579524 -0.154495
H25   H     H_    0.398737 0.197733 0.634545 0.153447
C54   C     C_R   0.372851 0.064825 0.578646 -0.149347
H26   H     H_    0.431381 0.079776 0.632849 0.154885
C55   C     C_R   0.316687 0.979263 0.507339 0.010424
H27   H     H_    0.331822 0.928031 0.506406 0.180512
C56   C     C_R   0.241087 0.959886 0.437280 0.001570
H28   H     H_    0.197606 0.893663 0.382172 0.201404
C57   C     C_R   0.221955 0.026125 0.437906 -0.121008
H29   H     H_    0.164299 0.010751 0.382414 0.122295
C58   C     C_R   0.278381 0.112338 0.509083 0.138496
H30   H     H_    0.633283 0.518828 0.763583 0.209925
C59   C     C_R   0.779721 0.496591 0.606731 0.345417
C60   C     C_R   0.835961 0.467568 0.590874 -0.187248
H31   H     H_    0.848190 0.467107 0.538791 0.187082
C61   C     C_R   0.881774 0.445000 0.645380 -0.208279
H32   H     H_    0.925754 0.423489 0.633184 0.185324
C62   C     C_R   0.874845 0.454599 0.718311 -0.149843
H33   H     H_    0.913398 0.437980 0.759924 0.149098
C63   C     C_R   0.817156 0.481855 0.735164 0.023083
C64   C     C_R   0.762959 0.495360 0.674733 -0.015068
C65   C     C_R   0.695053 0.507134 0.685737 -0.157660
C66   C     C_R   0.686596 0.511806 0.757369 -0.289158
C67   C     C_R   0.744821 0.506968 0.821095 0.282182
C68   C     C_R   0.812115 0.495005 0.810977 -0.206238
O9    O     O_R   0.051730 0.908360 0.460070 -0.600441
O10   O     O_R   0.948280 0.908380 0.356650 -0.625590
C69   C     C_R   0.998729 0.878016 0.380379 0.818609
O11   O     O_R   0.960110 0.908350 0.551690 -0.612408
O12   O     O_R   0.856660 0.908370 0.448270 -0.613777
C70   C     C_R   0.879289 0.877714 0.497045 0.837708
Zn3   Zn    Zn3+2 0.069080 0.999960 0.569030 1.078868
Zn4   Zn    Zn3+2 0.930920 0.999990 0.430930 1.068059
O13   O     O_R   0.051720 0.091580 0.643310 -0.617407
O14   O     O_R   0.948270 0.091600 0.539890 -0.591241
O15   O     O_R   0.143340 0.091590 0.551680 -0.613102
O16   O     O_R   0.039890 0.091610 0.448270 -0.574254
C71   C     C_R   0.001308 0.121423 0.620231 0.911507
C72   C     C_R   0.120682 0.120765 0.500892 0.907745
O17   O     O_R   0.051710 0.460040 0.908380 -0.618101
O18   O     O_R   0.948270 0.356620 0.908410 -0.639255
C73   C     C_R   0.997424 0.379460 0.877831 0.839353
O19   O     O_R   0.143330 0.551680 0.091590 -0.591819
O20   O     O_R   0.039890 0.448260 0.091620 -0.622203
C74   C     C_R   0.120284 0.498819 0.118636 0.865903
Zn5   Zn    Zn3+2 0.069060 0.569020 0.999970 1.066092
Zn6   Zn    Zn3+2 0.930920 0.430910 0.000010 1.021524
O21   O     O_R   0.051700 0.643310 0.091570 -0.594962
O22   O     O_R   0.948260 0.539890 0.091600 -0.603245
O23   O     O_R   0.960080 0.551670 0.908360 -0.625595
O24   O     O_R   0.856640 0.448250 0.908390 -0.583500
C75   C     C_R   0.999611 0.620567 0.119364 0.925361
C76   C     C_R   0.879357 0.499583 0.880280 0.932218
H34   H     H_    0.932422 0.662971 0.549737 0.184901
C77   C     C_R   0.033589 0.739215 0.531654 0.406021
C78   C     C_R   0.051846 0.756384 0.470738 0.369664
C79   C     C_R   0.982787 0.714292 0.383850 -0.110147
C80   C     C_R   0.899746 0.647989 0.356919 -0.267670
H35   H     H_    0.847417 0.611890 0.289573 0.186622
C81   C     C_R   0.881955 0.630799 0.416940 -0.130119
H36   H     H_    0.816674 0.581808 0.395866 0.212822
C82   C     C_R   0.947791 0.677125 0.504109 -0.264902
C83   C     C_R   0.994872 0.673740 0.252255 -0.183205
H37   H     H_    0.989649 0.614256 0.252194 0.164549
C84   C     C_R   0.001210 0.687713 0.186292 -0.051585
C85   C     C_R   0.008822 0.764685 0.185375 0.083489
C86   C     C_R   0.007064 0.825748 0.250071 -0.267790
H38   H     H_    0.011102 0.884574 0.249224 0.168615
C87   C     C_R   0.000396 0.811762 0.315958 -0.107923
C88   C     C_R   0.995655 0.735758 0.318669 0.090878
C89   C     C_R   0.094385 0.826715 0.121717 0.267504
C90   C     C_R   0.094988 0.836008 0.050651 0.264624
C91   C     C_R   0.014589 0.800679 0.975585 -0.220046
H39   H     H_    0.013626 0.805834 0.920103 0.186856
C92   C     C_R   0.934859 0.757461 0.970761 -0.192459
H40   H     H_    0.873336 0.730715 0.912711 0.168103
C93   C     C_R   0.934098 0.748035 0.040312 -0.151164
H41   H     H_    0.871780 0.716009 0.036353 0.199287
C94   C     C_R   0.013023 0.780085 0.114858 -0.056455
H42   H     H_    0.399653 0.295586 0.833002 0.192122
C95   C     C_R   0.282230 0.229707 0.834394 -0.212229
H43   H     H_    0.305887 0.193203 0.859720 0.195658
C96   C     C_R   0.199256 0.218662 0.817850 0.517785
C97   C     C_R   0.168412 0.265949 0.783173 -0.062168
C98   C     C_R   0.223284 0.325338 0.769677 -0.291289
H44   H     H_    0.200683 0.362832 0.745081 0.199665
C99   C     C_R   0.307258 0.336803 0.788145 0.506028
C100  C     C_R   0.335446 0.287703 0.819198 -0.199568
C101  C     C_R   0.077394 0.320885 0.824298 -0.233879
H45   H     H_    0.137911 0.375631 0.883229 0.165564
C102  C     C_R   0.996243 0.312584 0.811290 -0.090637
C103  C     C_R   0.916689 0.241182 0.736130 -0.007639
C104  C     C_R   0.920673 0.180380 0.673143 -0.178170
H46   H     H_    0.860117 0.125666 0.614231 0.180438
C105  C     C_R   0.001764 0.187847 0.686784 -0.071384
C106  C     C_R   0.081028 0.257296 0.763833 0.022403
C107  C     C_R   0.790779 0.198707 0.763096 0.004596
H47   H     H_    0.825102 0.183498 0.809379 0.168856
C108  C     C_R   0.708024 0.187847 0.747174 -0.042031
H48   H     H_    0.679019 0.164785 0.781329 0.163829
C109  C     C_R   0.662631 0.206507 0.687014 -0.100813
H49   H     H_    0.598650 0.198229 0.674843 0.133137
C110  C     C_R   0.699508 0.235057 0.641958 -0.101773
H50   H     H_    0.664070 0.248843 0.594867 0.151845
C111  C     C_R   0.782098 0.245639 0.657524 -0.167320
H51   H     H_    0.809620 0.266735 0.621518 0.156836
C112  C     C_R   0.829229 0.229700 0.719808 0.067958
N1    N     N_R   0.594033 0.931412 0.604431 0.210085
O25   O     O_R   0.598178 0.961547 0.679473 -0.393683
O26   O     O_R   0.653262 0.981311 0.594997 -0.390145
N2    N     N_R   0.451206 0.697345 0.299953 0.189833
O27   O     O_R   0.423108 0.615261 0.248033 -0.425879
O28   O     O_R   0.478481 0.754373 0.277079 -0.377483
N3    N     N_R   0.919036 0.135813 0.059611 0.242332
O29   O     O_R   0.892681 0.052314 0.020680 -0.357527
O30   O     O_R   0.905141 0.168372 0.122966 -0.338722
N4    N     N_R   0.887318 0.087009 0.883282 0.216012
O31   O     O_R   0.810465 0.062400 0.876824 -0.345848
O32   O     O_R   0.891955 0.046205 0.815355 -0.398697
O33   O     O_3   0.284925 0.485613 0.637297 -0.754108
H52   H     H_    0.299772 0.440149 0.639321 0.346338
O34   O     O_3   0.154990 0.302967 0.319871 -0.775363
H53   H     H_    0.167265 0.260723 0.334157 0.356362
N5    N     N_R   0.100997 0.264900 0.498532 0.219540
O35   O     O_R   0.046782 0.267515 0.436018 -0.342679
O36   O     O_R   0.088300 0.269775 0.563073 -0.417203
N6    N     N_R   0.753847 0.541094 0.564145 0.191525
O37   O     O_R   0.737817 0.515285 0.484646 -0.416583
O38   O     O_R   0.770241 0.619670 0.611860 -0.485542
N7    N     N_R   0.732442 0.511716 0.893482 0.208717
O39   O     O_R   0.799086 0.553055 0.971999 -0.432624
O40   O     O_R   0.653536 0.481484 0.882366 -0.377778
O41   O     O_3   0.100901 0.781579 0.616647 -0.700296
H54   H     H_    0.077153 0.762053 0.650421 0.340440
N8    N     N_R   0.140809 0.812177 0.495796 0.214908
O42   O     O_R   0.172256 0.786107 0.446780 -0.450567
O43   O     O_R   0.193514 0.883710 0.571762 -0.334227
N9    N     N_R   0.175327 0.867102 0.201301 0.216690
O44   O     O_R   0.229797 0.951140 0.242165 -0.351248
O45   O     O_R   0.194883 0.820327 0.233296 -0.381319
N10   N     N_R   0.176023 0.878234 0.052502 0.228294
O46   O     O_R   0.243808 0.873037 0.094187 -0.296380
O47   O     O_R   0.179342 0.913488 0.004345 -0.354215
O48   O     O_3   0.151171 0.160926 0.835822 -0.733638
H55   H     H_    0.093137 0.156665 0.819256 0.340629
O49   O     O_3   0.363432 0.395915 0.777442 -0.741240
H56   H     H_    0.337342 0.430807 0.763040 0.345470

loop_
_geom_bond_atom_site_label_1
_geom_bond_atom_site_label_2
_geom_bond_distance
_ccdc_geom_bond_type
O22   C75   1.281213 A    
C38   C39   1.396334 A    
N4    O31   1.301272 A    
C59   C60   1.401956 A    
Zn6   O24   2.024385 S    
C89   C90   1.418170 A    
C96   C97   1.423212 A    
N1    O26   1.301660 A    
C57   H29   1.082655 S    
C43   C44   1.424799 A    
N9    O44   1.301148 A    
H34   C82   1.083093 S    
C62   C63   1.416134 A    
C103  C104  1.383363 A    
C108  H48   1.082250 S    
C68   C76   1.430676 S    
C101  C102  1.395349 A    
N6    O37   1.301642 A    
C96   O48   1.381609 S    
Zn1   O7    2.015284 S    
N4    O32   1.301644 A    
C11   H6    1.086311 S    
N8    O42   1.300824 A    
C44   O34   1.382265 S    
O4    C2    1.288477 A    
C12   C13   1.416582 A    
C19   C20   1.394891 A    
C83   C88   1.382244 A    
N7    O40   1.301792 A    
C6    H3    1.080478 S    
C41   C46   1.391626 A    
O2    C1    1.282790 A    
C12   C70   1.428717 S    
C83   C84   1.395020 A    
C91   H39   1.082420 S    
C51   C52   1.405439 A    
C14   H7    1.085042 S    
O7    C4    1.273362 A    
C108  C109  1.397994 A    
C97   C98   1.404221 A    
C32   C33   1.397609 A    
C79   C80   1.403912 A    
C105  C106  1.410668 A    
C79   C88   1.489615 S    
C65   C66   1.395008 A    
C35   C40   1.400895 A    
C110  C111  1.398423 A    
C17   H8    1.076142 S    
Zn3   O15   2.024780 S    
N2    O28   1.301625 A    
N10   O46   1.301510 A    
O5    C3    1.284393 A    
C67   C68   1.408512 A    
O49   H56   0.990231 S    
O14   C71   1.283252 A    
C35   C36   1.405114 A    
C43   C52   1.491914 S    
C77   C82   1.408770 A    
C39   H20   1.082733 S    
C77   C78   1.413260 A    
C93   H41   1.081442 S    
N3    O29   1.300898 A    
O11   C70   1.283565 A    
O41   H54   0.991844 S    
C89   N9    1.435047 S    
C47   C52   1.396069 A    
C84   C85   1.408043 A    
C91   C92   1.393877 A    
C31   C40   1.481543 S    
C54   C55   1.396836 A    
C78   N8    1.435786 S    
C30   C31   1.407487 A    
Zn5   O23   2.013335 S    
C41   H22   1.082865 S    
O19   Zn5   2.024303 S    
C48   C72   1.440755 S    
C1    C33   1.435958 S    
C20   C21   1.399032 A    
N1    O25   1.301579 A    
C23   C28   1.403364 A    
C24   C25   1.403178 A    
C56   C57   1.397019 A    
H30   C66   1.084674 S    
C99   C100  1.395696 A    
C8    H4    1.083120 S    
C97   C106  1.484566 S    
C28   N1    1.440609 S    
C95   C96   1.399167 A    
C61   H32   1.082697 S    
C21   C22   1.401845 A    
C3    C65   1.443450 S    
H21   C46   1.082606 S    
C62   H33   1.081027 S    
C92   C93   1.391622 A    
C26   N2    1.440049 S    
C48   C49   1.412138 A    
C81   C82   1.392678 A    
C63   C68   1.412979 A    
C23   C24   1.395314 A    
C8    C9    1.397911 A    
C85   C94   1.480595 S    
C103  C112  1.480045 S    
C29   C30   1.392433 A    
H42   C100  1.082869 S    
C25   C34   1.483800 S    
C42   C43   1.425018 A    
C81   H36   1.082296 S    
C111  H51   1.082519 S    
C24   H14   1.083082 S    
C17   C22   1.406886 A    
C44   C45   1.399499 A    
C80   C81   1.393063 A    
O34   H53   0.987712 S    
C55   H27   1.082283 S    
O33   H52   0.986925 S    
C5    H2    1.082338 S    
C71   C105  1.432446 S    
C59   N6    1.428378 S    
O3    Zn1   2.022736 S    
C32   H17   1.085057 S    
C45   H23   1.081840 S    
C49   C50   1.380504 A    
C27   H15   1.082527 S    
C33   C34   1.412595 A    
O1    C1    1.275105 A    
O23   C76   1.281337 A    
C53   H25   1.083349 S    
C67   N7    1.444028 S    
C107  H47   1.082625 S    
C111  C112  1.402978 A    
C13   C14   1.389356 A    
C99   O49   1.377746 S    
C55   C56   1.398106 A    
O24   C76   1.273125 A    
C11   C16   1.380518 A    
C50   H24   1.085906 S    
C37   N4    1.437962 S    
O17   Zn5   2.012008 S    
Zn2   O8    2.022736 S    
O11   Zn3   2.013611 S    
C7    C8    1.405365 A    
C35   H18   1.081229 S    
C60   C61   1.384386 A    
C26   C27   1.406322 A    
C45   C46   1.391299 A    
C110  H50   1.082435 S    
C56   H28   1.080622 S    
O10   Zn4   2.013534 S    
N7    O39   1.299943 A    
C61   C62   1.386929 A    
C98   H44   1.083632 S    
Zn4   O14   2.018209 S    
C102  C103  1.409135 A    
C101  C106  1.381667 A    
O9    C69   1.271425 A    
C7    C16   1.484394 S    
C41   C42   1.398579 A    
C20   H11   1.081669 S    
C50   C51   1.387456 A    
O8    C4    1.278832 A    
C25   C26   1.417025 A    
N5    O36   1.300971 A    
C36   N3    1.437013 S    
C13   C22   1.497513 S    
C90   C91   1.405596 A    
C49   C58   1.479972 S    
O3    C2    1.270668 A    
C86   C87   1.395722 A    
C21   H12   1.072254 S    
C64   C65   1.424911 A    
C89   C94   1.414919 A    
O18   C73   1.276560 A    
C69   C87   1.430703 S    
C95   H43   1.082861 S    
C47   N5    1.438728 S    
O10   C69   1.286241 A    
C42   O33   1.380716 S    
C95   C100  1.394634 A    
C5    C10   1.396496 A    
Zn1   O5    2.016481 S    
C29   H16   1.085706 S    
C18   H9    1.082416 S    
C2    C15   1.439517 S    
O17   C73   1.280549 A    
N10   O47   1.301605 A    
O1    Zn1   2.021021 S    
Zn2   O6    2.021021 S    
O2    Zn2   2.016482 S    
O18   Zn6   2.019652 S    
C4    C51   1.427050 S    
C47   C48   1.414536 A    
O6    C3    1.277260 A    
N9    O45   1.300788 A    
O21   C75   1.276624 A    
O4    Zn2   2.015284 S    
C57   C58   1.403261 A    
C29   C34   1.384302 A    
Zn4   O16   2.013697 S    
C75   C84   1.432015 S    
C98   C99   1.408232 A    
C59   C64   1.430003 A    
C11   C12   1.392964 A    
O12   Zn4   2.024526 S    
C80   H35   1.083434 S    
C15   C16   1.415011 A    
O15   C72   1.280478 A    
C107  C108  1.398545 A    
O20   C74   1.274990 A    
C54   H26   1.082432 S    
N6    O38   1.297971 A    
O48   H55   0.987548 S    
N8    O43   1.301291 A    
C101  H45   1.085388 S    
C92   H40   1.082536 S    
C83   H37   1.085457 S    
C77   O41   1.380692 S    
C14   C15   1.395309 A    
C31   C32   1.384603 A    
C19   H10   1.082381 S    
Zn5   O21   2.019779 S    
C36   C37   1.416875 A    
C18   C19   1.395137 A    
C60   H31   1.082953 S    
C107  C112  1.404254 A    
C17   C18   1.397849 A    
O12   C70   1.272945 A    
C38   H19   1.079747 S    
C6    C7    1.404953 A    
N5    O35   1.301008 A    
N2    O27   1.301550 A    
Zn3   O13   2.013662 S    
C109  C110  1.397712 A    
C30   C74   1.429547 S    
O16   C72   1.279848 A    
C9    H5    1.080059 S    
C104  H46   1.085389 S    
O20   Zn6   2.013210 S    
C23   H13   1.082325 S    
O19   C74   1.281409 A    
C109  H49   1.082448 S    
C9    C10   1.396704 A    
C85   C86   1.380456 A    
H1    C10   1.081758 S    
C5    C6    1.397060 A    
C37   C38   1.404048 A    
C63   C64   1.408164 A    
C87   C88   1.416613 A    
Zn6   O22   2.012093 S    
C53   C54   1.397637 A    
O9    Zn3   2.018125 S    
C78   C79   1.415989 A    
C93   C94   1.399984 A    
C104  C105  1.396475 A    
C73   C102  1.429338 S    
C27   C28   1.404832 A    
C86   H38   1.085356 S    
C66   C67   1.378828 A    
C39   C40   1.398857 A    
C90   N10   1.439527 S    
N3    O30   1.301457 A    
O13   C71   1.274836 A    
C53   C58   1.405345 A    
