data_mof_unit_25943.cif
_audit_creation_date              2012-12-10T17:11:27-0500
_audit_creation_method            fapswitch 2.2
_symmetry_space_group_name_H-M    P1
_symmetry_Int_Tables_number       1
_space_group_crystal_system       triclinic
_cell_length_a                    14.996305
_cell_length_b                    12.999359
_cell_length_c                    11.723338
_cell_angle_alpha                 99.906179
_cell_angle_beta                  94.106657
_cell_angle_gamma                 90.848915
_cell_volume                      2244.66511833

loop_
_atom_site_label
_atom_site_type_symbol
_atom_type_description
_atom_site_fract_x
_atom_site_fract_y
_atom_site_fract_z
_atom_type_partial_charge
C1    C     C_R   0.500565 0.299758 0.478741 0.789229
C2    C     C_R   0.500250 0.700338 0.521121 0.793691
C3    C     C_R   0.037474 0.329531 0.374585 -0.217481
C4    C     C_R   0.962481 0.670536 0.625609 -0.216270
C5    C     C_R   0.504609 0.813144 0.531809 -0.063434
C6    C     C_R   0.495896 0.187134 0.467330 -0.057816
C7    C     C_R   0.405950 0.030832 0.399475 -0.231051
C8    C     C_R   0.592939 0.970247 0.601512 -0.232824
C9    C     C_R   0.422129 0.135890 0.401867 -0.244737
C10   C     C_R   0.575876 0.865716 0.601352 -0.247621
C11   C     C_R   0.558132 0.132470 0.528821 0.029281
C12   C     C_R   0.445079 0.866313 0.464650 0.019110
C13   C     C_R   0.538766 0.025793 0.531712 0.129270
C14   C     C_R   0.462538 0.973879 0.464776 0.127301
C15   C     C_R   0.426556 0.391072 0.018851 -0.365919
C16   C     C_R   0.572949 0.609300 0.981262 -0.370421
C17   C     C_R   0.430080 0.403480 0.141404 0.475899
C18   C     C_R   0.569385 0.597013 0.858721 0.479380
C19   C     C_R   0.530638 0.548496 0.158024 -0.028297
C20   C     C_R   0.469554 0.451277 0.841955 -0.023085
C21   C     C_R   0.526045 0.540045 0.035223 0.029604
C22   C     C_R   0.473774 0.460041 0.964819 0.027106
C23   C     C_R   0.328888 0.500036 0.500195 0.803635
C24   C     C_R   0.671112 0.500077 0.499767 0.805269
C25   C     C_R   0.818041 0.585330 0.561219 -0.258867
C26   C     C_R   0.181956 0.414635 0.439215 -0.257630
C27   C     C_R   0.767506 0.500317 0.498749 -0.054877
C28   C     C_R   0.232476 0.500003 0.500977 -0.054304
C29   C     C_R   0.808739 0.416318 0.433925 -0.258029
C30   C     C_R   0.191198 0.584631 0.564644 -0.256345
C31   C     C_R   0.901804 0.415081 0.434745 0.115917
C32   C     C_R   0.098141 0.585503 0.564469 0.116496
C33   C     C_R   0.953202 0.500297 0.499298 0.057769
C34   C     C_R   0.046761 0.500036 0.500374 0.058368
C35   C     C_R   0.911033 0.585959 0.562458 0.113562
C36   C     C_R   0.088940 0.414168 0.437619 0.115064
C37   C     C_R   0.944353 0.330103 0.372927 -0.215811
C38   C     C_R   0.055575 0.670284 0.626657 -0.214583
Cu1   Cu    Cu3+1 0.506660 0.507730 0.615930 0.951960
Cu2   Cu    Cu3+1 0.493340 0.492270 0.384070 0.949298
H1    H     H_    0.784632 0.651663 0.606354 0.138011
H2    H     H_    0.215397 0.347987 0.394783 0.137521
H3    H     H_    0.386776 0.327686 0.966191 0.143782
H4    H     H_    0.612446 0.672905 0.033982 0.141845
H5    H     H_    0.768342 0.351398 0.385017 0.139211
H6    H     H_    0.231577 0.649950 0.612790 0.131324
H7    H     H_    0.905622 0.264088 0.323619 0.143726
H8    H     H_    0.094270 0.736305 0.676003 0.142371
H9    H     H_    0.069253 0.263192 0.326264 0.139661
H10   H     H_    0.930706 0.736672 0.674322 0.140234
H11   H     H_    0.621522 0.824266 0.652003 0.159000
H12   H     H_    0.374587 0.178539 0.355188 0.157201
H13   H     H_    0.347019 0.996702 0.347921 0.146989
H14   H     H_    0.650139 0.005600 0.656078 0.154096
H15   H     H_    0.428100 0.390373 0.787843 0.140029
H16   H     H_    0.572407 0.609108 0.212102 0.132480
N1    N     N_R   0.516670 0.519360 0.790130 -0.195583
N2    N     N_R   0.483330 0.480640 0.209870 -0.193156
O1    O     O_R   0.504720 0.354460 0.582000 -0.597513
O2    O     O_R   0.495280 0.645540 0.418000 -0.589829
O3    O     O_R   0.493480 0.341410 0.386200 -0.565150
O4    O     O_R   0.506520 0.658590 0.613800 -0.567696
O5    O     O_R   0.375880 0.506510 0.597910 -0.583339
O6    O     O_R   0.624120 0.493490 0.402090 -0.584110
O7    O     O_R   0.364640 0.493450 0.402110 -0.563531
O8    O     O_R   0.635360 0.506550 0.597890 -0.562002
C39   C     C_3   0.363435 0.808152 0.395974 -0.402352
C40   C     C_3   0.378798 0.777606 0.266225 -0.311163
C41   C     C_3   0.307531 0.698864 0.203276 -0.825222
H17   H     H_    0.309938 0.625778 0.240368 0.270617
H18   H     H_    0.240012 0.732165 0.211085 0.245710
H19   H     H_    0.319958 0.679413 0.109859 0.238292
H20   H     H_    0.377611 0.847646 0.223877 0.200464
H21   H     H_    0.445418 0.742779 0.255444 0.234925
H22   H     H_    0.346608 0.736989 0.431474 0.195648
H23   H     H_    0.302694 0.855421 0.407770 0.176053
C42   C     C_3   0.645605 0.186251 0.586291 -0.414980
C43   C     C_3   0.725909 0.146781 0.518464 -0.372608
C44   C     C_3   0.813890 0.191408 0.582792 -0.841681
H24   H     H_    0.813659 0.278095 0.600309 0.264785
H25   H     H_    0.824249 0.162604 0.666501 0.250227
H26   H     H_    0.870300 0.166177 0.529090 0.244947
H27   H     H_    0.728045 0.060238 0.504217 0.227967
H28   H     H_    0.719535 0.171044 0.431881 0.212801
H29   H     H_    0.645904 0.271903 0.590626 0.212694
H30   H     H_    0.654737 0.175538 0.678273 0.195558
N3    N     N_2   0.617967 0.669128 0.807240 -0.382377
H31   H     H_    0.594463 0.743754 0.827164 0.228611
C45   C     C_3   0.714124 0.667622 0.829354 -0.721843
H32   H     H_    0.745931 0.726232 0.785603 0.207634
H33   H     H_    0.739131 0.589019 0.795754 0.255468
H34   H     H_    0.734057 0.688738 0.923658 0.209980
N4    N     N_2   0.380744 0.332131 0.193066 -0.381993
H35   H     H_    0.403632 0.257176 0.173612 0.230137
C46   C     C_3   0.284663 0.334779 0.170727 -0.723895
H36   H     H_    0.252185 0.276396 0.214129 0.208887
H37   H     H_    0.264799 0.314068 0.076375 0.210987
H38   H     H_    0.260271 0.413652 0.204490 0.252343

loop_
_geom_bond_atom_site_label_1
_geom_bond_atom_site_label_2
_ccdc_geom_bond_type
C19   H16   S    
N3    H31   S    
N4    H35   S    
Cu2   O2    S    
C27   C29   A    
C46   H36   S    
C24   C27   S    
C6    C9    A    
C3    H9    S    
C46   H38   S    
C42   C43   S    
C16   C21   A    
C19   C21   A    
C1    O1    A    
C2    O2    A    
C40   H21   S    
Cu1   N1    S    
C7    C9    A    
C41   H18   S    
C11   C42   S    
C43   H27   S    
C15   C22   A    
C40   C41   S    
C31   C33   A    
C32   C38   A    
C37   H7    S    
C16   H4    S    
C38   H8    S    
C24   O8    A    
C17   N2    A    
C23   O5    A    
C4    C35   A    
C42   H29   S    
C24   O6    A    
C13   C14   A    
C9    H12   S    
C20   H15   S    
C10   H11   S    
C7    C14   A    
C19   N2    A    
C12   C39   S    
Cu2   N2    S    
C39   C40   S    
C5    C12   A    
C8    H14   S    
C6    C11   A    
C44   H25   S    
C43   C44   S    
C40   H20   S    
Cu2   O3    S    
C1    C6    S    
C29   H5    S    
C32   C34   A    
C41   H19   S    
C43   H28   S    
C18   N1    A    
Cu1   O1    S    
C33   C34   A    
C39   H22   S    
C23   C28   S    
C45   H34   S    
C25   C35   A    
C8    C10   A    
C20   C22   A    
C42   H30   S    
Cu2   O7    S    
N3    C45   S    
Cu1   O8    S    
C2    C5    S    
C45   H33   S    
C7    H13   S    
C25   H1    S    
Cu1   Cu2   S    
C26   H2    S    
C26   C36   A    
C15   C17   A    
Cu1   O4    S    
C30   H6    S    
C12   C14   A    
C1    O3    A    
C44   H26   S    
C46   H37   S    
C25   C27   A    
Cu1   O5    S    
C26   C28   A    
C18   N3    S    
Cu2   O6    S    
C23   O7    A    
C28   C30   A    
C45   H32   S    
C15   H3    S    
C5    C10   A    
C29   C31   A    
C30   C32   A    
C11   C13   A    
N4    C46   S    
C3    C36   A    
C33   C35   A    
C34   C36   A    
C41   H17   S    
C44   H24   S    
C8    C13   A    
C31   C37   A    
C17   N4    S    
C3    C37   A    
C16   C18   A    
C4    H10   S    
C4    C38   A    
C39   H23   S    
C20   N1    A    
C21   C22   A    
C2    O4    A    
