data_mof_unit_9677.cif
_audit_creation_date              2012-12-10T20:41:44-0500
_audit_creation_method            fapswitch 2.2
_symmetry_space_group_name_H-M    P1
_symmetry_Int_Tables_number       1
_space_group_crystal_system       triclinic
_cell_length_a                    15.006578
_cell_length_b                    15.162643
_cell_length_c                    9.875429
_cell_angle_alpha                 89.466295
_cell_angle_beta                  89.655751
_cell_angle_gamma                 90.014146
_cell_volume                      2246.91089544

loop_
_atom_site_label
_atom_site_type_symbol
_atom_type_description
_atom_site_fract_x
_atom_site_fract_y
_atom_site_fract_z
_atom_type_partial_charge
C1    C     C_R   0.383516 0.876427 0.500296 0.886423
C2    C     C_R   0.380399 0.120178 0.499746 0.929754
C3    C     C_R   0.884454 0.375349 0.500267 0.886718
C4    C     C_R   0.883512 0.623490 0.499596 0.910025
C5    C     C_3   0.183104 0.116160 0.623537 -0.487191
C6    C     C_3   0.254479 0.813256 0.738734 -0.473054
C7    C     C_3   0.745456 0.673559 0.729004 -0.506133
C8    C     C_3   0.766527 0.298518 0.746309 -0.470572
C9    C     C_R   0.433075 0.039979 0.071365 0.219733
C10   C     C_R   0.927238 0.528586 0.072044 0.238710
C11   C     C_R   0.572044 0.971499 0.072339 -0.274227
C12   C     C_R   0.075337 0.481869 0.072129 -0.266752
C13   C     C_R   0.574002 0.974430 0.926994 0.556199
C14   C     C_R   0.075743 0.480583 0.926957 0.555710
C15   C     C_R   0.433280 0.040500 0.929361 0.113033
C16   C     C_R   0.926949 0.528282 0.929566 0.103179
C17   C     C_3   0.336082 0.021792 0.924874 -0.508742
C18   C     C_3   0.836941 0.486802 0.930168 -0.531510
C19   C     C_3   0.336258 0.019196 0.078786 -0.473281
C20   C     C_3   0.836406 0.490684 0.083014 -0.466526
C21   C     C_R   0.623192 0.116827 0.499213 0.924867
C22   C     C_R   0.622348 0.882461 0.500083 0.890292
C23   C     C_R   0.122619 0.617423 0.499530 0.912471
C24   C     C_R   0.120252 0.380709 0.500154 0.893632
C25   C     C_R   0.250636 0.187249 0.597686 0.054910
C26   C     C_R   0.296624 0.765848 0.622780 0.064284
C27   C     C_R   0.790948 0.727045 0.621262 0.062935
C28   C     C_R   0.803989 0.257532 0.621447 0.055602
C29   C     C_R   0.317654 0.189504 0.499922 -0.216179
C30   C     C_R   0.331625 0.797385 0.500752 -0.238902
C31   C     C_R   0.829780 0.701156 0.499578 -0.230672
C32   C     C_R   0.834776 0.294182 0.499820 -0.235574
C33   C     C_R   0.325450 0.260230 0.407144 0.518905
C34   C     C_R   0.316325 0.749489 0.380466 0.509284
C35   C     C_R   0.816539 0.751994 0.380449 0.528772
C36   C     C_R   0.816697 0.249094 0.377652 0.512692
C37   C     C_R   0.750655 0.817560 0.383788 -0.363110
C38   C     C_R   0.748146 0.187245 0.377363 -0.306107
C39   C     C_R   0.260644 0.326269 0.410899 -0.344985
C40   C     C_R   0.248506 0.687063 0.380579 -0.312407
C41   C     C_R   0.699048 0.827978 0.501203 -0.181886
C42   C     C_R   0.702656 0.168067 0.498382 -0.183738
C43   C     C_R   0.189383 0.318190 0.501826 -0.152200
C44   C     C_R   0.200495 0.670694 0.500194 -0.187919
C45   C     C_R   0.725837 0.789380 0.621924 0.191587
C46   C     C_R   0.738025 0.195575 0.620183 0.135821
C47   C     C_R   0.186982 0.251665 0.598926 0.126041
C48   C     C_R   0.231720 0.702954 0.622362 0.159577
C49   C     C_3   0.672487 0.742318 0.728385 -0.441541
C50   C     C_3   0.692561 0.231090 0.742542 -0.436342
C51   C     C_3   0.113203 0.188009 0.627410 -0.478755
C52   C     C_3   0.182289 0.743459 0.737824 -0.432630
H1    H     H_    0.297074 0.073430 0.125038 0.190492
H2    H     H_    0.322917 0.952471 0.122034 0.242939
H3    H     H_    0.787599 0.538726 0.124176 0.194582
H4    H     H_    0.835231 0.424640 0.132307 0.264691
H5    H     H_    0.736867 0.857258 0.294795 0.170781
H6    H     H_    0.727360 0.159325 0.281994 0.187714
H7    H     H_    0.264627 0.382573 0.342817 0.161614
H8    H     H_    0.230371 0.656143 0.286154 0.192138
H9    H     H_    0.668519 0.779275 0.824753 0.237907
H10   H     H_    0.693767 0.184071 0.829340 0.199966
H11   H     H_    0.083571 0.197578 0.729676 0.198595
H12   H     H_    0.182412 0.700422 0.829606 0.218976
H13   H     H_    0.607761 0.717296 0.690069 0.186884
H14   H     H_    0.626246 0.260288 0.719859 0.201449
H15   H     H_    0.064285 0.184094 0.543496 0.183958
H16   H     H_    0.115875 0.769568 0.708143 0.194173
H17   H     H_    0.191601 0.082510 0.722701 0.197775
H18   H     H_    0.296330 0.809711 0.831086 0.213734
H19   H     H_    0.784214 0.673349 0.824509 0.203491
H20   H     H_    0.811026 0.286692 0.834059 0.203978
H21   H     H_    0.175691 0.070959 0.536214 0.195356
H22   H     H_    0.229900 0.880066 0.710200 0.196052
H23   H     H_    0.723023 0.608030 0.692660 0.199606
H24   H     H_    0.742733 0.367189 0.729392 0.205303
H25   H     H_    0.627996 0.945651 0.128354 0.158419
H26   H     H_    0.135450 0.468310 0.128258 0.159519
H27   H     H_    0.298636 0.078978 0.883703 0.199589
H28   H     H_    0.321009 0.957521 0.878325 0.215247
H29   H     H_    0.784447 0.527657 0.883108 0.203372
H30   H     H_    0.841280 0.419033 0.893249 0.220377
N1    N     N_R   0.499140 1.000000 0.142800 -0.116292
N2    N     N_R   0.999140 0.500000 0.142800 -0.118864
N3    N     N_R   0.499160 1.000000 0.857150 -0.145205
N4    N     N_R   0.999160 0.500000 0.857150 -0.147498
O1    O     O_R   0.408400 0.908380 0.614690 -0.626331
O2    O     O_R   0.408400 0.091620 0.614690 -0.626087
O3    O     O_R   0.908400 0.408380 0.614690 -0.626789
O4    O     O_R   0.908400 0.591620 0.614690 -0.622165
O5    O     O_R   0.408370 0.908370 0.385350 -0.569048
O6    O     O_R   0.408370 0.091630 0.385350 -0.584359
O7    O     O_R   0.908370 0.408370 0.385350 -0.574646
O8    O     O_R   0.908370 0.591630 0.385350 -0.565540
O9    O     O_R   0.591610 0.091610 0.614650 -0.605310
O10   O     O_R   0.591610 0.908390 0.614650 -0.555998
O11   O     O_R   0.091610 0.591610 0.614650 -0.593671
O12   O     O_R   0.091610 0.408390 0.614650 -0.567530
O13   O     O_R   0.591590 0.091600 0.385310 -0.615120
O14   O     O_R   0.591590 0.908400 0.385310 -0.644194
O15   O     O_R   0.091590 0.591600 0.385310 -0.617777
O16   O     O_R   0.091590 0.408400 0.385310 -0.642939
Zn1   Zn    Zn3+2 0.500010 1.000000 0.653130 0.979445
Zn2   Zn    Zn3+2 0.000010 0.500000 0.653130 0.979588
Zn3   Zn    Zn3+2 0.499980 1.000000 0.346870 0.970325
Zn4   Zn    Zn3+2 0.999980 0.500000 0.346870 0.974677
O17   O     O_3   0.398945 0.265368 0.321069 -0.590908
C53   C     C_3   0.372061 0.278919 0.185635 -0.297449
H31   H     H_    0.312213 0.239277 0.159010 0.138763
H32   H     H_    0.427034 0.257706 0.117761 0.190641
H33   H     H_    0.360090 0.350079 0.165403 0.152713
O18   O     O_3   0.357577 0.770934 0.259096 -0.592275
C54   C     C_3   0.437390 0.722307 0.250124 -0.281962
H34   H     H_    0.483484 0.738246 0.334439 0.153048
H35   H     H_    0.471653 0.740394 0.153942 0.187600
H36   H     H_    0.423808 0.650137 0.248177 0.148208
O19   O     O_3   0.870539 0.738158 0.267283 -0.579494
C55   C     C_3   0.821690 0.741061 0.145523 -0.311429
H37   H     H_    0.756175 0.706868 0.154751 0.144212
H38   H     H_    0.860632 0.706843 0.066071 0.186447
H39   H     H_    0.813081 0.810210 0.110524 0.154835
O20   O     O_3   0.855710 0.272759 0.255629 -0.605606
C56   C     C_3   0.936314 0.225853 0.242448 -0.306904
H40   H     H_    0.983648 0.242307 0.324860 0.157751
H41   H     H_    0.968326 0.245193 0.145051 0.183674
H42   H     H_    0.924234 0.153427 0.240087 0.150287
O21   O     O_3   0.647869 0.947214 0.853507 -0.583706
C57   C     C_3   0.728051 0.979358 0.908470 -0.369179
H43   H     H_    0.721891 0.048060 0.946256 0.150258
H44   H     H_    0.779606 0.979848 0.827486 0.202995
H45   H     H_    0.751788 0.934708 0.990166 0.150029
O22   O     O_3   0.153472 0.466190 0.853902 -0.570653
C58   C     C_3   0.196328 0.388330 0.898375 -0.323037
H46   H     H_    0.244390 0.367790 0.818970 0.199780
H47   H     H_    0.148659 0.332744 0.914280 0.144452
H48   H     H_    0.235431 0.400499 0.991413 0.139340

loop_
_geom_bond_atom_site_label_1
_geom_bond_atom_site_label_2
_ccdc_geom_bond_type
C1    O1    A    
C40   H8    S    
C34   O18   S    
O5    Zn3   S    
C33   O17   S    
C17   H27   S    
C20   H4    S    
N4    Zn2   S    
C57   H43   S    
C56   H40   S    
C14   O22   S    
C28   C46   A    
O14   Zn3   S    
C33   C39   A    
C49   H13   S    
C2    C29   S    
C24   O12   A    
C32   C36   A    
C35   C37   A    
C38   C42   A    
C7    H19   S    
C21   O13   A    
C56   H41   S    
C22   C41   S    
C29   C33   A    
C8    H24   S    
C18   H29   S    
C7    C27   S    
C53   H31   S    
C12   N2    A    
C6    H18   S    
C42   C46   A    
C55   H37   S    
C5    H17   S    
C11   H25   S    
C18   H30   S    
C38   H6    S    
C9    C19   S    
C10   C20   S    
O22   C58   S    
C12   H26   S    
C58   H48   S    
N2    Zn4   S    
O17   C53   S    
C2    O2    A    
C25   C47   A    
C40   C44   A    
C18   C20   S    
N3    Zn1   S    
C26   C48   A    
C15   N3    A    
C54   H36   S    
C27   C45   A    
C1    O5    A    
C16   N4    A    
C20   H3    S    
O18   C54   S    
O9    Zn1   S    
C6    H22   S    
C4    O4    A    
C25   C29   A    
O13   Zn3   S    
C8    H20   S    
C22   O14   A    
C30   C34   A    
C27   C31   A    
O11   Zn2   S    
C28   C32   A    
C51   H11   S    
C14   N4    A    
C52   H12   S    
C56   H42   S    
C47   C51   S    
C21   O9    A    
C11   N1    A    
C17   H28   S    
C23   C44   S    
N1    Zn3   S    
C57   H44   S    
C55   H39   S    
C36   O20   S    
O7    Zn4   S    
C45   C49   S    
C39   H7    S    
C6    C26   S    
C3    O7    A    
C51   H15   S    
C2    O6    A    
C50   H14   S    
C7    C49   S    
C9    N1    A    
O1    Zn1   S    
C19   H2    S    
C23   O11   A    
C12   C14   A    
C26   C30   A    
O3    Zn2   S    
C58   H46   S    
C50   H10   S    
C34   C40   A    
C35   O19   S    
O21   C57   S    
C57   H45   S    
C8    C50   S    
O2    Zn1   S    
C54   H34   S    
O15   Zn4   S    
C15   C17   S    
O8    Zn4   S    
C22   O10   A    
C5    H21   S    
C52   H16   S    
C5    C25   S    
C7    H23   S    
C46   C50   S    
C53   H33   S    
C3    O3    A    
C36   C38   A    
C9    C15   A    
C10   C16   A    
O19   C55   S    
C11   C13   A    
C49   H9    S    
C19   H1    S    
C23   O15   A    
O12   Zn2   S    
C31   C35   A    
C10   N2    A    
C1    C30   S    
C17   C19   S    
C53   H32   S    
O16   Zn4   S    
C24   O16   A    
C37   C41   A    
C3    C32   S    
C55   H38   S    
C4    C31   S    
C21   C42   S    
C13   O21   S    
O6    Zn3   S    
C48   C52   S    
C39   C43   A    
C8    C28   S    
C16   C18   S    
O10   Zn1   S    
C13   N3    A    
C58   H47   S    
C24   C43   S    
C41   C45   A    
C5    C51   S    
O4    Zn2   S    
C6    C52   S    
O20   C56   S    
C43   C47   A    
C37   H5    S    
C4    O8    A    
C44   C48   A    
C54   H35   S    
