data_mof_unit_39037.cif
_audit_creation_date              2012-10-26T21:05:39-0400
_audit_creation_method            fapswitch 2.2
_symmetry_space_group_name_H-M    P1
_symmetry_Int_Tables_number       1
_space_group_crystal_system       triclinic
_cell_length_a                    13.029788
_cell_length_b                    9.086655
_cell_length_c                    7.790059
_cell_angle_alpha                 90.000014
_cell_angle_beta                  96.268865
_cell_angle_gamma                 89.9999
_cell_volume                      916.806007166

loop_
_atom_site_label
_atom_site_type_symbol
_atom_type_description
_atom_site_fract_x
_atom_site_fract_y
_atom_site_fract_z
_atom_type_partial_charge
C1    C     C_R   0.500000 0.220066 0.500000 0.530480
C2    C     C_R   0.870108 0.476906 0.717027 0.263981
C3    C     C_R   0.135558 0.499294 0.595510 -0.184244
C4    C     C_R   0.864442 0.499293 0.404490 -0.184245
C5    C     C_R   0.028475 0.495028 0.582121 -0.014705
C6    C     C_R   0.971525 0.495026 0.417879 -0.014705
C7    C     C_1   0.500000 0.065424 0.500000 -0.066781
C8    C     C_1   0.500000 0.934645 0.500000 -0.061041
C9    C     C_3   0.835219 0.310559 0.924963 -0.006414
C10   C     C_3   0.748224 0.210905 0.843649 -0.243836
C11   C     C_3   0.759843 0.054008 0.912837 -0.474212
C12   C     C_R   0.500000 0.779957 0.500000 0.551447
C13   C     C_3   0.164785 0.310551 0.075045 -0.006421
C14   C     C_3   0.251803 0.210919 0.156318 -0.243803
C15   C     C_3   0.240175 0.054017 0.087153 -0.474207
C16   C     C_R   0.299934 0.497218 0.467542 0.547628
C17   C     C_R   0.700066 0.497218 0.532458 0.547630
C18   C     C_R   0.812928 0.492162 0.552977 0.007402
C19   C     C_R   0.187072 0.492161 0.447023 0.007403
C20   C     C_R   0.022357 0.488224 0.269408 -0.122515
C21   C     C_R   0.977644 0.488230 0.730592 -0.122514
C22   C     C_R   0.129892 0.476902 0.282974 0.263978
Cu1   Cu    Cu3+1 0.500010 0.500000 0.669080 1.016023
Cu2   Cu    Cu3+1 0.499990 0.500000 0.330920 1.016021
H1    H     H_    0.821269 0.506306 0.277696 0.155290
H2    H     H_    0.695648 0.985048 0.851438 0.167042
H3    H     H_    0.757184 0.052908 0.054884 0.153109
H4    H     H_    0.167857 0.311378 0.933251 0.140800
H5    H     H_    0.088117 0.263116 0.095795 0.100570
H6    H     H_    0.327231 0.255476 0.126446 0.207716
H7    H     H_    0.251099 0.208274 0.298759 0.152144
H8    H     H_    0.165879 0.005944 0.117574 0.152402
H9    H     H_    0.304405 0.985083 0.148488 0.167047
H10   H     H_    0.242769 0.052910 0.945085 0.153098
H11   H     H_    0.178731 0.506309 0.722304 0.155293
H12   H     H_    0.978759 0.486627 0.143214 0.130464
H13   H     H_    0.021241 0.486636 0.856787 0.130466
H14   H     H_    0.832121 0.311387 0.066752 0.140812
H15   H     H_    0.911899 0.263143 0.904253 0.100564
H16   H     H_    0.672784 0.255452 0.873464 0.207730
H17   H     H_    0.748964 0.208249 0.701218 0.152126
H18   H     H_    0.834162 0.005956 0.882517 0.152404
N1    N     N_1   0.499980 0.500000 0.076820 -0.081591
N2    N     N_1   0.500020 0.500000 0.923180 -0.081589
O1    O     O_R   0.500000 0.288400 0.642760 -0.516369
O2    O     O_3   0.178801 0.457395 0.135303 -0.557496
O3    O     O_R   0.500000 0.711600 0.357240 -0.494367
O4    O     O_R   0.500000 0.288400 0.357240 -0.516369
O5    O     O_R   0.500000 0.711600 0.642760 -0.494366
O6    O     O_R   0.349000 0.500000 0.619590 -0.518585
O7    O     O_R   0.651000 0.500000 0.380410 -0.518584
O8    O     O_R   0.348990 0.500000 0.334020 -0.457308
O9    O     O_R   0.651010 0.500000 0.665980 -0.457307
O10   O     O_3   0.821199 0.457400 0.864697 -0.557495

loop_
_geom_bond_atom_site_label_1
_geom_bond_atom_site_label_2
_ccdc_geom_bond_type
Cu2   O8    S    
N1    N2    T    
C13   H4    S    
C3    C19   A    
Cu1   O1    S    
C11   H3    S    
C2    C18   A    
C6    C20   A    
C9    C10   S    
C15   H10   S    
C3    H11   S    
C14   H7    S    
C8    C12   S    
C4    C18   A    
C17   O7    A    
C2    C21   A    
C17   C18   S    
C5    C21   A    
C15   H8    S    
C1    O4    A    
C13   C14   S    
C10   H17   S    
C1    O1    A    
C5    C6    A    
C14   H6    S    
C16   C19   S    
Cu1   O9    S    
C4    C6    A    
C9    H14   S    
C22   O2    S    
C16   O6    A    
C4    H1    S    
C12   O3    A    
C13   O2    S    
Cu1   O5    S    
C12   O5    A    
C10   C11   S    
Cu1   Cu2   S    
Cu2   O4    S    
C17   O9    A    
C7    C8    T    
C19   C22   A    
C21   H13   S    
C11   H18   S    
C10   H16   S    
C2    O10   S    
C13   H5    S    
Cu2   N1    S    
C14   C15   S    
Cu2   O7    S    
Cu1   O6    S    
C9    O10   S    
C11   H2    S    
C1    C7    S    
Cu2   O3    S    
C15   H9    S    
C9    H15   S    
Cu1   N2    S    
C16   O8    A    
C20   C22   A    
C3    C5    A    
C20   H12   S    
