data_mof_unit_21897.cif
_audit_creation_date              2013-03-05T15:42:23-0500
_audit_creation_method            fapswitch 2.2
_symmetry_space_group_name_H-M    P1
_symmetry_Int_Tables_number       1
_space_group_crystal_system       triclinic
_cell_length_a                    8.336468
_cell_length_b                    15.107779
_cell_length_c                    17.434639
_cell_angle_alpha                 99.544091
_cell_angle_beta                  97.684659
_cell_angle_gamma                 99.044133
_cell_volume                      2109.52081882

loop_
_atom_site_label
_atom_site_type_symbol
_atom_site_description
_atom_site_fract_x
_atom_site_fract_y
_atom_site_fract_z
_atom_type_partial_charge
P1    P     P_3+3 0.993190 0.413330 0.319190 0.565241
O1    O     O_2   0.823140 0.439340 0.307240 -0.340377
O2    O     O_3   0.097070 0.445850 0.405300 -0.367326
O3    O     O_3   0.627590 0.606740 0.357340 -0.366998
O4    O     O_2   0.731960 0.547056 0.224945 -0.382044
O5    O     O_3   0.959553 0.293131 0.303142 -0.533888
O6    O     O_3   0.612436 0.693071 0.224056 -0.505256
H1    H     H_    0.490020 0.731715 0.320568 0.043978
C1    C     C_3   0.652148 0.845355 0.297660 -0.820879
H2    H     H_    0.760469 0.835974 0.337714 0.282346
H3    H     H_    0.694011 0.872899 0.247032 0.281129
P2    P     P_3+3 0.695930 0.711340 0.564320 0.494279
P3    P     P_3+3 0.113187 0.774818 0.408325 0.470297
O7    O     O_2   0.865800 0.723280 0.540790 -0.366305
O8    O     O_3   0.060870 0.655550 0.397490 -0.401450
O9    O     O_2   0.986660 0.818352 0.451937 -0.344709
O10   O     O_3   0.739177 0.741110 0.667302 -0.573993
O11   O     O_3   0.077392 0.803086 0.314677 -0.534185
C2    C     C_3   0.085907 0.727445 0.257168 0.356239
H4    H     H_    0.976022 0.673458 0.251343 0.166230
H5    H     H_    0.196687 0.697925 0.273188 -0.027307
C3    C     C_3   0.096338 0.757158 0.177915 -0.746856
H6    H     H_    0.183654 0.823200 0.187343 0.237866
C4    C     C_3   0.251888 0.752303 0.649851 0.219207
H7    H     H_    0.382212 0.761553 0.641192 0.077507
H8    H     H_    0.169091 0.717008 0.594381 0.134923
C5    C     C_3   0.206907 0.845978 0.674431 -0.012697
H9    H     H_    0.280552 0.880874 0.732782 0.136173
H10   H     H_    0.074911 0.836905 0.680910 0.184333
Ba1   Ba    Ba6+2 0.844730 0.540500 0.462170 1.633596
C6    C     C_3   0.899575 0.257136 0.365802 0.921152
H11   H     H_    0.772897 0.269219 0.366147 0.070787
C7    C     C_3   0.898448 0.154005 0.351676 -0.007294
H12   H     H_    0.022339 0.141597 0.374800 0.162224
H13   H     H_    0.868486 0.123578 0.287883 0.199987
C8    C     C_3   0.784355 0.668029 0.699357 0.393682
H14   H     H_    0.891371 0.647046 0.675051 0.082292
H15   H     H_    0.680058 0.609348 0.687069 0.136890
C9    C     C_3   0.831553 0.699576 0.788254 -0.915540
H16   H     H_    0.940370 0.755791 0.802035 0.256349
H17   H     H_    0.862058 0.642754 0.816681 0.216430
H18   H     H_    0.727142 0.724327 0.813061 0.281323
P4    P     P_3+3 0.196530 0.586750 0.680820 0.529730
O12   O     O_2   0.366580 0.560690 0.692810 -0.313070
O13   O     O_3   0.092650 0.554230 0.594710 -0.422513
O14   O     O_3   0.562120 0.393340 0.642670 -0.410747
O15   O     O_3   0.237499 0.705665 0.712099 -0.571438
P5    P     P_3+3 0.080285 0.227904 0.603934 0.489076
O16   O     O_3   0.597340 0.388800 0.458640 -0.319307
O17   O     O_3   0.128850 0.344520 0.602520 -0.364303
O18   O     O_2   0.185381 0.178886 0.549899 -0.378270
O19   O     O_3   0.151964 0.211389 0.698565 -0.543975
Ba2   Ba    Ba6+2 0.345110 0.459580 0.537840 1.604432
P6    P     P_3+3 0.586428 0.587117 0.253698 0.460875
C10   C     C_3   0.534411 0.754717 0.268661 0.371237
H19   H     H_    0.428218 0.766895 0.229260 0.086917
H20   H     H_    0.588842 0.895180 0.330291 0.210594
O20   O     O_3   0.592380 0.611270 0.541370 -0.358641
C11   C     C_3   0.449604 0.241890 0.275244 0.642181
C12   C     C_3   0.503444 0.184768 0.202666 -0.175409
H21   H     H_    0.464888 0.214843 0.150204 0.086629
P7    P     P_3+3 0.501420 0.271804 0.439263 0.539016
O21   O     O_2   0.323920 0.276750 0.459260 -0.297900
O22   O     O_3   0.480738 0.202681 0.343084 -0.636110
H22   H     H_    0.145146 0.705678 0.138735 0.150606
C13   C     C_3   0.110683 0.279769 0.753753 0.500466
H23   H     H_    0.196440 0.345384 0.758327 0.110738
H24   H     H_    0.982319 0.289940 0.737356 -0.113544
C14   C     C_3   0.123402 0.252324 0.834275 0.000565
H25   H     H_    0.081881 0.304322 0.876362 0.088470
H26   H     H_    0.041735 0.185165 0.829408 0.156945
P8    P     P_3+3 0.608955 0.405111 0.744662 0.476604
C15   C     C_3   0.572129 0.230231 0.713798 0.345050
H27   H     H_    0.701624 0.242763 0.703604 0.015570
O23   O     O_2   0.501074 0.469037 0.782087 -0.331343
O24   O     O_3   0.543057 0.300238 0.771197 -0.486398
H28   H     H_    0.487169 0.224829 0.657719 0.084661
H29   H     H_    0.555281 0.084020 0.693271 0.093912
C16   C     C_3   0.539914 0.139088 0.740993 0.027971
H30   H     H_    0.411046 0.123973 0.752335 0.185581
C17   C     C_2   0.270646 0.496637 0.268339 -0.611974
C18   C     C_3   0.387862 0.504723 0.209877 0.192371
C19   C     C_2   0.304924 0.523854 0.134364 -0.246673
C20   C     C_2   0.139629 0.498173 0.112684 0.111353
C21   C     C_2   0.039366 0.465394 0.172510 -0.178224
C22   C     C_1   0.109988 0.463744 0.245873 0.304620
C23   C     C_R   0.895428 0.462362 0.858475 -0.302117
C24   C     C_R   0.827977 0.452718 0.779237 0.256521
C25   C     C_R   0.086418 0.530028 0.751625 0.262868
C26   C     C_R   0.154315 0.543508 0.832608 0.407088
C27   C     C_R   0.059884 0.505566 0.886364 -0.068159
C28   C     C_2   0.056893 0.502750 0.031588 -0.148284
C29   C     C_2   0.137441 0.503776 0.968664 -0.168986
C30   C     C_R   0.925337 0.482206 0.725697 -0.626382
H31   H     H_    0.266789 0.499411 0.976003 0.151964
H32   H     H_    0.908505 0.439449 0.154152 0.153019
H33   H     H_    0.819793 0.433895 0.897440 0.174261
H34   H     H_    0.925984 0.503837 0.023909 0.165501
H35   H     H_    0.382795 0.552127 0.096068 0.146150
H36   H     H_    0.871498 0.473542 0.664323 0.185298
C31   C     C_R   0.755441 0.241346 0.548513 -0.472291
C32   C     C_R   0.858144 0.182009 0.570510 0.312505
C33   C     C_R   0.795044 0.088017 0.559433 -0.243904
C34   C     C_R   0.629423 0.051331 0.522705 0.084643
C35   C     C_R   0.532875 0.113825 0.497668 -0.190948
C36   C     C_R   0.597627 0.206742 0.507007 0.303636
C37   C     C_R   0.396944 0.913711 0.465102 -0.218709
C38   C     C_R   0.325636 0.822319 0.459763 0.290942
C39   C     C_R   0.583127 0.793148 0.522790 0.333836
C40   C     C_R   0.654218 0.885573 0.531337 -0.274108
C41   C     C_R   0.560367 0.949438 0.505869 0.034683
C42   C     C_R   0.416433 0.765414 0.493746 -0.508897
H37   H     H_    0.319624 0.954685 0.438502 0.148998
H38   H     H_    0.879778 0.045285 0.576844 0.151212
H39   H     H_    0.780168 0.905855 0.560457 0.165865
H40   H     H_    0.410381 0.092043 0.464908 0.139078
H41   H     H_    0.354456 0.700467 0.501631 0.196050
H42   H     H_    0.802478 0.313731 0.557880 0.133733
O25   O     O_3   0.231940 0.899832 0.617553 -0.724109
H43   H     H_    0.350413 0.928225 0.628619 0.319455
O26   O     O_3   0.999622 0.295082 0.438505 -0.705358
H44   H     H_    0.943932 0.341236 0.465903 0.300451
O27   O     O_3   0.783011 0.110399 0.390428 -0.783627
H45   H     H_    0.794192 0.045172 0.381835 0.337705
C43   C     C_2   0.267011 0.237404 0.252260 0.910988
O28   O     O_2   0.218237 0.293938 0.217315 -0.632377
O29   O     O_R   0.154489 0.160633 0.257101 -0.777113
H46   H     H_    0.205625 0.114564 0.283487 0.290252
O30   O     O_3   0.537424 0.331613 0.288516 -0.670493
H47   H     H_    0.524326 0.354554 0.238288 0.302948
C44   C     C_2   0.423268 0.084357 0.183847 1.053075
O31   O     O_2   0.323965 0.055081 0.123319 -0.574280
O32   O     O_R   0.460683 0.023923 0.233231 -0.769400
H48   H     H_    0.547902 0.053515 0.280220 0.346629
O33   O     O_3   0.674511 0.193196 0.212713 -0.718210
H49   H     H_    0.703859 0.172641 0.160108 0.349026
O34   O     O_3   0.286425 0.246629 0.861667 -0.681330
H50   H     H_    0.286482 0.228785 0.913940 0.336000
O35   O     O_3   0.652603 0.139579 0.808463 -0.716496
H51   H     H_    0.612026 0.172630 0.853920 0.370044
O36   O     O_3   0.310218 0.595519 0.857080 -0.695543
H52   H     H_    0.327577 0.617627 0.914761 0.315121
C45   C     C_2   0.345942 0.501597 0.348785 1.238675
O37   O     O_2   0.387394 0.434735 0.368715 -0.515962
O38   O     O_R   0.354448 0.579276 0.404232 -0.737462
H53   H     H_    0.328931 0.630619 0.377037 0.231168
C46   C     C_2   0.931145 0.766184 0.137242 1.219158
O39   O     O_2   0.900264 0.841760 0.132531 -0.603382
O40   O     O_R   0.814909 0.687629 0.102955 -0.783138
H54   H     H_    0.709127 0.702050 0.076114 0.328835

loop_
_geom_bond_atom_site_label_1
_geom_bond_atom_site_label_2
_geom_bond_distance
_ccdc_geom_bond_type
C13   H24   1.111265 S    
C10   H19   1.104502 S    
C31   C32   1.396862 A    
Ba2   O20   2.817622 S    
C23   C27   1.406130 A    
C5    H10   1.110566 S    
Ba2   O21   2.839828 S    
C15   H27   1.109521 S    
C35   H40   1.073935 S    
C16   O35   1.402019 S    
C2    H4    1.107911 S    
C4    C5    1.528324 S    
O6    C10   1.407406 S    
P8    O24   1.750288 S    
O38   H53   1.009242 S    
C28   H34   1.084645 S    
O27   H45   0.992915 S    
C9    H17   1.106031 S    
C21   C22   1.340535 D    
C11   O22   1.419771 S    
P4    C25   1.872799 S    
P3    O11   1.754464 S    
C19   C20   1.355065 D    
C31   H42   1.079429 S    
C28   C29   1.361632 D    
C8    H14   1.105186 S    
C46   O40   1.397518 S    
C4    H8    1.109416 S    
O11   C2    1.407419 S    
P5    O19   1.749589 S    
P8    O23   1.545431 D    
C42   H41   1.073753 S    
C21   H32   1.084787 S    
C13   C14   1.523498 S    
C45   O37   1.206040 D    
C31   C36   1.389779 A    
H1    C10   1.109102 S    
P1    O1    1.526678 D    
C25   C30   1.397822 A    
C14   H26   1.113098 S    
C40   C41   1.423634 A    
C37   H37   1.074444 S    
P7    O22   1.793736 S    
Ba1   O13   2.843119 S    
O36   H52   0.989113 S    
O12   Ba2   2.842798 S    
P4    Ba2   3.380126 S    
P5    O18   1.548196 D    
C46   O39   1.222519 D    
P2    O10   1.750446 S    
C37   C38   1.397496 A    
C6    C7    1.534889 S    
C1    C10   1.519617 S    
O10   C8    1.397227 S    
C1    H2    1.107971 S    
O14   P8    1.741737 S    
C17   C22   1.334188 D    
C5    H9    1.114985 S    
P2    Ba1   3.383085 S    
P5    O17   1.749659 S    
C13   H23   1.111691 S    
O13   Ba2   2.913998 S    
C11   C12   1.568094 S    
C29   H31   1.082455 S    
C19   H35   1.083047 S    
C32   C33   1.406242 A    
O7    Ba1   2.839536 S    
P3    C38   1.848835 S    
C12   C44   1.520908 S    
P2    C39   1.848290 S    
P8    C24   1.833978 S    
C17   C18   1.509568 S    
C9    H18   1.110806 S    
C14   O34   1.399735 S    
Ba1   Ba2   4.581090 S    
C24   C30   1.398348 A    
O17   Ba2   2.784255 S    
P1    O5    1.762091 S    
O4    P6    1.543513 D    
O33   H49   0.993437 S    
C2    C3    1.530969 S    
C20   C21   1.518587 S    
C6    O26   1.398902 S    
C39   C42   1.386173 A    
C9    H16   1.110746 S    
H29   C16   1.110524 S    
C38   C42   1.384417 A    
C12   H21   1.118683 S    
P1    O2    1.587183 S    
O2    Ba1   2.913152 S    
P4    O12   1.527040 D    
C3    H22   1.111168 S    
P7    O21   1.575057 D    
C27   C29   1.499287 S    
P4    O13   1.587183 S    
C6    H11   1.100234 S    
C30   H36   1.081763 S    
O35   H51   0.992690 S    
P5    C32   1.850262 S    
C33   H38   1.076527 S    
C7    H12   1.113086 S    
C15   C16   1.525535 S    
C4    H7    1.107161 S    
C1    H3    1.110219 S    
C12   O33   1.396191 S    
O26   H44   0.990232 S    
Ba1   O16   2.818325 S    
P2    O7    1.518492 D    
P3    O8    1.758040 S    
O32   H48   1.008339 S    
C15   O24   1.404737 S    
O29   H46   1.012310 S    
P6    C18   1.889961 S    
O19   C13   1.407905 S    
O8    Ba1   2.783562 S    
C7    O27   1.392383 S    
O30   H47   0.992920 S    
O34   H50   0.992307 S    
P1    C22   1.893314 S    
C45   O38   1.376978 S    
C11   O30   1.402018 S    
O16   P7    1.778528 S    
O3    P6    1.759341 S    
C4    O15   1.396589 S    
C37   C41   1.426602 A    
C8    C9    1.522199 S    
C44   O32   1.396646 S    
C34   C35   1.418228 A    
C34   C41   1.521051 S    
O25   H43   0.992505 S    
P7    C36   1.839534 S    
C5    O25   1.399417 S    
C11   C43   1.509179 S    
C35   C36   1.396768 A    
O1    Ba1   2.842334 S    
C8    H15   1.110265 S    
P2    O20   1.577229 S    
O40   H54   1.013882 S    
O2    Ba2   2.843726 S    
C26   C27   1.435366 A    
C43   O28   1.217162 D    
O16   Ba2   2.909515 S    
Ba1   O20   2.910299 S    
O14   Ba2   2.811785 S    
P1    Ba1   3.379571 S    
C7    H13   1.109411 S    
O5    C6    1.413076 S    
C1    H20   1.109952 S    
C14   H25   1.112477 S    
C26   O36   1.381343 S    
C16   H30   1.113573 S    
C17   C45   1.442802 S    
C3    C46   1.499282 S    
C23   C24   1.394871 A    
C18   C19   1.496814 S    
P3    O9    1.545980 D    
C33   C34   1.424361 A    
C43   O29   1.394224 S    
C15   H28   1.111040 S    
C3    H6    1.112489 S    
C20   C28   1.505390 S    
O6    P6    1.752599 S    
C23   H33   1.081769 S    
C25   C26   1.417762 A    
C39   C40   1.403715 A    
P4    O15   1.753281 S    
C40   H39   1.076480 S    
O3    Ba1   2.812449 S    
C44   O31   1.221085 D    
C2    H5    1.109780 S    
