data_mof_unit_45401.cif
_audit_creation_date              2012-12-11T15:22:41-0500
_audit_creation_method            fapswitch 2.2
_symmetry_space_group_name_H-M    P1
_symmetry_Int_Tables_number       1
_space_group_crystal_system       triclinic
_cell_length_a                    22.460049
_cell_length_b                    12.997172
_cell_length_c                    27.021382
_cell_angle_alpha                 89.930551
_cell_angle_beta                  90.596824
_cell_angle_gamma                 89.961308
_cell_volume                      7887.56841284

loop_
_atom_site_label
_atom_site_type_symbol
_atom_type_description
_atom_site_fract_x
_atom_site_fract_y
_atom_site_fract_z
_atom_type_partial_charge
C1    C     C_R   0.720643 0.344954 0.178204 0.544122
C2    C     C_R   0.481851 0.255411 0.897077 -0.150336
C3    C     C_R   0.009298 0.586081 0.555167 -0.118155
C4    C     C_R   0.503205 0.082831 0.394499 -0.127747
C5    C     C_R   0.497031 0.083172 0.605619 -0.127717
C6    C     C_R   0.003205 0.582831 0.394499 -0.127749
C7    C     C_R   0.997031 0.583172 0.605619 -0.127719
C8    C     C_R   0.740858 0.954205 0.371055 0.022433
C9    C     C_R   0.259267 0.954685 0.628855 0.022538
C10   C     C_R   0.240855 0.454209 0.371057 0.022431
C11   C     C_R   0.759269 0.454688 0.628854 0.022536
C12   C     C_R   0.690750 0.921603 0.397396 -0.133403
C13   C     C_R   0.022615 0.758046 0.102700 -0.134190
C14   C     C_R   0.309423 0.922123 0.602560 -0.132932
C15   C     C_R   0.190745 0.421624 0.397399 -0.133401
C16   C     C_R   0.809428 0.422143 0.602557 -0.132930
C17   C     C_R   0.695469 0.901493 0.447472 -0.068367
C18   C     C_R   0.304785 0.902156 0.552480 -0.068154
C19   C     C_R   0.195463 0.401516 0.447475 -0.068364
C20   C     C_R   0.804790 0.402177 0.552477 -0.068151
C21   C     C_R   0.750680 0.909930 0.471516 0.078387
C22   C     C_R   0.249608 0.910724 0.528367 0.078426
C23   C     C_R   0.250677 0.409936 0.471517 0.078385
C24   C     C_R   0.981848 0.755413 0.897077 -0.150328
C25   C     C_R   0.749611 0.410728 0.528366 0.078424
C26   C     C_R   0.801726 0.935139 0.444664 -0.129810
C27   C     C_R   0.198530 0.936040 0.555161 -0.129676
C28   C     C_R   0.301724 0.435128 0.444663 -0.129823
C29   C     C_R   0.698531 0.436028 0.555162 -0.129688
C30   C     C_R   0.796790 0.957840 0.394521 -0.137122
C31   C     C_R   0.203384 0.958586 0.605306 -0.137310
C32   C     C_R   0.296789 0.457828 0.394520 -0.137133
C33   C     C_R   0.703385 0.458574 0.605307 -0.137321
C34   C     C_R   0.783789 0.971720 0.553720 -0.166618
C35   C     C_R   0.510248 0.259118 0.051756 0.012824
C36   C     C_R   0.216470 0.972279 0.446022 -0.166543
C37   C     C_R   0.283796 0.471716 0.553720 -0.166609
C38   C     C_R   0.716462 0.472274 0.446022 -0.166535
C39   C     C_R   0.720780 0.345784 0.322197 0.546503
C40   C     C_R   0.279240 0.345788 0.677786 0.546909
C41   C     C_R   0.220780 0.845783 0.322198 0.546500
C42   C     C_R   0.779240 0.845788 0.677786 0.546908
C43   C     C_R   0.788787 0.959724 0.604657 -0.145656
C44   C     C_R   0.211371 0.960036 0.395115 -0.145799
C45   C     C_R   0.288795 0.459721 0.604656 -0.145651
C46   C     C_R   0.492492 0.257387 0.948337 0.008710
C47   C     C_R   0.711363 0.460032 0.395115 -0.145794
C48   C     C_R   0.730085 0.803252 0.599080 -0.119292
C49   C     C_R   0.270092 0.803472 0.400958 -0.119190
C50   C     C_R   0.230072 0.303270 0.599083 -0.119291
C51   C     C_R   0.770105 0.303489 0.400956 -0.119189
C52   C     C_R   0.726733 0.812463 0.547756 0.240065
C53   C     C_R   0.273571 0.812958 0.452269 0.240155
C54   C     C_R   0.226720 0.312480 0.547759 0.240066
C55   C     C_R   0.773583 0.312974 0.452266 0.240155
C56   C     C_R   0.754018 0.897338 0.525100 0.066618
C57   C     C_R   0.010246 0.759117 0.051756 0.012828
C58   C     C_R   0.246305 0.897989 0.474782 0.066696
C59   C     C_R   0.254015 0.397344 0.525101 0.066621
C60   C     C_R   0.746307 0.397994 0.474781 0.066701
C61   C     C_R   0.762787 0.874496 0.627412 -0.007481
C62   C     C_R   0.237321 0.874632 0.372509 -0.007100
C63   C     C_R   0.262785 0.374503 0.627413 -0.007482
C64   C     C_R   0.737323 0.374638 0.372508 -0.007101
C65   C     C_R   0.554550 0.158862 0.321723 0.542222
C66   C     C_R   0.445444 0.158911 0.678275 0.543003
C67   C     C_R   0.054550 0.658862 0.321723 0.542221
C68   C     C_R   0.992491 0.757388 0.948336 0.008713
C69   C     C_R   0.945444 0.658911 0.678275 0.543000
C70   C     C_R   0.731748 0.001962 0.322842 0.544565
C71   C     C_R   0.268284 0.002080 0.677124 0.544682
C72   C     C_R   0.231747 0.501963 0.322842 0.544562
C73   C     C_R   0.768284 0.502081 0.677124 0.544679
C74   C     C_R   0.509376 0.072426 0.104334 -0.130332
C75   C     C_R   0.476330 0.068698 0.899716 -0.132024
C76   C     C_R   0.009388 0.572421 0.104330 -0.130333
C77   C     C_R   0.976344 0.568699 0.899712 -0.132029
C78   C     C_R   0.498727 0.071866 0.053570 0.013436
C79   C     C_R   0.500084 0.165241 0.026930 0.062591
C80   C     C_R   0.484708 0.069627 0.950665 0.010055
C81   C     C_R   0.998742 0.571862 0.053566 0.013433
C82   C     C_R   0.984724 0.569627 0.950661 0.010054
C83   C     C_R   0.483263 0.977370 0.977495 -0.144121
C84   C     C_R   0.489758 0.978562 0.028731 -0.136763
C85   C     C_R   0.983288 0.477368 0.977489 -0.144125
C86   C     C_R   0.989783 0.478557 0.028726 -0.136770
C87   C     C_R   0.492466 0.164198 0.975284 0.063934
C88   C     C_R   0.000091 0.665239 0.026928 0.062594
C89   C     C_R   0.280396 0.342679 0.822542 0.538939
C90   C     C_R   0.992473 0.664198 0.975281 0.063940
C91   C     C_R   0.510603 0.351489 0.024751 -0.139746
C92   C     C_R   0.501259 0.350705 0.973453 -0.146228
C93   C     C_R   0.010593 0.851490 0.024752 -0.139745
C94   C     C_R   0.001249 0.850707 0.973454 -0.146236
C95   C     C_R   0.741915 0.952708 0.131419 0.024302
C96   C     C_R   0.261319 0.958418 0.870432 0.024708
C97   C     C_R   0.241913 0.452706 0.131419 0.024298
C98   C     C_R   0.761320 0.458418 0.870432 0.024709
C99   C     C_R   0.793564 0.977625 0.105329 -0.127336
C100  C     C_R   0.220643 0.844954 0.178204 0.544122
C101  C     C_R   0.206242 0.964665 0.894229 -0.123380
C102  C     C_R   0.293571 0.477592 0.105334 -0.127340
C103  C     C_R   0.706241 0.464661 0.894228 -0.123381
C104  C     C_R   0.798479 0.951773 0.055796 -0.119311
C105  C     C_R   0.202659 0.946199 0.944937 -0.115909
C106  C     C_R   0.298487 0.451740 0.055801 -0.119310
C107  C     C_R   0.702658 0.446195 0.944936 -0.115908
C108  C     C_R   0.752462 0.898286 0.031382 0.037645
C109  C     C_R   0.254253 0.922723 0.972653 0.036678
C110  C     C_R   0.252461 0.398287 0.031381 0.037641
C111  C     C_R   0.780396 0.842677 0.822543 0.538947
C112  C     C_R   0.754252 0.422722 0.972653 0.036677
C113  C     C_R   0.702249 0.867691 0.058163 -0.118716
C114  C     C_R   0.308624 0.910896 0.948257 -0.119553
C115  C     C_R   0.202238 0.367722 0.058157 -0.118721
C116  C     C_R   0.808625 0.410899 0.948257 -0.119554
C117  C     C_R   0.553586 0.157444 0.177601 0.548905
C118  C     C_R   0.445806 0.156958 0.822786 0.544148
C119  C     C_R   0.053586 0.657444 0.177600 0.548904
C120  C     C_R   0.945807 0.656958 0.822785 0.544153
C121  C     C_R   0.696930 0.894943 0.107884 -0.125928
C122  C     C_R   0.471922 0.161193 0.872879 -0.005699
C123  C     C_R   0.312008 0.927515 0.897570 -0.124734
C124  C     C_R   0.196918 0.394971 0.107878 -0.125928
C125  C     C_R   0.812009 0.427519 0.897571 -0.124732
C126  C     C_R   0.707079 0.887987 0.945901 -0.114801
C127  C     C_R   0.285342 0.836206 0.051275 -0.118933
C128  C     C_R   0.207082 0.388034 0.945898 -0.114802
C129  C     C_R   0.785340 0.336203 0.051275 -0.118933
C130  C     C_R   0.713694 0.877667 0.894650 -0.130001
C131  C     C_R   0.279318 0.820836 0.101899 -0.126051
C132  C     C_R   0.213697 0.377712 0.894647 -0.130009
C133  C     C_R   0.524624 0.164163 0.128686 -0.005286
C134  C     C_R   0.779316 0.320834 0.101899 -0.126050
C135  C     C_R   0.819580 0.850562 0.907066 -0.116153
C136  C     C_R   0.207766 0.960339 0.105271 -0.125573
C137  C     C_R   0.319574 0.350517 0.907067 -0.116147
C138  C     C_R   0.707766 0.460338 0.105271 -0.125575
C139  C     C_R   0.812823 0.857245 0.957727 -0.124924
C140  C     C_R   0.214446 0.976668 0.054678 -0.116408
C141  C     C_R   0.312816 0.357205 0.957728 -0.124923
C142  C     C_R   0.714445 0.476667 0.054678 -0.116409
C143  C     C_R   0.756937 0.878800 0.977772 0.031168
C144  C     C_R   0.971926 0.661195 0.872877 -0.005694
C145  C     C_R   0.251607 0.912196 0.026931 0.038416
C146  C     C_R   0.256935 0.378805 0.977771 0.031161
C147  C     C_R   0.751606 0.412194 0.026930 0.038416
C148  C     C_R   0.770424 0.861608 0.875078 0.034939
C149  C     C_R   0.238677 0.880033 0.128938 0.024519
C150  C     C_R   0.270424 0.361606 0.875077 0.034947
C151  C     C_R   0.738676 0.380032 0.128937 0.024521
C152  C     C_R   0.528067 0.168798 0.371039 0.021889
C153  C     C_R   0.471836 0.168964 0.628926 0.021534
C154  C     C_R   0.028067 0.668798 0.371039 0.021888
C155  C     C_R   0.024627 0.664160 0.128684 -0.005286
C156  C     C_R   0.971836 0.668964 0.628926 0.021533
C157  C     C_R   0.537155 0.259624 0.398264 -0.125147
C158  C     C_R   0.462301 0.259584 0.601523 -0.125185
C159  C     C_R   0.037155 0.759624 0.398264 -0.125146
C160  C     C_R   0.962301 0.759584 0.601523 -0.125184
C161  C     C_R   0.525597 0.262103 0.448756 -0.119292
C162  C     C_R   0.473780 0.261996 0.551014 -0.119194
C163  C     C_R   0.025597 0.762102 0.448756 -0.119290
C164  C     C_R   0.973780 0.761996 0.551014 -0.119191
C165  C     C_R   0.731410 0.001636 0.179515 0.544199
C166  C     C_R   0.522618 0.258048 0.102700 -0.134191
C167  C     C_R   0.268935 0.002230 0.820788 0.543288
C168  C     C_R   0.231410 0.501637 0.179515 0.544198
C169  C     C_R   0.768935 0.502230 0.820788 0.543289
C170  C     C_R   0.503861 0.174328 0.472859 0.036142
C171  C     C_R   0.495885 0.174373 0.527073 0.036110
C172  C     C_R   0.003861 0.674328 0.472859 0.036143
C173  C     C_R   0.995884 0.674372 0.527073 0.036110
C174  C     C_R   0.490865 0.085795 0.444935 -0.118220
C175  C     C_R   0.509298 0.086081 0.555167 -0.118154
C176  C     C_R   0.990865 0.585795 0.444935 -0.118220
Cr1   Cr    Cr6+3 0.756570 0.170940 0.251190 1.010401
Cr2   Cr    Cr6+3 0.374010 0.036240 0.749520 1.011349
Cr3   Cr    Cr6+3 0.125990 0.536240 0.250480 1.012009
Cr4   Cr    Cr6+3 0.874010 0.536240 0.749520 1.011349
Cr5   Cr    Cr6+3 0.243430 0.170940 0.748810 1.016092
Cr6   Cr    Cr6+3 0.256570 0.670940 0.251190 1.010401
Cr7   Cr    Cr6+3 0.743430 0.670940 0.748810 1.016092
Cr8   Cr    Cr6+3 0.623740 0.299110 0.249580 1.014045
Cr9   Cr    Cr6+3 0.376260 0.299110 0.750420 1.013513
Cr10  Cr    Cr6+3 0.123740 0.799110 0.249580 1.014047
Cr11  Cr    Cr6+3 0.876260 0.799110 0.750420 1.013512
Cr12  Cr    Cr6+3 0.625990 0.036240 0.250480 1.012011
H1    H     H_    0.468991 0.995337 0.881595 0.126820
H2    H     H_    0.349188 0.893569 0.968619 0.105668
H3    H     H_    0.166614 0.324883 0.040449 0.098781
H4    H     H_    0.849188 0.393575 0.968620 0.105673
H5    H     H_    0.656526 0.874843 0.127162 0.123326
H6    H     H_    0.355297 0.923039 0.880407 0.128513
H7    H     H_    0.156508 0.374896 0.127152 0.123335
H8    H     H_    0.855298 0.423046 0.880408 0.128519
H9    H     H_    0.556957 0.326852 0.381371 0.135409
H10   H     H_    0.442209 0.326645 0.618297 0.135636
H11   H     H_    0.056957 0.826851 0.381371 0.135410
H12   H     H_    0.510262 0.999791 0.124127 0.128428
H13   H     H_    0.942209 0.826645 0.618297 0.135638
H14   H     H_    0.528031 0.018391 0.537929 0.105941
H15   H     H_    0.472415 0.017967 0.462300 0.105857
H16   H     H_    0.028031 0.518391 0.537929 0.105942
H17   H     H_    0.972415 0.517967 0.462300 0.105859
H18   H     H_    0.504907 0.012447 0.625903 0.125832
H19   H     H_    0.495661 0.011947 0.374358 0.125672
H20   H     H_    0.004907 0.512447 0.625903 0.125832
H21   H     H_    0.995661 0.511947 0.374358 0.125672
H22   H     H_    0.536408 0.331226 0.469281 0.102106
H23   H     H_    0.969011 0.495338 0.881590 0.126820
H24   H     H_    0.462638 0.330924 0.530354 0.102118
H25   H     H_    0.036408 0.831226 0.469281 0.102108
H26   H     H_    0.962638 0.830923 0.530354 0.102121
H27   H     H_    0.646897 0.919246 0.380354 0.133942
H28   H     H_    0.353249 0.919601 0.619653 0.134241
H29   H     H_    0.146890 0.419281 0.380359 0.133948
H30   H     H_    0.853255 0.419634 0.619649 0.134247
H31   H     H_    0.804163 0.038021 0.536459 0.147896
H32   H     H_    0.196102 0.038691 0.463156 0.148241
H33   H     H_    0.304178 0.538009 0.536458 0.147886
H34   H     H_    0.010280 0.499785 0.124122 0.128429
H35   H     H_    0.696087 0.538677 0.463157 0.148232
H36   H     H_    0.814614 0.014705 0.625972 0.138275
H37   H     H_    0.185497 0.014973 0.373711 0.137501
H38   H     H_    0.314630 0.514694 0.625970 0.138276
H39   H     H_    0.685482 0.514961 0.373712 0.137501
H40   H     H_    0.476679 0.904382 0.958874 0.097321
H41   H     H_    0.488838 0.906382 0.048835 0.101226
H42   H     H_    0.976711 0.404380 0.958868 0.097326
H43   H     H_    0.988869 0.406377 0.048828 0.101224
H44   H     H_    0.655415 0.884117 0.467846 0.146399
H45   H     H_    0.863372 0.833552 0.892865 0.135037
H46   H     H_    0.344868 0.884710 0.532161 0.146457
H47   H     H_    0.155408 0.384155 0.467850 0.146404
H48   H     H_    0.844874 0.384745 0.532156 0.146461
H49   H     H_    0.710953 0.735755 0.616288 0.128800
H50   H     H_    0.289183 0.735853 0.383865 0.128623
H51   H     H_    0.210931 0.235782 0.616292 0.128794
H52   H     H_    0.789204 0.235878 0.383861 0.128617
H53   H     H_    0.844816 0.940673 0.462857 0.103292
H54   H     H_    0.155463 0.941699 0.536926 0.103497
H55   H     H_    0.344816 0.440649 0.462855 0.103294
H56   H     H_    0.176362 0.007333 0.125355 0.122451
H57   H     H_    0.655462 0.441674 0.536928 0.103498
H58   H     H_    0.835922 0.982929 0.374775 0.125716
H59   H     H_    0.164217 0.983693 0.624997 0.125770
H60   H     H_    0.335923 0.482904 0.374773 0.125717
H61   H     H_    0.664216 0.483669 0.624999 0.125771
H62   H     H_    0.478566 0.326967 0.876575 0.117266
H63   H     H_    0.534183 0.329222 0.121328 0.125917
H64   H     H_    0.978557 0.826969 0.876576 0.117260
H65   H     H_    0.034173 0.829221 0.121329 0.125913
H66   H     H_    0.501233 0.422945 0.953401 0.103657
H67   H     H_    0.363362 0.333471 0.892868 0.135037
H68   H     H_    0.518383 0.424224 0.043264 0.102648
H69   H     H_    0.001216 0.922948 0.953404 0.103654
H70   H     H_    0.018365 0.924225 0.043266 0.102650
H71   H     H_    0.828852 0.022636 0.122255 0.125044
H72   H     H_    0.166524 0.988121 0.874117 0.124884
H73   H     H_    0.328867 0.522577 0.122265 0.125043
H74   H     H_    0.666523 0.488114 0.874116 0.124881
H75   H     H_    0.663437 0.905146 0.960410 0.110885
H76   H     H_    0.314145 0.785039 0.030877 0.101467
H77   H     H_    0.163444 0.405229 0.960405 0.110895
H78   H     H_    0.676362 0.507333 0.125355 0.122449
H79   H     H_    0.814143 0.285036 0.030877 0.101465
H80   H     H_    0.675111 0.883655 0.870442 0.110172
H81   H     H_    0.303374 0.757669 0.119032 0.129308
H82   H     H_    0.175119 0.383734 0.870437 0.110163
H83   H     H_    0.803373 0.257666 0.119031 0.129302
H84   H     H_    0.837338 0.978201 0.036114 0.101288
H85   H     H_    0.159783 0.952686 0.962642 0.106751
H86   H     H_    0.337355 0.478141 0.036122 0.101296
H87   H     H_    0.659782 0.452679 0.962642 0.106750
H88   H     H_    0.851668 0.845872 0.981201 0.117217
H89   H     H_    0.666633 0.824826 0.040459 0.098776
H90   H     H_    0.189353 0.038004 0.037058 0.102618
H91   H     H_    0.351657 0.345800 0.981205 0.117221
H92   H     H_    0.689353 0.538004 0.037058 0.102614
H93   H     H_    0.683926 0.682588 0.540790 0.313629
H94   H     H_    0.316404 0.683028 0.459465 0.313517
H95   H     H_    0.183895 0.182621 0.540795 0.313626
H96   H     H_    0.816437 0.183063 0.459460 0.313515
O1    O     O_R   0.769900 0.064540 0.196060 -0.525331
O2    O     O_R   0.433710 0.069580 0.694600 -0.521277
O3    O     O_R   0.066290 0.569580 0.305400 -0.522422
O4    O     O_R   0.933710 0.569580 0.694600 -0.521280
O5    O     O_R   0.680760 0.993330 0.302620 -0.505727
O6    O     O_R   0.319240 0.993330 0.697380 -0.504759
O7    O     O_R   0.180760 0.493330 0.302620 -0.505727
O8    O     O_R   0.819240 0.493330 0.697380 -0.504760
O9    O     O_3   0.668770 0.168760 0.250420 -0.238994
O10   O     O_3   0.331230 0.168760 0.749580 -0.241839
O11   O     O_3   0.168770 0.668760 0.250420 -0.238996
O12   O     O_R   0.230100 0.064540 0.803940 -0.516181
O13   O     O_3   0.831230 0.668760 0.749580 -0.241839
O14   O     O_R   0.750800 0.274080 0.199250 -0.505083
O15   O     O_R   0.249200 0.274080 0.800750 -0.496727
O16   O     O_R   0.250800 0.774080 0.199250 -0.505082
O17   O     O_R   0.749200 0.774080 0.800750 -0.496729
O18   O     O_R   0.669990 0.371670 0.194150 -0.520761
O19   O     O_R   0.330010 0.371670 0.805850 -0.521943
O20   O     O_R   0.169990 0.871670 0.194150 -0.520759
O21   O     O_R   0.830010 0.871670 0.805850 -0.521949
O22   O     O_R   0.574600 0.238480 0.197800 -0.501590
O23   O     O_R   0.269900 0.564540 0.196060 -0.525326
O24   O     O_R   0.425400 0.238480 0.802200 -0.505911
O25   O     O_R   0.074600 0.738480 0.197800 -0.501587
O26   O     O_R   0.925400 0.738480 0.802200 -0.505911
O27   O     O_R   0.566130 0.068680 0.194240 -0.522430
O28   O     O_R   0.433870 0.068680 0.805760 -0.525265
O29   O     O_R   0.066130 0.568680 0.194240 -0.522435
O30   O     O_R   0.933870 0.568680 0.805760 -0.525266
O31   O     O_R   0.680610 0.992490 0.199570 -0.503065
O32   O     O_R   0.319390 0.992490 0.800430 -0.506886
O33   O     O_R   0.180610 0.492490 0.199570 -0.503069
O34   O     O_R   0.730100 0.564540 0.803940 -0.516182
O35   O     O_R   0.819390 0.492490 0.800430 -0.506884
O36   O     O_R   0.770060 0.065440 0.307230 -0.525823
O37   O     O_R   0.229940 0.065440 0.692770 -0.526501
O38   O     O_R   0.270060 0.565440 0.307230 -0.525824
O39   O     O_R   0.729940 0.565440 0.692770 -0.526502
O40   O     O_R   0.750960 0.274920 0.302300 -0.506803
O41   O     O_R   0.249040 0.274920 0.697700 -0.507403
O42   O     O_R   0.250960 0.774920 0.302300 -0.506804
O43   O     O_R   0.749040 0.774920 0.697700 -0.507403
O44   O     O_R   0.670160 0.372580 0.305320 -0.519269
O45   O     O_R   0.574760 0.239320 0.300850 -0.504900
O46   O     O_R   0.329840 0.372580 0.694680 -0.517379
O47   O     O_R   0.170160 0.872580 0.305320 -0.519266
O48   O     O_R   0.829840 0.872580 0.694680 -0.517376
O49   O     O_3   0.700079 0.737120 0.519024 -0.729730
O50   O     O_3   0.300307 0.737711 0.481133 -0.729565
O51   O     O_3   0.200055 0.237145 0.519028 -0.729732
O52   O     O_3   0.800330 0.237735 0.481129 -0.729569
O53   O     O_R   0.425240 0.239320 0.699150 -0.503742
O54   O     O_R   0.074760 0.739320 0.300850 -0.504899
O55   O     O_R   0.925240 0.739320 0.699150 -0.503743
O56   O     O_R   0.566290 0.069580 0.305400 -0.522421

loop_
_geom_bond_atom_site_label_1
_geom_bond_atom_site_label_2
_ccdc_geom_bond_type
C21   C26   A    
C34   C56   A    
C114  H2    S    
C113  H89   S    
C132  C150  A    
C107  C112  A    
Cr5   O12   S    
C120  C144  S    
Cr6   O11   S    
C136  C140  A    
C117  C133  S    
C79   C87   A    
C48   H49   S    
C135  C139  A    
C89   O15   A    
C32   H60   S    
C86   H43   S    
C72   O7    A    
C97   C124  A    
C132  H82   S    
C95   C99   A    
C94   H69   S    
C75   C122  A    
C29   C33   A    
C126  C143  A    
Cr7   O17   S    
C98   C169  S    
Cr7   O43   S    
C162  C171  A    
C20   H48   S    
Cr9   O24   S    
C68   C90   A    
C128  H77   S    
C25   C60   S    
C107  H87   S    
C44   H37   S    
C81   C86   A    
C83   H40   S    
C115  H3    S    
C116  H4    S    
C72   O38   A    
C3    H16   S    
C80   C83   A    
C42   O43   A    
C136  C149  A    
Cr10  O54   S    
C25   C29   A    
C109  C145  S    
C27   C31   A    
C140  H90   S    
C1    O14   A    
Cr11  O21   S    
C141  H91   S    
C47   C64   A    
C34   H31   S    
C111  O17   A    
C17   C21   A    
Cr8   O44   S    
C120  O30   A    
C38   H35   S    
C100  O20   A    
C19   C23   A    
C70   O5    A    
Cr3   O29   S    
Cr5   O37   S    
C39   O40   A    
C156  C160  A    
C16   C20   A    
C164  C173  A    
Cr8   O22   S    
Cr10  O11   S    
C137  H67   S    
C127  C145  A    
C89   C150  S    
C74   H12   S    
C22   C27   A    
Cr1   O14   S    
C36   C44   A    
C37   C45   A    
C27   H54   S    
C43   C61   A    
C170  C174  A    
C152  C157  A    
C49   C62   A    
C30   H58   S    
Cr9   O19   S    
Cr10  O20   S    
C51   C64   A    
C140  C145  A    
C22   C58   S    
C66   C153  S    
C53   C58   A    
C18   H46   S    
C138  C151  A    
C82   C85   A    
C161  H22   S    
C76   C155  A    
C44   C62   A    
Cr12  O27   S    
C77   H23   S    
C37   H33   S    
C111  C148  S    
Cr1   O1    S    
C165  O31   A    
C77   C82   A    
C49   C53   A    
C134  C151  A    
Cr3   O3    S    
C158  H10   S    
C126  H75   S    
C73   O8    A    
C51   C55   A    
C127  C131  A    
C129  C147  A    
C81   C88   A    
C169  O35   A    
C70   O36   A    
C48   C52   A    
C69   O4    A    
C117  O22   A    
C103  C107  A    
Cr8   O45   S    
C133  C166  A    
C98   C103  A    
C69   O55   A    
C41   O47   A    
C85   C86   A    
C23   C59   S    
Cr4   O8    S    
C67   C154  S    
H93   O49   S    
C167  O32   A    
C50   H51   S    
C162  H24   S    
Cr12  O31   S    
H95   O51   S    
C13   C57   A    
C170  C171  S    
C127  H76   S    
C118  C122  S    
C165  O1    A    
C153  C158  A    
C139  C143  A    
C98   C125  A    
C7    C156  A    
Cr4   O13   S    
C123  H6    S    
C16   H30   S    
C51   H52   S    
C66   O53   A    
C50   C63   A    
C17   H44   S    
C54   C59   A    
C160  H13   S    
C4    C152  A    
C71   O37   A    
C69   C156  S    
Cr5   O15   S    
Cr6   O16   S    
C66   O2    A    
C67   O54   A    
C142  H92   S    
C91   C92   A    
C164  H26   S    
C68   C94   A    
C129  C134  A    
C41   O42   A    
Cr11  O26   S    
C83   C84   A    
C99   H71   S    
C8    C12   A    
C14   H28   S    
Cr1   O36   S    
C23   C28   A    
C37   C59   A    
C109  C114  A    
C38   C60   A    
C114  C123  A    
C71   O6    A    
C26   C30   A    
C116  C125  A    
C119  O25   A    
C1    O18   A    
C112  C116  A    
C65   O45   A    
C46   C87   A    
C167  O12   A    
C111  O21   A    
C105  C109  A    
C96   C123  A    
C18   C22   A    
C120  O26   A    
C142  C147  A    
Cr2   O28   S    
C168  O33   A    
C175  H14   S    
C39   O44   A    
C11   C33   A    
C97   C168  S    
C8    C70   S    
C112  C147  S    
C105  H85   S    
C154  C159  A    
C128  C146  A    
C35   C79   A    
C99   C104  A    
C137  C150  A    
C40   O41   A    
C89   O19   A    
C47   H39   S    
C55   C60   A    
C172  C176  A    
C92   H66   S    
C117  O27   A    
Cr1   O9    S    
C118  O28   A    
Cr2   O6    S    
C168  O23   A    
Cr3   O11   S    
Cr2   O32   S    
Cr12  O5    S    
C26   H53   S    
C6    H21   S    
Cr2   O2    S    
C15   C19   A    
C39   C64   S    
C50   C54   A    
C40   C63   S    
Cr10  O25   S    
Cr6   O38   S    
C160  C164  A    
C75   H1    S    
C3    C7    A    
C46   C92   A    
C20   C25   A    
C126  C130  A    
C52   O49   S    
C35   C166  A    
Cr6   O23   S    
C5    H18   S    
Cr11  O48   S    
C40   O46   A    
C12   C17   A    
Cr1   O40   S    
C15   H29   S    
C97   C102  A    
C130  H80   S    
C95   C121  A    
C159  H11   S    
C53   O50   S    
C4    C174  A    
C96   C101  A    
C5    C175  A    
C41   C62   S    
C95   C165  S    
C121  H5    S    
Cr11  O55   S    
C2    C122  A    
C34   C43   A    
C24   H64   S    
C138  C142  A    
C176  H17   S    
C76   C81   A    
C9    C14   A    
C104  H84   S    
C11   C16   A    
C110  C146  S    
C28   C32   A    
C96   C167  S    
C33   H61   S    
C84   H41   S    
C6    C154  A    
C141  C146  A    
C88   C90   A    
C11   C73   S    
C157  C161  A    
C104  C108  A    
C4    H19   S    
C137  C141  A    
C115  C124  A    
C29   H57   S    
C85   H42   S    
C9    C71   S    
C49   H50   S    
C19   H47   S    
C21   C56   S    
C100  C149  S    
C166  H63   S    
C82   C90   A    
C8    C30   A    
C163  H25   S    
C24   C144  A    
C103  H74   S    
C1    C151  S    
C157  H9    S    
C45   H38   S    
C24   C68   A    
C93   H70   S    
C74   C78   A    
C73   O39   A    
C12   H27   S    
C110  C115  A    
Cr7   O13   S    
C108  C143  S    
C108  C113  A    
Cr7   O39   S    
C74   C133  A    
C93   C94   A    
C14   C18   A    
C106  H86   S    
C36   H32   S    
C2    C46   A    
Cr12  O56   S    
H94   O50   S    
C6    C176  A    
C80   C87   A    
C36   C58   A    
C10   C15   A    
C2    H62   S    
C91   H68   S    
C101  H72   S    
C54   O51   S    
C13   C155  A    
C67   O3    A    
C3    C173  A    
C118  O24   A    
Cr2   O10   S    
C135  H45   S    
Cr3   O7    S    
C28   H55   S    
C100  O16   A    
C75   C80   A    
C42   O48   A    
Cr12  O9    S    
C129  H79   S    
Cr5   O41   S    
C57   C93   A    
C55   O52   S    
C31   H59   S    
H96   O52   S    
C128  C132  A    
C101  C105  A    
C102  H73   S    
C136  H56   S    
C130  C148  A    
Cr7   O34   S    
Cr5   O10   S    
C9    C31   A    
C78   C79   A    
C138  H78   S    
C125  H8    S    
C76   H34   S    
C134  H83   S    
C171  C175  A    
C45   C63   A    
Cr4   O4    S    
C163  C172  A    
C10   C32   A    
Cr8   O9    S    
C131  H81   S    
C13   H65   S    
C119  O29   A    
C113  C121  A    
C42   C61   S    
C38   C47   A    
C161  C170  A    
C169  O34   A    
Cr10  O47   S    
C159  C163  A    
C139  H88   S    
C172  C173  S    
C106  C110  A    
C119  C155  S    
C7    H20   S    
Cr3   O33   S    
Cr9   O46   S    
Cr6   O42   S    
C57   C88   A    
C65   C152  S    
C43   H36   S    
C77   C144  A    
Cr11  O13   S    
C48   C61   A    
Cr4   O30   S    
C5    C153  A    
C124  H7    S    
C174  H15   S    
C102  C106  A    
Cr9   O53   S    
C131  C149  A    
C158  C162  A    
C78   C84   A    
C135  C148  A    
Cr8   O18   S    
C65   O56   A    
Cr9   O10   S    
C52   C56   A    
C10   C72   S    
Cr4   O35   S    
C35   C91   A    
