data_mof_unit_13676.cif
_audit_creation_date              2012-12-11T15:34:21-0500
_audit_creation_method            fapswitch 2.2
_symmetry_space_group_name_H-M    P1
_symmetry_Int_Tables_number       1
_space_group_crystal_system       triclinic
_cell_length_a                    15.036984
_cell_length_b                    15.054898
_cell_length_c                    35.036235
_cell_angle_alpha                 90.280025
_cell_angle_beta                  90.187276
_cell_angle_gamma                 59.925997
_cell_volume                      6863.67794867

loop_
_atom_site_label
_atom_site_type_symbol
_atom_type_description
_atom_site_fract_x
_atom_site_fract_y
_atom_site_fract_z
_atom_type_partial_charge
C1    C     C_R   0.301998 0.608618 0.555528 0.545788
C2    C     C_R   0.677096 0.620041 0.670936 -0.020515
C3    C     C_R   0.256280 0.641678 0.270245 0.041147
C4    C     C_R   0.176740 0.646461 0.293301 -0.001900
C5    C     C_R   0.088060 0.654968 0.276721 -0.092344
C6    C     C_R   0.076739 0.659323 0.237405 -0.159695
C7    C     C_R   0.153408 0.656191 0.214100 -0.008789
C8    C     C_R   0.198892 0.557839 0.356330 0.001350
C9    C     C_R   0.213763 0.557243 0.396212 -0.029825
C10   C     C_R   0.193280 0.728730 0.392835 -0.006100
C11   C     C_R   0.175375 0.729981 0.353756 -0.183241
C12   C     C_R   0.184648 0.643519 0.335137 -0.009205
C13   C     C_R   0.604813 0.591117 0.661226 -0.088613
C14   C     C_R   0.226827 0.636324 0.413278 0.049592
C15   C     C_R   0.734109 0.028698 0.943940 0.544035
C16   C     C_R   0.744634 0.722556 0.945399 0.628335
C17   C     C_R   0.036568 0.734547 0.947872 0.572978
C18   C     C_R   0.722896 0.037331 0.053411 0.531089
C19   C     C_R   0.734096 0.734373 0.054899 0.599456
C20   C     C_R   0.027468 0.744892 0.058023 0.583866
C21   C     C_R   0.580793 0.583526 0.623547 -0.017926
C22   C     C_R   0.707775 0.645032 0.788646 0.387130
C23   C     C_R   0.695866 0.624261 0.712271 0.339613
C24   C     C_R   0.753100 0.578912 0.855673 0.006545
C25   C     C_R   0.753140 0.597965 0.895214 -0.037277
C26   C     C_R   0.651785 0.782691 0.883449 0.247270
C27   C     C_R   0.651075 0.764719 0.844116 -0.014350
C28   C     C_R   0.705519 0.662859 0.830039 -0.027409
C29   C     C_R   0.611120 0.587887 0.554948 0.583085
C30   C     C_R   0.711493 0.700324 0.908396 0.018639
C31   C     C_R   0.715380 0.086944 0.907792 -0.065568
C32   C     C_R   0.616540 0.140296 0.890429 -0.009760
C33   C     C_R   0.608441 0.166792 0.851172 0.035719
C34   C     C_R   0.698024 0.146669 0.830818 0.052170
C35   C     C_R   0.791962 0.108904 0.850224 0.252446
C36   C     C_R   0.800720 0.076684 0.887899 -0.111622
C37   C     C_R   0.642518 0.255488 0.771640 0.290974
C38   C     C_R   0.639420 0.260082 0.731328 -0.147929
C39   C     C_R   0.688219 0.170458 0.709033 0.030567
C40   C     C_R   0.591104 0.299523 0.553637 0.564159
C41   C     C_R   0.744662 0.073643 0.726313 0.285284
C42   C     C_R   0.748875 0.069192 0.766551 -0.092305
C43   C     C_R   0.696825 0.158341 0.788850 0.074152
C44   C     C_R   0.611292 0.159686 0.647134 0.259113
C45   C     C_R   0.585422 0.190757 0.608641 0.008851
C46   C     C_R   0.706898 0.253004 0.609460 -0.120237
C47   C     C_R   0.731655 0.224089 0.647606 -0.024733
C48   C     C_R   0.680080 0.181365 0.667010 0.044798
C49   C     C_R   0.630442 0.242447 0.590170 -0.027200
C50   C     C_R   0.084972 0.698656 0.909894 -0.031715
C51   C     C_R   0.294762 0.612573 0.447424 0.594340
C52   C     C_R   0.146346 0.735586 0.894907 -0.136316
C53   C     C_R   0.176273 0.719622 0.856441 0.040068
C54   C     C_R   0.137623 0.671733 0.831913 -0.000848
C55   C     C_R   0.075849 0.633345 0.846691 0.033298
C56   C     C_R   0.057044 0.639715 0.886342 0.264754
C57   C     C_R   0.220089 0.571474 0.772611 0.206650
C58   C     C_R   0.230162 0.567200 0.732630 -0.074488
C59   C     C_R   0.169166 0.654153 0.710381 -0.002956
C60   C     C_R   0.104038 0.747969 0.728324 -0.134236
C61   C     C_R   0.100510 0.756213 0.768298 0.217988
C62   C     C_R   0.609329 0.592738 0.446159 0.574612
C63   C     C_R   0.155821 0.666845 0.790275 0.012941
C64   C     C_R   0.202330 0.722764 0.651984 -0.111687
C65   C     C_R   0.233130 0.713352 0.614253 -0.088985
C66   C     C_R   0.220994 0.559640 0.607594 -0.124546
C67   C     C_R   0.185718 0.570526 0.645362 0.037042
C68   C     C_R   0.182211 0.650011 0.668499 0.067531
C69   C     C_R   0.247491 0.629178 0.592225 0.037937
C70   C     C_R   0.700088 0.721153 0.092921 0.034993
C71   C     C_R   0.595905 0.772029 0.104457 0.011274
C72   C     C_R   0.571993 0.772535 0.143707 0.032801
C73   C     C_R   0.589395 0.300490 0.444418 0.535108
C74   C     C_R   0.652706 0.717747 0.170493 0.072974
C75   C     C_R   0.756346 0.665835 0.158248 0.006827
C76   C     C_R   0.777799 0.667254 0.119819 -0.163700
C77   C     C_R   0.641399 0.616415 0.225756 0.016300
C78   C     C_R   0.646027 0.602424 0.265966 -0.017094
C79   C     C_R   0.634179 0.683430 0.290379 0.034276
C80   C     C_R   0.613318 0.777988 0.274953 0.257904
C81   C     C_R   0.616186 0.788250 0.235513 -0.038001
C82   C     C_R   0.630407 0.708978 0.210963 0.069438
C83   C     C_R   0.549644 0.732394 0.353031 -0.022430
C84   C     C_R   0.626751 0.610719 0.594157 -0.003530
C85   C     C_R   0.545468 0.720910 0.392278 -0.017698
C86   C     C_R   0.725327 0.583112 0.391269 0.015675
C87   C     C_R   0.730945 0.603329 0.351922 0.012204
C88   C     C_R   0.639385 0.671891 0.332492 0.053323
C89   C     C_R   0.629015 0.635853 0.410700 -0.020296
C90   C     C_R   0.699415 0.091808 0.090670 -0.046433
C91   C     C_R   0.769779 0.118039 0.105591 -0.106877
C92   C     C_R   0.765743 0.146553 0.143884 0.038386
C93   C     C_R   0.692673 0.143457 0.168157 0.048741
C94   C     C_R   0.617443 0.122217 0.153415 0.021212
C95   C     C_R   0.699483 0.641596 0.602880 0.001196
C96   C     C_R   0.617344 0.102029 0.114083 -0.024456
C97   C     C_R   0.626982 0.258448 0.224706 0.192348
C98   C     C_R   0.614334 0.271037 0.264542 0.035679
C99   C     C_R   0.673847 0.185371 0.288340 -0.014465
C100  C     C_R   0.743078 0.089754 0.272635 -0.101543
C101  C     C_R   0.751677 0.075645 0.232994 0.302273
C102  C     C_R   0.694411 0.160885 0.209348 0.064988
C103  C     C_R   0.723405 0.232195 0.349903 0.044659
C104  C     C_R   0.700102 0.260071 0.387980 -0.136804
C105  C     C_R   0.584616 0.190526 0.389928 0.018535
C106  C     C_R   0.725420 0.645785 0.641694 -0.010675
C107  C     C_R   0.597542 0.173572 0.349926 0.050982
C108  C     C_R   0.667597 0.193889 0.330199 0.026399
C109  C     C_R   0.627228 0.245429 0.407687 -0.034640
C110  C     C_R   0.074985 0.715981 0.096163 0.010751
C111  C     C_R   0.133131 0.613258 0.109085 -0.005251
C112  C     C_R   0.159257 0.595382 0.147892 -0.133338
C113  C     C_R   0.130988 0.677194 0.173371 -0.001116
C114  C     C_R   0.077437 0.779191 0.160306 -0.006074
C115  C     C_R   0.050517 0.797119 0.121846 -0.109820
C116  C     C_R   0.243506 0.647456 0.230131 0.280801
Cr1   Cr    Cr6+3 0.421670 0.426920 0.499620 1.096272
Cr2   Cr    Cr6+3 0.427030 0.651190 0.500980 1.081345
Cr3   Cr    Cr6+3 0.651280 0.421870 0.499380 1.070480
Cr4   Cr    Cr6+3 0.910810 0.908010 0.001130 1.046162
Cr5   Cr    Cr6+3 0.682800 0.909890 0.998370 1.089818
Cr6   Cr    Cr6+3 0.908370 0.682300 0.002180 1.106102
H1    H     H_    0.876310 0.038857 0.900897 0.166798
H2    H     H_    0.600187 0.332875 0.716604 0.120593
H3    H     H_    0.792546 0.996675 0.781161 0.155191
H4    H     H_    0.743565 0.290186 0.595415 0.195037
H5    H     H_    0.169480 0.778561 0.913289 0.186962
H6    H     H_    0.284997 0.496211 0.718786 0.129889
H7    H     H_    0.057107 0.815165 0.711114 0.133696
H8    H     H_    0.200060 0.784212 0.668969 0.110038
H9    H     H_    0.252592 0.768569 0.603251 0.148593
H10   H     H_    0.229297 0.495950 0.590342 0.122637
H11   H     H_    0.857729 0.630079 0.111116 0.124265
H12   H     H_    0.609910 0.857726 0.223868 0.157598
H13   H     H_    0.482129 0.789859 0.338094 0.173941
H14   H     H_    0.830288 0.113168 0.087436 0.181341
H15   H     H_    0.567374 0.572093 0.683482 0.178230
H16   H     H_    0.789569 0.026352 0.291531 0.120268
H17   H     H_    0.736754 0.297849 0.401925 0.128868
H18   H     H_    0.005519 0.875839 0.112193 0.187950
H19   H     H_    0.155677 0.798385 0.337351 0.116071
H20   H     H_    0.201985 0.517341 0.158465 0.111191
H21   H     H_    0.027091 0.659140 0.294419 0.160083
H22   H     H_    0.006677 0.668087 0.225043 0.151558
N1    N     N_R   0.676633 0.581304 0.774529 -0.198529
N2    N     N_R   0.671535 0.570696 0.737110 -0.230968
N3    N     N_R   0.727483 0.687806 0.726528 -0.250639
N4    N     N_R   0.734255 0.697297 0.764039 -0.224107
O1    O     O_R   0.502070 0.323090 0.541280 -0.464345
O2    O     O_R   0.520720 0.641670 0.461580 -0.519142
O3    O     O_R   0.674120 0.502090 0.457500 -0.471926
O4    O     O_R   0.640110 0.338380 0.459630 -0.497543
O5    O     O_3   0.499990 0.499990 0.499990 -0.283673
O6    O     O_R   0.017640 0.822070 0.960410 -0.513999
O7    O     O_R   0.822000 0.989470 0.960340 -0.503518
O8    O     O_R   0.666920 0.007430 0.955290 -0.482727
O9    O     O_R   0.694410 0.812480 0.959650 -0.462198
O10   O     O_R   0.831550 0.656950 0.958960 -0.457627
O11   O     O_R   0.998590 0.685540 0.963930 -0.451673
O12   O     O_R   0.338340 0.520690 0.539540 -0.496953
O13   O     O_R   0.008220 0.831200 0.045060 -0.518369
O14   O     O_R   0.813270 0.997930 0.038810 -0.503109
O15   O     O_R   0.657500 0.016560 0.039940 -0.520249
O16   O     O_R   0.685680 0.820940 0.038120 -0.463091
O17   O     O_R   0.822130 0.666070 0.043610 -0.513761
O18   O     O_R   0.989860 0.694000 0.042400 -0.468196
O19   O     O_3   0.833990 0.833400 0.000560 -0.277855
O20   O     O_R   0.324760 0.674070 0.543580 -0.514191
O21   O     O_R   0.522400 0.640310 0.540110 -0.500788
O22   O     O_R   0.675940 0.500630 0.542210 -0.494433
O23   O     O_R   0.641790 0.337020 0.538150 -0.522344
O24   O     O_R   0.500260 0.324550 0.456580 -0.517618
O25   O     O_R   0.336660 0.522040 0.461020 -0.472763
O26   O     O_R   0.322940 0.675540 0.458880 -0.463898
C117  C     C_2   0.753358 0.662540 0.571546 0.302633
H23   H     H_    0.831702 0.646267 0.575375 0.162985
O27   O     O_2   0.710496 0.699345 0.541267 -0.462064
C118  C     C_2   0.808995 0.242239 0.667326 0.245262
H24   H     H_    0.833876 0.214568 0.696119 0.118604
O28   O     O_2   0.846267 0.288258 0.651618 -0.488812
O29   O     O_3   0.599456 0.341427 0.795657 -0.583514
C119  C     C_3   0.520432 0.430741 0.778341 -0.088125
H25   H     H_    0.464434 0.415476 0.763089 0.150540
H26   H     H_    0.553284 0.465155 0.758989 0.145833
H27   H     H_    0.477509 0.488065 0.801011 0.168896
C120  C     C_2   0.506913 0.215127 0.831708 0.338197
H28   H     H_    0.439660 0.275838 0.845845 0.135860
O30   O     O_2   0.497065 0.186005 0.800217 -0.485441
O31   O     O_3   0.800395 0.988323 0.702783 -0.582711
C121  C     C_3   0.814359 0.896380 0.718909 -0.110587
H29   H     H_    0.742091 0.906122 0.731513 0.148452
H30   H     H_    0.877339 0.865894 0.740263 0.155304
H31   H     H_    0.838212 0.837938 0.695979 0.194641
O32   O     O_3   0.562473 0.116640 0.666916 -0.574781
C122  C     C_3   0.604920 0.012373 0.656314 -0.060553
H32   H     H_    0.687527 0.974304 0.648016 0.188159
H33   H     H_    0.560035 0.004708 0.632647 0.135092
H34   H     H_    0.599040 0.969785 0.681007 0.161644
C123  C     C_2   0.509838 0.170269 0.589145 0.262161
H35   H     H_    0.444847 0.176563 0.604872 0.130600
O33   O     O_2   0.522377 0.140897 0.556020 -0.470666
O34   O     O_3   0.878768 0.093785 0.831267 -0.580423
C124  C     C_3   0.884132 0.184350 0.834482 -0.113587
H36   H     H_    0.890444 0.202619 0.864860 0.120053
H37   H     H_    0.816912 0.250353 0.820646 0.164251
H38   H     H_    0.954117 0.172587 0.819504 0.155869
C125  C     C_2   0.512762 0.539759 0.615549 0.220233
H39   H     H_    0.501399 0.521267 0.586728 0.127775
O35   O     O_2   0.469570 0.521856 0.641342 -0.547056
O36   O     O_3   0.000741 0.598355 0.901268 -0.508262
C126  C     C_3   0.070054 0.496638 0.912579 -0.041209
H40   H     H_    0.114232 0.447985 0.887834 0.139692
H41   H     H_    0.025485 0.463176 0.924836 0.144695
H42   H     H_    0.123789 0.494107 0.935052 0.120252
C127  C     C_2   0.152642 0.498356 0.658934 0.215543
H43   H     H_    0.175448 0.427780 0.643259 0.116355
O37   O     O_2   0.096486 0.518284 0.686590 -0.511675
O38   O     O_3   0.274994 0.485494 0.795458 -0.603072
C128  C     C_3   0.267266 0.401390 0.781501 -0.095448
H44   H     H_    0.326976 0.358786 0.759521 0.159262
H45   H     H_    0.189480 0.424425 0.770005 0.150778
H46   H     H_    0.281362 0.348116 0.805473 0.170621
C129  C     C_2   0.245351 0.755989 0.841934 0.261312
H47   H     H_    0.272327 0.741224 0.812658 0.104576
O39   O     O_2   0.273739 0.802538 0.862625 -0.518342
O40   O     O_3   0.038871 0.849216 0.786704 -0.559614
C130  C     C_3   0.055838 0.926608 0.771812 -0.089017
H48   H     H_    0.000849 0.967509 0.748262 0.141346
H49   H     H_    0.136400 0.897187 0.762024 0.094117
H50   H     H_    0.042059 0.982879 0.794713 0.203559
C131  C     C_2   0.798109 0.510559 0.922544 0.242376
H51   H     H_    0.862763 0.436883 0.914327 0.094758
O41   O     O_2   0.761326 0.519506 0.954323 -0.473144
C132  C     C_2   0.025436 0.593116 0.820276 0.277148
H52   H     H_    0.032124 0.596392 0.789609 0.124213
O42   O     O_2   0.973705 0.557476 0.832122 -0.440344
C133  C     C_2   0.512052 0.824649 0.075878 0.257603
H53   H     H_    0.441268 0.893731 0.083533 0.132589
O43   O     O_2   0.520109 0.789669 0.043737 -0.483735
C134  C     C_2   0.830469 0.556456 0.330688 0.219440
H54   H     H_    0.831713 0.550045 0.299851 0.147511
O44   O     O_2   0.911977 0.529049 0.347001 -0.507454
C135  C     C_2   0.662970 0.503957 0.282474 0.208721
H55   H     H_    0.711044 0.431600 0.268100 0.113964
O45   O     O_2   0.623090 0.502413 0.312571 -0.491358
C136  C     C_2   0.647753 0.535383 0.199273 0.265979
H56   H     H_    0.686904 0.455413 0.207392 0.126190
O46   O     O_2   0.607005 0.557468 0.167885 -0.477712
C137  C     C_2   0.462449 0.827248 0.155980 0.231857
H57   H     H_    0.403661 0.829187 0.137405 0.099346
O47   O     O_2   0.435994 0.872968 0.186397 -0.514744
O48   O     O_3   0.597967 0.857555 0.299097 -0.584293
C138  C     C_3   0.498868 0.942562 0.292815 -0.092527
H58   H     H_    0.439509 0.920168 0.287512 0.138129
H59   H     H_    0.500250 0.989483 0.268713 0.173020
H60   H     H_    0.474808 0.990874 0.318893 0.206373
C139  C     C_2   0.804738 0.673367 0.651647 0.208512
H61   H     H_    0.861426 0.630871 0.673515 0.176949
O49   O     O_2   0.805954 0.745258 0.636191 -0.535979
C140  C     C_2   0.453952 0.800790 0.413112 0.285524
H62   H     H_    0.458804 0.814667 0.443237 0.154173
O50   O     O_2   0.372841 0.854823 0.396559 -0.520227
C141  C     C_2   0.846484 0.610867 0.184259 0.199722
H63   H     H_    0.921939 0.560017 0.172267 0.118948
O51   O     O_2   0.839513 0.623418 0.218787 -0.553059
C142  C     C_2   0.819406 0.506425 0.411549 0.322169
H64   H     H_    0.873075 0.434750 0.397650 0.128768
O52   O     O_2   0.839024 0.524159 0.443578 -0.429104
C143  C     C_2   0.532777 0.089115 0.098009 0.227548
H65   H     H_    0.491929 0.131675 0.072762 0.128805
O53   O     O_2   0.510326 0.028965 0.112138 -0.520063
C144  C     C_2   0.531056 0.145589 0.327490 0.310459
H66   H     H_    0.561134 0.097224 0.302378 0.103947
O54   O     O_2   0.440398 0.181602 0.335507 -0.439451
C145  C     C_2   0.537785 0.373652 0.279917 0.295549
H67   H     H_    0.507784 0.440292 0.261609 0.185055
O55   O     O_2   0.505225 0.385425 0.312503 -0.478075
O56   O     O_3   0.579236 0.342611 0.200686 -0.589902
C146  C     C_3   0.478675 0.364015 0.191825 -0.100195
H68   H     H_    0.429681 0.447729 0.187626 0.212676
H69   H     H_    0.442020 0.341272 0.214456 0.126492
H70   H     H_    0.478900 0.327200 0.164342 0.113064
C147  C     C_2   0.839589 0.177181 0.158446 0.328613
H71   H     H_    0.838293 0.198481 0.188144 0.133360
O57   O     O_2   0.902809 0.179602 0.137335 -0.468929
O58   O     O_3   0.817792 0.981296 0.216071 -0.548519
C148  C     C_3   0.811726 0.900306 0.233690 -0.092058
H72   H     H_    0.731834 0.922391 0.242075 0.161254
H73   H     H_    0.864007 0.871397 0.258727 0.116241
H74   H     H_    0.838062 0.836098 0.212951 0.155352
C149  C     C_2   0.800839 0.252414 0.331603 0.256506
H75   H     H_    0.829021 0.296267 0.346937 0.108052
O59   O     O_2   0.835792 0.219461 0.299951 -0.511325
C150  C     C_2   0.535853 0.124755 0.178535 0.257485
H76   H     H_    0.457868 0.156786 0.167975 0.142247
O60   O     O_2   0.554879 0.089387 0.210730 -0.544200
C151  C     C_2   0.536501 0.143527 0.413696 0.282703
H77   H     H_    0.522065 0.160916 0.443791 0.153337
O61   O     O_2   0.519172 0.078247 0.400776 -0.451026
C152  C     C_2   0.170565 0.522679 0.083532 0.232599
H78   H     H_    0.194583 0.447703 0.095612 0.097991
O62   O     O_2   0.179719 0.529204 0.049216 -0.490004
C153  C     C_2   0.804515 0.470820 0.841619 0.267199
H79   H     H_    0.795987 0.413431 0.857180 0.064182
O63   O     O_2   0.859379 0.444212 0.813371 -0.440142
C154  C     C_2   0.351346 0.630443 0.288385 0.259707
H80   H     H_    0.368046 0.609033 0.318162 0.156241
O64   O     O_2   0.412171 0.645547 0.270657 -0.487931
O65   O     O_3   0.322168 0.635831 0.206497 -0.554847
C155  C     C_3   0.310282 0.732737 0.198043 -0.031598
H81   H     H_    0.388019 0.722797 0.195191 0.210761
H82   H     H_    0.269450 0.792177 0.220561 0.128832
H83   H     H_    0.270585 0.760332 0.170240 0.126998
C156  C     C_2   0.199472 0.468830 0.337208 0.273455
H84   H     H_    0.166771 0.427897 0.351367 0.139168
O66   O     O_2   0.238705 0.438651 0.305867 -0.452550
C157  C     C_2   0.216642 0.473534 0.419572 0.265779
H85   H     H_    0.253252 0.395408 0.408810 0.117275
O67   O     O_2   0.175558 0.492115 0.450884 -0.451287
C158  C     C_2   0.048116 0.867581 0.186578 0.254033
H86   H     H_    0.060792 0.856052 0.217077 0.115034
O68   O     O_2   0.010192 0.954931 0.174392 -0.462774
C159  C     C_2   0.173171 0.826318 0.410891 0.294375
H87   H     H_    0.174834 0.885287 0.393720 0.146076
O69   O     O_2   0.148114 0.844730 0.444383 -0.454961
O70   O     O_3   0.598708 0.882435 0.897133 -0.489504
C160  C     C_3   0.500650 0.903022 0.909125 -0.024637
H88   H     H_    0.506049 0.849131 0.931877 0.117395
H89   H     H_    0.454696 0.900206 0.884667 0.141664
H90   H     H_    0.458938 0.981608 0.921324 0.187039
C161  C     C_2   0.590864 0.852859 0.817856 0.270496
H91   H     H_    0.559638 0.841739 0.791487 0.108376
O71   O     O_2   0.576398 0.938550 0.825082 -0.409711
C162  C     C_2   0.523343 0.167023 0.913520 0.250012
H92   H     H_    0.520442 0.188830 0.943260 0.114636
O72   O     O_2   0.451004 0.161700 0.900228 -0.504413

loop_
_geom_bond_atom_site_label_1
_geom_bond_atom_site_label_2
_ccdc_geom_bond_type
C129  H47   S    
C87   C88   A    
C114  C115  A    
C81   H12   S    
C39   C41   A    
C124  H37   S    
C92   C147  S    
C5    C6    A    
C26   O70   S    
C5    H21   S    
C54   C63   S    
Cr2   O5    S    
C34   C35   A    
C61   C63   A    
C95   C117  S    
C110  C111  A    
C46   C47   A    
C149  H75   S    
C144  H66   S    
C50   C52   A    
C148  H73   S    
O70   C160  S    
C4    C12   S    
C122  H34   S    
C83   C88   A    
C59   C60   A    
Cr3   O5    S    
C132  O42   D    
C52   H5    S    
N1    N2    A    
C75   C141  S    
O34   C124  S    
C16   O10   A    
C159  H87   S    
C117  O27   D    
C156  H84   S    
O29   C119  S    
Cr4   O7    S    
C119  H27   S    
C75   C76   A    
C37   C38   A    
C18   O15   A    
C103  C149  S    
C130  H48   S    
C37   O29   S    
C154  H80   S    
Cr6   O10   S    
C13   C21   A    
C10   C159  S    
C94   C96   A    
C131  H51   S    
C22   N4    A    
C143  O53   D    
Cr1   O5    S    
C86   C142  S    
C152  H78   S    
Cr1   O25   S    
C141  O51   D    
Cr6   O19   S    
C62   O2    A    
C107  C144  S    
C4    C5    A    
C76   H11   S    
C6    C7    A    
C53   C129  S    
C78   C135  S    
C41   O31   S    
C117  H23   S    
C32   C33   A    
Cr1   O24   S    
C77   C82   A    
C146  H69   S    
C122  H32   S    
C111  C152  S    
C31   C36   A    
Cr1   O1    S    
C19   O17   A    
C29   O21   A    
C120  H28   S    
C40   O23   A    
C44   C48   A    
Cr3   O23   S    
O48   C138  S    
C58   H6    S    
C121  H29   S    
Cr5   O8    S    
N3    N4    A    
C97   C98   A    
C53   C54   A    
C99   C108  S    
C105  C107  A    
C137  H57   S    
C64   C68   A    
C149  O59   D    
C3    C116  A    
C38   C39   A    
C57   O38   S    
C16   C30   S    
C40   C49   S    
Cr5   O15   S    
C157  O67   D    
C139  H61   S    
C119  H25   S    
C24   C153  S    
C91   H14   S    
C99   C100  A    
C40   O1    A    
C107  C108  A    
C33   C120  S    
C72   C137  S    
C15   O7    A    
Cr4   O14   S    
C116  O65   S    
C66   C67   A    
Cr6   O17   S    
C133  H53   S    
C151  O61   D    
C57   C63   A    
C23   N2    A    
C29   C84   S    
C10   C14   A    
C91   C92   A    
C160  H89   S    
C162  H92   S    
Cr2   O21   S    
C96   C143  S    
C2    C106  A    
C50   C56   A    
C159  O69   D    
C84   C95   A    
C158  O68   D    
C7    C116  A    
C51   O26   A    
C95   C106  A    
C31   C32   A    
C8    C12   A    
Cr4   O6    S    
C73   O24   A    
C11   H19   S    
C142  O52   D    
C20   C110  S    
C130  H49   S    
C64   H8    S    
C26   C30   A    
C73   O4    A    
C55   C132  S    
C6    H22   S    
C3    C4    A    
C52   C53   A    
Cr3   O4    S    
C105  C109  A    
C54   C55   A    
C34   C43   S    
C24   C28   A    
C140  H62   S    
C60   H7    S    
C138  H60   S    
C129  O39   D    
C15   C31   S    
C45   C123  S    
C61   O40   S    
C71   C72   A    
C128  H46   S    
C57   C58   A    
C27   C161  S    
C134  H54   S    
C17   O11   A    
C119  H26   S    
C10   C11   A    
C123  H35   S    
C126  H42   S    
Cr2   O26   S    
C144  O54   D    
O40   C130  S    
C80   O48   S    
C147  H71   S    
C125  O35   D    
O56   C146  S    
C38   H2    S    
C122  H33   S    
C55   C56   A    
C101  C102  A    
C41   C42   A    
C145  H67   S    
C141  H63   S    
C77   C78   A    
C46   C49   A    
C26   C27   A    
C47   C118  S    
C150  H76   S    
C156  O66   D    
C135  H55   S    
C98   C99   A    
C62   C89   S    
C77   C136  S    
Cr2   O2    S    
C121  H31   S    
C136  H56   S    
C111  C112  A    
C106  C139  S    
C154  O64   D    
Cr6   O11   S    
C70   C71   A    
C97   C102  A    
O32   C122  S    
C22   C28   S    
C143  H65   S    
Cr1   O12   S    
C74   C82   S    
C17   O6    A    
C79   C88   S    
C152  O62   D    
C118  H24   S    
C155  H82   S    
Cr5   O19   S    
C124  H38   S    
C62   O3    A    
C32   C162  S    
C67   C68   A    
C18   C90   S    
C36   H1    S    
C72   C74   A    
C128  H44   S    
C85   C89   A    
C86   C87   A    
C1    O20   A    
C58   C59   A    
C23   N3    A    
C1    C69   S    
C125  H39   S    
C60   C61   A    
C37   C43   A    
C9    C14   A    
C56   O36   S    
C14   C51   S    
C21   C84   A    
C45   C49   A    
C148  H74   S    
O58   C148  S    
C131  O41   D    
C90   C96   A    
C100  H16   S    
C9    C157  S    
C83   C85   A    
C114  C158  S    
C132  H52   S    
C120  O30   D    
C44   C45   A    
C113  C114  A    
C25   C30   A    
C155  H81   S    
C25   C131  S    
C121  H30   S    
C16   O9    A    
C1    O12   A    
C86   C89   A    
C93   C102  S    
C118  O28   D    
C35   O34   S    
C73   C109  S    
C20   O18   A    
C104  H17   S    
C64   C65   A    
C94   C150  S    
C146  H68   S    
C160  H88   S    
C18   O14   A    
C21   C125  S    
C90   C91   A    
C138  H58   S    
C65   C69   A    
Cr2   O20   S    
C92   C93   A    
C3    C154  S    
C101  O58   S    
C127  H43   S    
O31   C121  S    
C98   C145  S    
C115  H18   S    
C103  C104  A    
C123  O33   D    
C110  C115  A    
Cr4   O19   S    
C39   C48   S    
C155  H83   S    
C124  H36   S    
C93   C94   A    
Cr6   O18   S    
C147  O57   D    
C151  H77   S    
C67   C127  S    
C161  H91   S    
C81   C82   A    
O65   C155  S    
C71   C133  S    
C145  O55   D    
C127  O37   D    
C104  C109  A    
C162  O72   D    
C66   C69   A    
C146  H70   S    
C112  H20   S    
C51   O25   A    
C2    C13   A    
C100  C101  A    
C42   H3    S    
C153  H79   S    
C8    C9    A    
C135  O45   D    
C103  C108  A    
C29   O22   A    
C83   H13   S    
Cr5   O9    S    
C105  C151  S    
C112  C113  A    
C65   H9    S    
C66   H10   S    
Cr3   O3    S    
C136  O46   D    
C137  O47   D    
C74   C75   A    
C24   C25   A    
C140  O50   D    
C138  H59   S    
C78   C79   A    
Cr5   O16   S    
C139  O49   D    
C13   H15   S    
C97   O56   S    
C126  H40   S    
C59   C68   S    
C128  H45   S    
C47   C48   A    
C22   N1    A    
C134  O44   D    
C33   C34   A    
C161  O71   D    
C15   O8    A    
Cr4   O13   S    
C126  H41   S    
C133  O43   D    
C148  H72   S    
C70   C76   A    
C2    C23   S    
C153  O63   D    
C87   C134  S    
C8    C156  S    
C46   H4    S    
C80   C81   A    
C17   C50   S    
C160  H90   S    
C11   C12   A    
C44   O32   S    
C158  H86   S    
C7    C113  S    
C150  O60   D    
O38   C128  S    
C20   O13   A    
C19   O16   A    
C85   C140  S    
C157  H85   S    
C142  H64   S    
Cr3   O22   S    
C79   C80   A    
C130  H50   S    
O36   C126  S    
C42   C43   A    
C27   C28   A    
C19   C70   S    
C35   C36   A    
