data_mof_unit_66290.cif
_audit_creation_date              2012-12-10T17:37:14-0500
_audit_creation_method            fapswitch 2.2
_symmetry_space_group_name_H-M    P1
_symmetry_Int_Tables_number       1
_space_group_crystal_system       triclinic
_cell_length_a                    45.243293
_cell_length_b                    31.985662
_cell_length_c                    31.996608
_cell_angle_alpha                 89.998249
_cell_angle_beta                  135.032614
_cell_angle_gamma                 89.999894
_cell_volume                      32722.8515873

loop_
_atom_site_label
_atom_site_type_symbol
_atom_type_description
_atom_site_fract_x
_atom_site_fract_y
_atom_site_fract_z
_atom_type_partial_charge
C1    C     C_R   0.580301 0.000001 0.580300 0.823736
C2    C     C_3   0.999958 0.208766 0.499967 0.136374
C3    C     C_R   0.580298 0.500000 0.080388 0.820530
C4    C     C_3   0.022021 0.033053 0.785949 -0.219702
C5    C     C_3   0.017735 0.964466 0.781697 -0.220479
C6    C     C_3   0.522495 0.532714 0.786422 -0.219489
C7    C     C_3   0.517218 0.464206 0.781186 -0.220507
C8    C     C_3   0.482890 0.535834 0.718868 -0.197982
C9    C     C_3   0.477595 0.467145 0.713615 -0.195888
C10   C     C_3   0.982369 0.035604 0.718352 -0.197762
C11   C     C_3   0.978068 0.966837 0.714086 -0.196005
C12   C     C_1   0.499948 0.499972 0.625201 -0.156493
C13   C     C_3   0.464843 0.235903 0.446084 -0.187279
C14   C     C_1   0.999950 0.999982 0.625199 -0.156459
C15   C     C_1   0.000093 0.000004 0.874975 -0.127085
C16   C     C_1   0.500099 0.500001 0.874980 -0.127118
C17   C     C_3   0.539566 0.496925 0.775543 -0.133015
C18   C     C_3   0.039603 0.997514 0.775579 -0.133045
C19   C     C_3   0.499941 0.499956 0.708740 0.105556
C20   C     C_3   0.999940 0.999975 0.708740 0.105506
C21   C     C_3   0.000223 0.000002 0.791545 0.063625
C22   C     C_3   0.500224 0.499990 0.791547 0.063694
C23   C     C_3   0.533575 0.235936 0.512733 -0.136690
C24   C     C_3   0.464577 0.764101 0.446325 -0.186960
C25   C     C_3   0.533273 0.764064 0.511963 -0.137648
C26   C     C_3   0.033185 0.735937 0.511725 -0.136750
C27   C     C_3   0.033307 0.264064 0.512050 -0.137635
C28   C     C_3   0.961249 0.002422 0.724994 0.499531
C29   C     C_3   0.461287 0.502968 0.725030 0.499308
C30   C     C_1   0.499943 0.499957 0.662895 -0.011156
C31   C     C_1   0.999945 0.999974 0.662893 -0.011115
C32   C     C_1   0.000201 0.000004 0.837392 0.030245
C33   C     C_1   0.500207 0.499998 0.837397 0.030190
C34   C     C_3   0.013485 0.963295 0.250000 0.335933
C35   C     C_3   0.964504 0.735901 0.446395 -0.187173
C36   C     C_3   0.025283 0.029845 0.261838 0.412284
C37   C     C_3   0.515335 0.464004 0.251850 0.334889
C38   C     C_3   0.523816 0.531055 0.260364 0.411078
C39   C     C_3   0.476038 0.468157 0.240379 -0.263443
C40   C     C_3   0.484720 0.536775 0.249098 -0.217566
C41   C     C_3   0.974420 0.969395 0.238728 -0.266452
C42   C     C_3   0.986491 0.037502 0.250842 -0.219160
C43   C     C_1   0.500069 0.499968 0.375039 -0.158543
C44   C     C_1   0.000042 0.999973 0.375006 -0.158825
C45   C     C_1   0.000146 0.999994 0.125269 -0.066423
C46   C     C_3   0.964607 0.264099 0.446295 -0.186872
C47   C     C_1   0.500134 0.499997 0.125263 -0.066476
C48   C     C_3   0.539832 0.494960 0.304250 -0.265733
C49   C     C_3   0.039462 0.993001 0.303896 -0.265153
C50   C     C_3   0.500182 0.499949 0.291734 -0.021774
C51   C     C_3   0.000090 0.999956 0.291629 -0.021373
C52   C     C_3   0.000207 0.999982 0.208799 -0.132935
C53   C     C_3   0.500227 0.499991 0.208829 -0.135227
C54   C     C_1   0.499963 0.125169 0.499963 -0.163164
C55   C     C_1   0.499961 0.874831 0.499966 -0.163517
C56   C     C_1   0.999964 0.625169 0.499965 -0.163139
C57   C     C_3   0.498620 0.263888 0.459032 -0.157226
C58   C     C_1   0.999961 0.374831 0.499965 -0.163490
C59   C     C_3   0.961730 0.006781 0.198158 0.328301
C60   C     C_3   0.461487 0.504871 0.197961 0.334087
C61   C     C_1   0.500125 0.499951 0.337440 0.058023
C62   C     C_1   0.000057 0.999958 0.337364 0.056629
C63   C     C_1   0.000202 0.999991 0.162964 0.184884
C64   C     C_1   0.500194 0.499997 0.162965 0.185456
C65   C     C_1   0.499998 0.374810 0.500007 -0.151382
C66   C     C_1   0.499996 0.625190 0.500007 -0.149771
C67   C     C_1   0.999998 0.874810 0.500005 -0.151400
C68   C     C_3   0.498057 0.736117 0.458499 -0.157274
C69   C     C_1   0.999997 0.125190 0.500006 -0.149861
C70   C     C_3   0.501192 0.235891 0.540952 -0.189002
C71   C     C_3   0.501751 0.764105 0.541498 -0.188997
C72   C     C_3   0.001926 0.735892 0.541657 -0.189005
C73   C     C_3   0.001686 0.264106 0.541435 -0.189023
C74   C     C_3   0.499858 0.208713 0.499914 0.165681
C75   C     C_3   0.499855 0.791286 0.499920 0.165755
C76   C     C_3   0.999861 0.708714 0.499919 0.165662
C77   C     C_3   0.999854 0.291286 0.499918 0.165750
C78   C     C_1   0.430052 0.279003 0.473400 0.235585
C79   C     C_3   0.997890 0.763886 0.458332 -0.157165
C80   C     C_1   0.430669 0.720993 0.475008 0.236571
C81   C     C_1   0.930863 0.779002 0.475490 0.235613
C82   C     C_1   0.930596 0.220993 0.474820 0.236590
C83   C     C_3   0.998120 0.236116 0.458556 -0.157306
C84   C     C_1   0.499923 0.162868 0.499939 -0.049383
C85   C     C_R   0.080301 0.500000 0.580300 0.823712
C86   C     C_1   0.499920 0.837132 0.499944 -0.049851
C87   C     C_1   0.999925 0.662868 0.499942 -0.049356
C88   C     C_1   0.999920 0.337132 0.499943 -0.049833
C89   C     C_1   0.500002 0.337113 0.499993 -0.048072
C90   C     C_1   0.499999 0.662887 0.499995 -0.047347
C91   C     C_1   0.000001 0.837113 0.499990 -0.048055
C92   C     C_1   1.000000 0.162887 0.499993 -0.047408
C93   C     C_3   0.763955 0.965815 0.783910 -0.146399
C94   C     C_3   0.763955 0.034410 0.783532 -0.144620
C95   C     C_3   0.263955 0.465508 0.783377 -0.146507
C96   C     C_3   0.466765 0.263636 0.487345 0.016564
C97   C     C_3   0.263954 0.534100 0.784065 -0.144604
C98   C     C_3   0.736035 0.965599 0.716395 -0.155817
C99   C     C_3   0.736034 0.034194 0.716017 -0.155583
C100  C     C_3   0.236035 0.465907 0.715864 -0.155720
C101  C     C_3   0.236034 0.534500 0.716552 -0.155689
C102  C     C_1   0.625220 0.000003 0.625204 -0.161987
C103  C     C_1   0.125220 0.500002 0.625204 -0.161997
C104  C     C_1   0.874766 0.000002 0.874784 -0.130181
C105  C     C_1   0.374766 0.500001 0.874785 -0.130264
C106  C     C_R   0.499994 0.080285 0.499997 0.823966
C107  C     C_3   0.467058 0.736364 0.488113 0.016146
C108  C     C_R   0.499994 0.919715 0.499997 0.823879
C109  C     C_R   0.999994 0.580285 0.499997 0.823952
C110  C     C_R   0.999994 0.419716 0.499997 0.823875
C111  C     C_3   0.736052 0.000222 0.775609 -0.144432
C112  C     C_3   0.236052 0.499606 0.775608 -0.144457
C113  C     C_3   0.708830 0.000006 0.708794 0.169210
C114  C     C_3   0.208830 0.500005 0.708795 0.169253
C115  C     C_3   0.791159 0.000004 0.791134 0.169468
C116  C     C_3   0.291159 0.500003 0.791136 0.169508
C117  C     C_3   0.763939 0.999787 0.724319 -0.142974
C118  C     C_3   0.967152 0.763635 0.488340 0.016579
C119  C     C_3   0.263939 0.500402 0.724322 -0.142958
C120  C     C_1   0.662945 0.000004 0.662917 -0.055251
C121  C     C_1   0.162946 0.500004 0.662917 -0.055287
C122  C     C_1   0.837042 0.000002 0.837038 -0.034338
C123  C     C_1   0.337042 0.500002 0.837039 -0.034414
C124  C     C_3   0.236056 0.034388 0.255829 -0.144826
C125  C     C_3   0.236057 0.965792 0.256135 -0.144611
C126  C     C_3   0.736056 0.534387 0.255827 -0.144954
C127  C     C_3   0.736057 0.465791 0.256135 -0.144510
C128  C     C_3   0.263930 0.034212 0.244099 -0.155616
C129  C     C_3   0.967023 0.236363 0.488021 0.016143
C130  C     C_3   0.263931 0.965617 0.244406 -0.155065
C131  C     C_3   0.763930 0.534211 0.244098 -0.155552
C132  C     C_3   0.763931 0.465616 0.244406 -0.155063
C133  C     C_1   0.374769 0.000001 0.374803 -0.162324
C134  C     C_1   0.874769 0.500000 0.374803 -0.162280
C135  C     C_1   0.125218 0.000000 0.125340 -0.145718
C136  C     C_1   0.625218 0.500000 0.125339 -0.145716
C137  C     C_R   0.419689 0.000000 0.419700 0.824269
C138  C     C_R   0.919689 0.500000 0.419700 0.824269
C139  C     C_3   0.263985 0.000177 0.303692 -0.145705
C140  C     C_3   0.499961 0.291234 0.499966 0.135957
C141  C     C_3   0.763985 0.500177 0.303691 -0.145735
C142  C     C_3   0.291159 0.000001 0.291262 0.174440
C143  C     C_3   0.791159 0.500001 0.291261 0.174428
C144  C     C_3   0.208828 0.000003 0.208971 0.174377
C145  C     C_3   0.708828 0.500002 0.208971 0.174334
C146  C     C_3   0.236004 0.999827 0.196545 -0.157614
C147  C     C_3   0.736004 0.499826 0.196545 -0.157577
C148  C     C_1   0.337044 0.000001 0.337109 -0.057804
C149  C     C_1   0.837044 0.500001 0.337109 -0.057758
C150  C     C_1   0.162943 0.000001 0.163084 -0.049058
C151  C     C_3   0.499959 0.708767 0.499970 0.136373
C152  C     C_1   0.662943 0.500001 0.163084 -0.049035
C153  C     C_R   0.499966 0.499992 0.580329 0.820861
C154  C     C_R   0.999968 0.999995 0.580331 0.820931
C155  C     C_R   0.499991 0.419691 0.500027 0.822785
C156  C     C_R   0.499991 0.580309 0.500027 0.824725
C157  C     C_R   0.999991 0.919691 0.500027 0.822858
C158  C     C_R   0.999990 0.080309 0.500027 0.824690
C159  C     C_R   0.500024 0.499991 0.419811 0.819617
C160  C     C_R   0.000020 0.999992 0.419806 0.819635
C161  C     C_R   0.000070 0.999999 0.080388 0.817568
C162  C     C_3   0.999961 0.791234 0.499963 0.135931
C163  C     C_R   0.500062 0.499999 0.080383 0.817479
C164  C     C_3   0.534871 0.263875 0.553648 -0.165545
C165  C     C_3   0.535132 0.736122 0.553419 -0.165367
C166  C     C_3   0.035213 0.763876 0.553342 -0.165631
C167  C     C_3   0.035101 0.236123 0.553444 -0.165366
C168  C     C_R   0.919683 0.000001 0.919727 0.833978
C169  C     C_R   0.419683 0.500001 0.919727 0.833961
C170  C     C_R   0.999975 0.000001 0.919737 0.815021
C171  C     C_R   0.499978 0.500001 0.919740 0.815030
C172  C     C_R   0.080298 1.000000 0.080388 0.820483
Cu1   Cu    Cu3+1 0.500020 0.000000 0.541470 0.981884
Cu2   Cu    Cu3+1 0.999990 0.041450 0.000050 1.023378
Cu3   Cu    Cu3+1 0.499990 0.458550 0.000050 1.023430
Cu4   Cu    Cu3+1 0.499990 0.541450 0.000050 1.023502
Cu5   Cu    Cu3+1 0.000020 0.500000 0.541470 0.981901
Cu6   Cu    Cu3+1 0.499960 0.000000 0.458530 0.981130
Cu7   Cu    Cu3+1 0.999960 0.500000 0.458530 0.981242
Cu8   Cu    Cu3+1 0.541430 0.500000 0.541530 0.984422
Cu9   Cu    Cu3+1 0.041430 0.000000 0.541530 0.984501
Cu10  Cu    Cu3+1 0.458550 0.500000 0.458570 1.008030
Cu11  Cu    Cu3+1 0.958550 0.000000 0.458570 1.007659
Cu12  Cu    Cu3+1 0.999990 0.958550 0.000050 1.023746
H1    H     H_    0.561261 0.223966 0.523256 0.142501
H2    H     H_    0.775871 0.437325 0.240181 0.141475
H3    H     H_    0.224117 0.062677 0.260058 0.149838
H4    H     H_    0.224118 0.937647 0.260615 0.150185
H5    H     H_    0.724117 0.562677 0.260056 0.149800
H6    H     H_    0.724118 0.437647 0.260615 0.150348
H7    H     H_    0.224022 0.999683 0.151996 0.138696
H8    H     H_    0.724022 0.499681 0.151995 0.138729
H9    H     H_    0.275969 0.000321 0.348242 0.148541
H10   H     H_    0.775968 0.500322 0.348241 0.148552
H11   H     H_    0.468380 0.565105 0.692627 0.170864
H12   H     H_    0.560711 0.776036 0.521850 0.141766
H13   H     H_    0.458786 0.440412 0.683122 0.172297
H14   H     H_    0.967439 0.064659 0.691696 0.171055
H15   H     H_    0.959648 0.939843 0.683979 0.172262
H16   H     H_    0.040165 0.060169 0.815923 0.162339
H17   H     H_    0.032374 0.935322 0.808200 0.163021
H18   H     H_    0.541034 0.559571 0.816785 0.162254
H19   H     H_    0.531441 0.434850 0.807273 0.163030
H20   H     H_    0.572042 0.494420 0.796029 0.148040
H21   H     H_    0.072109 0.995480 0.796095 0.148042
H22   H     H_    0.456238 0.442086 0.232100 0.186305
H23   H     H_    0.060549 0.723966 0.521417 0.142546
H24   H     H_    0.472040 0.566944 0.247980 0.197294
H25   H     H_    0.953345 0.944336 0.229152 0.186201
H26   H     H_    0.975314 0.068263 0.251207 0.196992
H27   H     H_    0.563678 0.275753 0.597766 0.146575
H28   H     H_    0.564150 0.724243 0.597340 0.146491
H29   H     H_    0.064295 0.775756 0.597200 0.146591
H30   H     H_    0.064097 0.224242 0.597389 0.146448
H31   H     H_    0.572311 0.490853 0.348299 0.186488
H32   H     H_    0.071690 0.987288 0.347723 0.186329
H33   H     H_    0.497678 0.275775 0.425509 0.152532
H34   H     H_    0.060775 0.276038 0.522007 0.141743
H35   H     H_    0.496654 0.724230 0.424530 0.151411
H36   H     H_    0.996346 0.775774 0.424229 0.152639
H37   H     H_    0.996770 0.224231 0.424639 0.151367
H38   H     H_    0.435937 0.224084 0.401996 0.145463
H39   H     H_    0.435460 0.775921 0.402437 0.145619
H40   H     H_    0.935324 0.724081 0.402569 0.145491
H41   H     H_    0.935512 0.275922 0.402382 0.145656
H42   H     H_    0.501974 0.224065 0.574348 0.146040
H43   H     H_    0.502995 0.775930 0.575342 0.146063
H44   H     H_    0.003312 0.724066 0.575637 0.146033
H45   H     H_    0.724110 0.000401 0.796237 0.150613
H46   H     H_    0.002877 0.275931 0.575227 0.146052
H47   H     H_    0.724073 0.937292 0.688303 0.144924
H48   H     H_    0.724074 0.062323 0.687615 0.145463
H49   H     H_    0.224074 0.437855 0.687335 0.144973
H50   H     H_    0.224074 0.562881 0.688588 0.145360
H51   H     H_    0.775915 0.937687 0.812312 0.150682
H52   H     H_    0.775916 0.062717 0.811624 0.152101
H53   H     H_    0.275915 0.437128 0.811341 0.150573
H54   H     H_    0.275915 0.562153 0.812595 0.152068
H55   H     H_    0.775886 0.999609 0.703697 0.156758
H56   H     H_    0.224109 0.499278 0.796234 0.150554
H57   H     H_    0.275887 0.500730 0.703701 0.156775
H58   H     H_    0.848224 0.013028 0.601615 0.381964
H59   H     H_    0.348574 0.516036 0.601862 0.381942
H60   H     H_    0.063374 0.897737 0.338738 0.340373
H61   H     H_    0.094753 0.119508 0.341935 0.379785
H62   H     H_    0.568726 0.401024 0.343901 0.340674
H63   H     H_    0.588262 0.624375 0.335379 0.379771
H64   H     H_    0.878033 0.993919 0.151002 0.344263
H65   H     H_    0.376077 0.486815 0.147302 0.347492
H66   H     H_    0.275870 0.062359 0.239623 0.141164
H67   H     H_    0.275871 0.937326 0.240180 0.141423
H68   H     H_    0.775870 0.562358 0.239622 0.141180
N1    N     N_1   0.401096 0.291145 0.462407 -0.257471
N2    N     N_1   0.401970 0.708850 0.464674 -0.255454
N3    N     N_1   0.902241 0.791144 0.465357 -0.257383
N4    N     N_1   0.901870 0.208844 0.464414 -0.255430
O1    O     O_R   0.560480 0.000000 0.595480 -0.578020
O2    O     O_R   0.965020 0.000000 0.404580 -0.575130
O3    O     O_R   0.000030 0.965010 0.060550 -0.563199
O4    O     O_R   0.000030 0.034990 0.060550 -0.564237
O5    O     O_R   0.500030 0.465010 0.060550 -0.563225
O6    O     O_R   0.500030 0.534990 0.060550 -0.564212
O7    O     O_R   0.939530 0.965000 0.939580 -0.574212
O8    O     O_R   0.939530 0.035000 0.939580 -0.573097
O9    O     O_R   0.439530 0.465000 0.939580 -0.574289
O10   O     O_R   0.439530 0.535000 0.939580 -0.573132
O11   O     O_R   0.999960 0.964990 0.939550 -0.578717
O12   O     O_R   0.060480 0.500000 0.595480 -0.578038
O13   O     O_R   0.999960 0.035010 0.939550 -0.577019
O14   O     O_R   0.499960 0.464990 0.939550 -0.578949
O15   O     O_R   0.499960 0.535010 0.939550 -0.576767
O16   O     O_R   0.060450 0.965000 0.060520 -0.576610
O17   O     O_R   0.060450 0.035000 0.060520 -0.577170
O18   O     O_R   0.560450 0.465000 0.060520 -0.576513
O19   O     O_R   0.560450 0.535000 0.060520 -0.577184
O20   O     O_R   0.560430 0.000000 0.525440 -0.577547
O21   O     O_R   0.060430 0.500000 0.525440 -0.577538
O22   O     O_R   0.500020 0.060460 0.535020 -0.577913
O23   O     O_R   0.465000 0.439530 0.465010 -0.573216
O24   O     O_R   0.500020 0.939540 0.535020 -0.577862
O25   O     O_R   0.000020 0.560460 0.535020 -0.577911
O26   O     O_R   0.000020 0.439540 0.535020 -0.577874
O27   O     O_R   0.499970 0.060450 0.464980 -0.577792
O28   O     O_R   0.499970 0.939550 0.464980 -0.578143
O29   O     O_R   0.999970 0.560450 0.464980 -0.577770
O30   O     O_R   0.999970 0.439550 0.464980 -0.578124
O31   O     O_R   0.439560 0.000000 0.474560 -0.577213
O32   O     O_R   0.939560 0.500000 0.474560 -0.577206
O33   O     O_R   0.439510 0.000000 0.404520 -0.578933
O34   O     O_R   0.465000 0.560470 0.465010 -0.572306
O35   O     O_R   0.939510 0.500000 0.404520 -0.578903
O36   O     O_R   0.534970 0.500000 0.595520 -0.583147
O37   O     O_R   0.034970 0.000000 0.595520 -0.583172
O38   O     O_R   0.464980 0.500000 0.525470 -0.568959
O39   O     O_R   0.964980 0.000000 0.525470 -0.568915
O40   O     O_R   0.534980 0.439530 0.535070 -0.580678
O41   O     O_R   0.534980 0.560470 0.535070 -0.579757
O42   O     O_R   0.034980 0.939530 0.535070 -0.580711
O43   O     O_R   0.034980 0.060470 0.535070 -0.579733
O44   O     O_2   0.899201 0.968123 0.707810 -0.281911
O45   O     O_R   0.965000 0.939530 0.465010 -0.573221
O46   O     O_2   0.904002 0.044763 0.711994 -0.289267
O47   O     O_3   0.876130 0.007479 0.617306 -0.523586
O48   O     O_2   0.398733 0.469614 0.707372 -0.281008
O49   O     O_2   0.404655 0.546173 0.712602 -0.290129
O50   O     O_3   0.376238 0.509232 0.617398 -0.523578
O51   O     O_2   0.997953 0.894218 0.189620 -0.219022
O52   O     O_2   0.070228 0.919752 0.262564 -0.259390
O53   O     O_3   0.041909 0.882574 0.300876 -0.486173
O54   O     O_2   0.093346 0.051048 0.285702 -0.264729
O55   O     O_2   0.034332 0.100225 0.226323 -0.266400
O56   O     O_R   0.965000 0.060470 0.465010 -0.572351
O57   O     O_3   0.079850 0.095255 0.339220 -0.519362
O58   O     O_2   0.503189 0.394186 0.194960 -0.219044
O59   O     O_2   0.574079 0.423347 0.266277 -0.259933
O60   O     O_3   0.547880 0.384849 0.306828 -0.486208
O61   O     O_2   0.590820 0.555649 0.283305 -0.263779
O62   O     O_2   0.529317 0.601673 0.221108 -0.266656
O63   O     O_3   0.574824 0.599289 0.334143 -0.519593
O64   O     O_2   0.909607 0.055425 0.101913 -0.224264
O65   O     O_2   0.896225 0.979989 0.087205 -0.266514
O66   O     O_3   0.877275 0.021287 0.135773 -0.484752
O67   O     O_R   0.535000 0.500000 0.474630 -0.575562
O68   O     O_2   0.406922 0.550960 0.099457 -0.224630
O69   O     O_2   0.397308 0.474966 0.088407 -0.270136
O70   O     O_3   0.376520 0.515168 0.135292 -0.487687
O71   O     O_R   0.035000 0.000000 0.474630 -0.575291
O72   O     O_R   0.465020 0.500000 0.404580 -0.574730
S1    S     S_3+6 0.908867 0.005775 0.691112 0.004729
S2    S     S_3+6 0.408954 0.507092 0.691193 0.004793
S3    S     S_3+6 0.031400 0.913920 0.249528 0.053281
S4    S     S_3+6 0.059049 0.070062 0.277262 0.030272
S5    S     S_3+6 0.535673 0.415582 0.253787 0.053051
S6    S     S_3+6 0.555496 0.572920 0.273676 0.030575
S7    S     S_3+6 0.910072 0.015988 0.127879 0.047511
S8    S     S_3+6 0.409416 0.511556 0.127389 0.045776

loop_
_geom_bond_atom_site_label_1
_geom_bond_atom_site_label_2
_ccdc_geom_bond_type
C40   H24   S    
C133  C137  S    
C22   C29   S    
C130  C146  S    
C36   C42   S    
C13   H38   S    
C46   C129  S    
C172  O17   A    
C15   C32   T    
C65   C89   T    
C80   C107  S    
C169  O10   A    
C80   N2    T    
C125  H4    S    
C139  C142  S    
C137  O31   A    
C125  C144  S    
Cu6   O20   S    
C94   C111  S    
C105  C123  T    
C45   C161  S    
Cu11  O45   S    
C7    H19   S    
C9    C19   S    
C77   C88   S    
C78   C96   S    
C49   C51   S    
C70   C74   S    
C106  O22   A    
C69   C92   T    
C85   C103  S    
Cu4   O10   S    
C4    C18   S    
C161  O3    A    
C48   C50   S    
Cu6   O33   S    
C159  O67   A    
C2    C83   S    
C136  C152  T    
Cu8   Cu10  S    
Cu2   O13   S    
Cu9   Cu11  S    
C35   C76   S    
C11   C20   S    
C127  H6    S    
O70   S8    S    
Cu2   Cu12  S    
C47   C64   T    
C97   C112  S    
H62   O60   S    
C5    C18   S    
C57   C140  S    
Cu1   O1    S    
C138  O35   A    
C113  C120  S    
C109  O25   A    
C75   C86   S    
Cu3   Cu4   S    
Cu1   O31   S    
C163  O5    A    
C111  C113  S    
C24   C107  S    
C135  C172  S    
C119  H57   S    
O47   S1    S    
C105  C169  S    
C127  C145  S    
O54   S4    D    
O55   S4    D    
Cu4   O6    S    
C21   C28   S    
C160  O71   A    
C85   O21   A    
C103  C121  T    
C131  C143  S    
C43   C61   T    
C3    O18   A    
Cu1   O22   S    
C118  C162  S    
C36   S4    S    
C170  O11   A    
C58   C110  S    
C72   C166  S    
C70   H42   S    
C52   C63   S    
C58   C88   T    
C46   C77   S    
C94   C115  S    
C7    C22   S    
C126  C141  S    
C155  O40   A    
C55   C86   T    
C68   C151  S    
Cu8   O67   S    
C39   C60   S    
C53   C64   S    
O44   S1    D    
C172  O16   A    
C83   H37   S    
C143  C149  S    
C5    C21   S    
C117  H55   S    
C27   H34   S    
C72   C118  S    
C101  H50   S    
C73   C77   S    
C19   C30   S    
C37   S5    S    
C41   C51   S    
C139  H9    S    
O68   S8    D    
C7    C17   S    
C38   C40   S    
C125  C139  S    
C40   C60   S    
C116  C123  S    
C17   H20   S    
C124  C139  S    
C14   C31   T    
O59   S5    D    
C112  C114  S    
C130  H67   S    
O66   S7    S    
C38   C53   S    
Cu8   O36   S    
C8    C29   S    
O57   S4    S    
Cu9   O37   S    
O51   S3    D    
C43   C159  S    
Cu2   O4    S    
C104  C122  T    
C153  O36   A    
C2    C129  S    
C8    H11   S    
C3    C136  S    
C127  C141  S    
C155  O23   A    
C112  H56   S    
Cu8   O41   S    
Cu11  O56   S    
C91   C162  S    
C131  C147  S    
O61   S6    D    
C38   C48   S    
C36   C52   S    
Cu1   O24   S    
C107  C151  S    
Cu11  O2    S    
C48   H31   S    
C14   C154  S    
C51   C62   S    
C126  C145  S    
C9    H13   S    
O60   S5    S    
C8    C19   S    
Cu9   O43   S    
C13   C96   S    
O48   S2    D    
C156  O41   A    
C100  C114  S    
Cu6   O28   S    
C151  C165  S    
C134  C149  T    
Cu7   O29   S    
C46   C83   S    
C15   C170  S    
C70   C96   S    
C99   C117  S    
C95   C116  S    
C89   C140  S    
C156  O34   A    
C67   C157  S    
C100  C119  S    
C81   N3    T    
C82   C129  S    
C168  O8    A    
C76   C87   S    
C25   H12   S    
H63   O63   S    
C111  H45   S    
O64   S7    D    
C146  H7    S    
C23   C74   S    
Cu4   O19   S    
C56   C109  S    
C23   C164  S    
C24   H39   S    
C23   C57   S    
C6    C17   S    
C34   C49   S    
C132  C147  S    
C74   C84   S    
C108  O28   A    
C42   C59   S    
C96   C140  S    
C165  H28   S    
C3    O19   A    
C110  O26   A    
C153  O38   A    
C140  C164  S    
C135  C150  T    
C169  O9    A    
C55   C108  S    
C65   C155  S    
C35   H40   S    
Cu3   O5    S    
C66   C156  S    
C16   C171  S    
C128  C146  S    
Cu1   Cu6   S    
C28   S1    S    
C35   C79   S    
C46   H41   S    
C130  C142  S    
H65   O70   S    
C145  C152  S    
C166  H29   S    
Cu5   O26   S    
C4    H16   S    
C71   C165  S    
C50   C61   S    
O69   S8    D    
H64   O66   S    
Cu4   O15   S    
O65   S7    D    
C71   C107  S    
C26   H23   S    
Cu11  O39   S    
C73   C167  S    
O52   S3    D    
C54   C84   T    
C66   C90   T    
C34   C41   S    
C18   H21   S    
C5    C11   S    
C95   C112  S    
C141  C143  S    
C6    C22   S    
C39   H22   S    
C7    C9    S    
C27   C77   S    
C1    O20   A    
C162  C166  S    
C114  C121  S    
C115  C117  S    
C42   H26   S    
C124  C128  S    
C47   C163  S    
C132  C143  S    
Cu8   O40   S    
C101  C114  S    
C78   N1    T    
C85   O12   A    
C82   N4    T    
C100  H49   S    
O53   S3    S    
C25   C68   S    
C71   H43   S    
Cu10  O38   S    
C145  C147  S    
C1    O1    A    
C73   C129  S    
C154  O39   A    
H59   O50   S    
C54   C106  S    
Cu12  O3    S    
C68   H35   S    
C144  C146  S    
C23   H1    S    
C95   C100  S    
C98   C113  S    
C6    C8    S    
C25   C165  S    
C81   C118  S    
C128  H66   S    
C25   C75   S    
Cu12  O16   S    
Cu6   O27   S    
C170  O13   A    
C67   C91   T    
C97   C116  S    
C137  O33   A    
Cu3   O14   S    
C93   C111  S    
C161  O4    A    
H58   O47   S    
C44   C160  S    
C79   C162  S    
C102  C120  T    
C10   C28   S    
C12   C30   T    
O62   S6    D    
C90   C151  S    
C99   C113  S    
C24   C75   S    
Cu10  O23   S    
C34   S3    S    
C34   C52   S    
C26   C79   S    
C27   C83   S    
C37   C39   S    
C5    H17   S    
C79   H36   S    
C57   H33   S    
C11   C28   S    
C40   C50   S    
C163  O6    A    
C11   H15   S    
C24   C68   S    
C98   H47   S    
C13   C57   S    
C13   C74   S    
C72   H44   S    
C38   S6    S    
C1    C102  S    
O46   S1    D    
C36   C49   S    
O63   S6    S    
C154  O37   A    
C171  O15   A    
C12   C153  S    
C72   C76   S    
H60   O53   S    
Cu3   O9    S    
C99   H48   S    
C93   H51   S    
C97   H54   S    
C49   H32   S    
Cu9   O42   S    
C126  C131  S    
C6    H18   S    
O50   S2    S    
C95   H53   S    
Cu2   O17   S    
C164  H27   S    
C138  O32   A    
Cu12  O7    S    
Cu10  O72   S    
C106  O27   A    
C93   C115  S    
C127  C132  S    
C60   S8    S    
O58   S5    D    
C125  C130  S    
C110  O30   A    
C144  C150  S    
Cu7   O35   S    
C157  O42   A    
C9    C29   S    
C42   C51   S    
C109  O29   A    
C115  C122  S    
C10   H14   S    
C160  O2    A    
C73   H46   S    
C21   C32   S    
C101  C119  S    
C142  C148  S    
C41   C59   S    
Cu5   O12   S    
C132  H2    S    
C56   C87   T    
C44   C62   T    
C45   C63   T    
C126  H5    S    
C52   C59   S    
C16   C33   T    
C104  C168  S    
C26   C76   S    
C147  H8    S    
C53   C60   S    
C69   C158  S    
C133  C148  T    
Cu10  O34   S    
C37   C48   S    
C2    C92   S    
Cu5   O25   S    
C4    C10   S    
C171  O14   A    
C131  H68   S    
C98   C117  S    
Cu12  O11   S    
C22   C33   S    
C26   C166  S    
C158  O56   A    
C157  O45   A    
C35   C118  S    
C70   C164  S    
C134  C138  S    
C124  H3    S    
Cu5   O32   S    
Cu7   O30   S    
C116  C119  S    
Cu3   O18   S    
C37   C53   S    
C41   H25   S    
H61   O57   S    
C71   C75   S    
C4    C21   S    
C94   H52   S    
C10   C20   S    
C94   C99   S    
C93   C98   S    
C159  O72   A    
C17   C19   S    
Cu5   Cu7   S    
C18   C20   S    
C141  H10   S    
C168  O7    A    
C158  O43   A    
Cu2   O8    S    
Cu9   O71   S    
C39   C50   S    
Cu7   O21   S    
C59   S7    S    
O49   S2    D    
C124  C144  S    
C29   S2    S    
C167  H30   S    
C108  O24   A    
C128  C142  S    
C2    C167  S    
C97   C101  S    
C27   C167  S    
C20   C31   S    
