data_mof_unit_30847.cif
_audit_creation_date              2012-12-10T17:18:19-0500
_audit_creation_method            fapswitch 2.2
_symmetry_space_group_name_H-M    P1
_symmetry_Int_Tables_number       1
_space_group_crystal_system       triclinic
_cell_length_a                    10.477638
_cell_length_b                    10.652977
_cell_length_c                    14.954497
_cell_angle_alpha                 92.828817
_cell_angle_beta                  79.246728
_cell_angle_gamma                 95.473996
_cell_volume                      1631.55175536

loop_
_atom_site_label
_atom_site_type_symbol
_atom_type_description
_atom_site_fract_x
_atom_site_fract_y
_atom_site_fract_z
_atom_type_partial_charge
Br1   Br    Br    0.640601 0.744300 0.246336 -0.460235
Br2   Br    Br    0.352614 0.258867 0.755368 -0.520646
Br3   Br    Br    0.248630 0.055079 0.500815 -0.468356
Br4   Br    Br    0.757260 0.941733 0.458431 -0.441193
C1    C     C_R   0.554993 0.732926 0.497827 0.883390
C2    C     C_2   0.072131 0.488513 0.493438 0.296194
C3    C     C_R   0.497843 0.500970 0.672390 0.931530
C4    C     C_R   0.502124 0.499081 0.327685 0.953640
C5    C     C_R   0.449129 0.388253 0.190098 0.062803
C6    C     C_R   0.551473 0.611788 0.810017 0.078504
C7    C     C_R   0.506603 0.494972 0.231640 -0.122386
C8    C     C_R   0.493190 0.505381 0.768572 -0.112302
C9    C     C_R   0.564448 0.600931 0.182964 0.153001
C10   C     C_R   0.433665 0.400268 0.817640 0.146094
C11   C     C_R   0.563175 0.602781 0.089917 0.052560
C12   C     C_R   0.444730 0.267407 0.508425 0.860467
C13   C     C_R   0.435860 0.398060 0.910535 0.057190
C14   C     C_R   0.501843 0.498686 0.046900 0.006587
C15   C     C_R   0.497908 0.501819 0.953404 0.002983
C16   C     C_R   0.444380 0.391514 0.097031 0.119209
C17   C     C_R   0.555752 0.608789 0.903197 0.116633
C18   C     C_R   0.620624 0.707146 0.039105 -0.145746
C19   C     C_R   0.378576 0.293616 0.961348 -0.145825
C20   C     C_3   0.394643 0.271171 0.243902 -0.851474
C21   C     C_3   0.606750 0.728542 0.756118 -0.886363
C22   C     C_3   0.121677 0.385173 0.427118 -0.799675
C23   C     C_R   0.617117 0.710141 0.947405 -0.204778
C24   C     C_3   0.878219 0.614791 0.572970 -0.805672
C25   C     C_3   0.132501 0.635476 0.616133 -0.585537
C26   C     C_3   0.867983 0.366049 0.383052 -0.573802
C27   C     C_R   0.382881 0.290241 0.052882 -0.205185
C28   C     C_2   0.585279 0.867731 0.508772 0.127258
C29   C     C_2   0.413256 0.134048 0.523707 0.153481
C30   C     C_2   0.489678 0.935497 0.551947 -0.204880
C31   C     C_2   0.503325 0.070939 0.550503 -0.121818
C32   C     C_2   0.927884 0.511724 0.506439 0.298057
H1    H     H_    0.669248 0.788082 0.069091 0.199984
H2    H     H_    0.559679 0.812387 0.789017 0.251302
H3    H     H_    0.713727 0.743417 0.753435 0.248902
H4    H     H_    0.589631 0.723760 0.685212 0.214963
H5    H     H_    0.115786 0.406159 0.356571 0.209897
H6    H     H_    0.223055 0.373038 0.420884 0.294144
H7    H     H_    0.074044 0.292385 0.450636 0.243771
H8    H     H_    0.884209 0.593541 0.643446 0.209043
H9    H     H_    0.925527 0.707753 0.549615 0.242006
H10   H     H_    0.776835 0.626813 0.579220 0.290569
H11   H     H_    0.226051 0.664461 0.638395 0.239561
H12   H     H_    0.329784 0.212707 0.931467 0.200680
H13   H     H_    0.100392 0.725927 0.599682 0.210079
H14   H     H_    0.071591 0.586030 0.674829 0.194308
H15   H     H_    0.774552 0.336998 0.360665 0.250158
H16   H     H_    0.928683 0.416809 0.324874 0.193991
H17   H     H_    0.900729 0.275414 0.398496 0.212562
H18   H     H_    0.663834 0.793145 0.911990 0.169814
H19   H     H_    0.336487 0.207090 0.088253 0.171096
H20   H     H_    0.594976 0.118764 0.563126 0.202029
H21   H     H_    0.394154 0.890741 0.580623 0.199970
H22   H     H_    0.442009 0.187650 0.210727 0.254874
H23   H     H_    0.411969 0.275815 0.314803 0.226710
H24   H     H_    0.287663 0.255820 0.246766 0.248442
N1    N     N_2   0.842700 0.448880 0.462930 -0.070577
N2    N     N_2   0.157300 0.551120 0.537070 -0.063290
O1    O     O_R   0.431060 0.692470 0.507460 -0.617495
O2    O     O_R   0.568940 0.307530 0.492540 -0.626676
O3    O     O_R   0.651120 0.659650 0.483670 -0.584294
O4    O     O_R   0.348880 0.340350 0.516330 -0.585034
O5    O     O_R   0.389960 0.516440 0.644050 -0.601310
O6    O     O_R   0.610040 0.483560 0.355950 -0.596417
O7    O     O_R   0.610030 0.483620 0.620260 -0.625521
O8    O     O_R   0.389970 0.516380 0.379740 -0.615078
Zn1   Zn    Zn3+2 0.353060 0.521920 0.515880 0.984056
Zn2   Zn    Zn3+2 0.646940 0.478080 0.484120 0.979072

loop_
_geom_bond_atom_site_label_1
_geom_bond_atom_site_label_2
_ccdc_geom_bond_type
C3    O7    A    
O7    Zn2   S    
C26   H15   S    
C5    C20   S    
O8    Zn1   S    
C12   O2    A    
C21   H2    S    
C30   H21   S    
O3    Zn2   S    
C5    C7    A    
C11   C14   A    
C4    O8    A    
O4    Zn1   S    
C20   H24   S    
O6    Zn2   S    
C1    C28   S    
C27   H19   S    
C2    N2    D    
C1    O3    A    
C9    C11   A    
C17   C23   A    
C23   H18   S    
N2    Zn1   S    
C6    C17   A    
C12   C29   S    
C2    C22   S    
C21   H3    S    
C7    C9    A    
C10   C13   A    
C24   H10   S    
C13   C19   A    
C6    C8    A    
C25   H11   S    
C4    C7    S    
C6    C21   S    
N1    Zn2   S    
C8    C10   A    
C29   C31   D    
C2    C32   S    
C22   H7    S    
C4    O6    A    
C14   C16   A    
C25   H14   S    
O2    Zn2   S    
C21   H4    S    
C18   C23   A    
Br2   C10   S    
C26   H17   S    
C3    C8    S    
C19   C27   A    
O5    Zn1   S    
C12   O4    A    
Br3   C29   S    
C3    O5    A    
Br4   C28   S    
C13   C15   A    
C1    O1    A    
C24   C32   S    
Br1   C9    S    
C22   H6    S    
C20   H22   S    
C30   C31   S    
C26   N1    S    
C24   H9    S    
C26   H16   S    
C25   N2    S    
C14   C15   A    
C25   H13   S    
C19   H12   S    
C5    C16   A    
C15   C17   A    
C31   H20   S    
C18   H1    S    
C24   H8    S    
C11   C18   A    
C20   H23   S    
C32   N1    D    
C22   H5    S    
O1    Zn1   S    
C16   C27   A    
C28   C30   D    
