data_mof_unit_39929.cif
_audit_creation_date              2012-12-10T20:45:33-0500
_audit_creation_method            fapswitch 2.2
_symmetry_space_group_name_H-M    P1
_symmetry_Int_Tables_number       1
_space_group_crystal_system       triclinic
_cell_length_a                    10.838727
_cell_length_b                    10.717741
_cell_length_c                    9.918835
_cell_angle_alpha                 88.60894
_cell_angle_beta                  92.150401
_cell_angle_gamma                 91.741736
_cell_volume                      1150.58583106

loop_
_atom_site_label
_atom_site_type_symbol
_atom_type_description
_atom_site_fract_x
_atom_site_fract_y
_atom_site_fract_z
_atom_type_partial_charge
C1    C     C_R   0.506863 0.259904 0.500796 0.876349
C2    C     C_R   0.098182 0.417069 0.966202 -0.270784
C3    C     C_R   0.926814 0.465921 0.391394 -0.224821
C4    C     C_R   0.872082 0.501875 0.508137 -0.097621
C5    C     C_R   0.944599 0.541437 0.621015 -0.028091
C6    C     C_R   0.071781 0.544275 0.611540 -0.254636
C7    C     C_R   0.126866 0.506787 0.493948 -0.085809
C8    C     C_R   0.052865 0.470516 0.380959 0.040023
C9    C     C_R   0.905138 0.714246 0.774044 -0.157246
C10   C     C_R   0.870437 0.759940 0.897123 -0.127895
C11   C     C_R   0.825314 0.678175 0.996208 -0.133021
C12   C     C_R   0.259816 0.501786 0.497421 0.863715
C13   C     C_R   0.811872 0.550740 0.971511 -0.132139
C14   C     C_R   0.844361 0.502969 0.847133 0.009313
C15   C     C_R   0.893646 0.586093 0.747768 0.048733
C16   C     C_R   0.565851 0.062206 0.615361 0.118112
C17   C     C_R   0.534042 0.129246 0.498339 -0.186472
C18   C     C_R   0.535036 0.068355 0.374414 -0.188417
C19   C     C_R   0.534484 0.939147 0.373082 -0.178282
C20   C     C_R   0.537385 0.871533 0.495792 -0.111059
C21   C     C_R   0.570064 0.934107 0.614163 0.026675
C22   C     C_3   0.519676 0.919866 0.751585 -0.522551
C23   C     C_R   0.508255 0.740054 0.498800 0.888831
C24   C     C_3   0.508583 0.059407 0.748570 0.481310
C25   C     C_R   0.488794 0.390835 0.074344 0.128531
C26   C     C_R   0.520995 0.606873 0.069060 0.612747
C27   C     C_R   0.520587 0.606514 0.926140 -0.249519
C28   C     C_R   0.487943 0.390716 0.931604 0.326127
C29   C     C_3   0.376785 0.305877 0.928905 -0.457235
C30   C     C_3   0.380423 0.304417 0.080981 -0.464411
C31   C     C_R   0.739779 0.501900 0.502926 0.861714
C32   C     C_R   0.134051 0.531569 0.022067 -0.241263
C33   C     C_R   0.132021 0.546085 0.161473 -0.095829
C34   C     C_R   0.095983 0.445167 0.245586 0.035473
C35   C     C_R   0.064883 0.328938 0.188589 -0.293840
C36   C     C_R   0.066046 0.315112 0.049224 0.718134
H1    H     H_    0.096363 0.406529 0.858120 0.149426
H2    H     H_    0.800247 0.713601 0.092385 0.186048
H3    H     H_    0.776412 0.489374 0.050266 0.159124
H4    H     H_    0.525687 0.118516 0.279224 0.187218
H5    H     H_    0.520451 0.893858 0.277462 0.242921
H6    H     H_    0.428656 0.869199 0.753679 0.171674
H7    H     H_    0.591151 0.888170 0.826911 0.242435
H8    H     H_    0.411163 0.088112 0.739800 0.034457
H9    H     H_    0.159312 0.610025 0.957036 0.171651
H10   H     H_    0.537902 0.691984 0.871186 0.188369
H11   H     H_    0.297716 0.350729 0.877142 0.200505
H12   H     H_    0.393048 0.213020 0.893212 0.239552
H13   H     H_    0.302695 0.349028 0.126881 0.221660
H14   H     H_    0.403236 0.212008 0.125787 0.213101
H15   H     H_    0.151264 0.637487 0.202972 0.154169
H16   H     H_    0.033051 0.251422 0.251620 0.172132
H17   H     H_    0.870521 0.436617 0.304281 0.177127
H18   H     H_    0.128042 0.576935 0.697010 0.165082
H19   H     H_    0.942978 0.778720 0.699460 0.148841
H20   H     H_    0.880210 0.858779 0.916411 0.186244
N1    N     N_R   0.499160 0.499140 0.142800 -0.169906
N2    N     N_R   0.499160 0.499180 0.857150 -0.157317
O1    O     O_R   0.500020 0.316790 0.614690 -0.599065
O2    O     O_R   0.500000 0.316760 0.385350 -0.621307
O3    O     O_R   0.316770 0.500030 0.614670 -0.628335
O4    O     O_R   0.316750 0.499990 0.385330 -0.616317
O5    O     O_R   0.500000 0.683240 0.614650 -0.630529
O6    O     O_R   0.499980 0.683210 0.385310 -0.555669
O7    O     O_R   0.683250 0.500010 0.614670 -0.625416
O8    O     O_R   0.683230 0.499970 0.385330 -0.615692
Zn1   Zn    Zn3+2 0.500010 0.500020 0.653130 0.970075
Zn2   Zn    Zn3+2 0.499990 0.499980 0.346870 0.997613
C37   C     C_2   0.829202 0.366836 0.823779 0.489784
H21   H     H_    0.860078 0.327157 0.731812 0.066547
O9    O     O_2   0.781807 0.297007 0.907423 -0.493301
F1    F     F_    0.584407 0.116588 0.845590 -0.615207
F2    F     F_    0.543901 0.715924 0.131794 -0.687106
F3    F     F_    0.034101 0.203522 0.994422 -0.655433

loop_
_geom_bond_atom_site_label_1
_geom_bond_atom_site_label_2
_ccdc_geom_bond_type
C31   O8    A    
O8    Zn2   S    
C16   C21   A    
C11   C13   A    
C32   H9    S    
C35   C36   A    
C7    C8    A    
C25   C28   A    
C26   C27   A    
C29   H11   S    
O6    Zn2   S    
C28   C29   S    
C18   C19   A    
C1    O1    A    
C5    C6    A    
C26   F2    S    
C2    C32   A    
C34   C35   A    
C37   O9    D    
C18   H4    S    
O1    Zn1   S    
C19   C20   A    
C16   C17   A    
O7    Zn1   S    
C9    H19   S    
C10   H20   S    
C9    C10   A    
C23   O5    A    
C30   H14   S    
C16   C24   S    
C21   C22   S    
C25   N1    A    
C6    H18   S    
C33   C34   A    
C7    C12   S    
O5    Zn1   S    
C13   H3    S    
C29   H12   S    
C3    C8    A    
C1    O2    A    
C11   H2    S    
C29   C30   S    
C12   O4    A    
O3    Zn1   S    
C22   H7    S    
C20   C23   S    
C17   C18   A    
C8    C34   S    
C36   F3    S    
C27   H10   S    
C23   O6    A    
C30   H13   S    
C24   H8    S    
C14   C37   S    
C22   C24   S    
N1    Zn2   S    
C3    C4    A    
C24   F1    S    
C2    C36   A    
C25   C30   S    
C31   O7    A    
C4    C5    A    
C27   N2    A    
C6    C7    A    
C28   N2    A    
C33   H15   S    
C1    C17   S    
O4    Zn2   S    
C32   C33   A    
C9    C15   A    
C12   O3    A    
C3    H17   S    
C2    H1    S    
C22   H6    S    
C37   H21   S    
C26   N1    A    
C5    C15   S    
C4    C31   S    
C10   C11   A    
N2    Zn1   S    
C20   C21   A    
O2    Zn2   S    
C35   H16   S    
C14   C15   A    
C13   C14   A    
C19   H5    S    
