data_mof_unit_60691.cif
_audit_creation_date              2012-12-10T18:18:43-0500
_audit_creation_method            fapswitch 2.2
_symmetry_space_group_name_H-M    P1
_symmetry_Int_Tables_number       1
_space_group_crystal_system       triclinic
_cell_length_a                    32.234911
_cell_length_b                    32.234579
_cell_length_c                    55.703115
_cell_angle_alpha                 90.0001
_cell_angle_beta                  89.999679
_cell_angle_gamma                 89.99981
_cell_volume                      57879.925064

loop_
_atom_site_label
_atom_site_type_symbol
_atom_type_description
_atom_site_fract_x
_atom_site_fract_y
_atom_site_fract_z
_atom_type_partial_charge
C1    C     C_R   0.079578 0.500000 0.499999 0.854805
C2    C     C_R   0.500000 0.079577 0.499999 0.855424
C3    C     C_R   0.920422 0.500000 0.499999 0.854853
C4    C     C_R   0.500000 0.920423 0.499999 0.855475
C5    C     C_R   0.579578 1.000000 0.999999 0.854750
C6    C     C_R   0.000000 0.579577 0.999999 0.855599
C7    C     C_R   0.420422 0.000000 0.999999 0.854799
C8    C     C_R   0.000000 0.420422 0.999999 0.855453
C9    C     C_R   0.500000 0.579511 0.500000 0.820402
C10   C     C_R   0.420489 0.500000 0.500000 0.820438
C11   C     C_R   0.500000 0.420489 0.500000 0.820447
C12   C     C_R   0.579511 0.500000 0.500000 0.820396
C13   C     C_R   0.000000 0.079511 0.000000 0.820403
C14   C     C_R   0.920489 1.000000 0.000000 0.820370
C15   C     C_R   0.000000 0.920489 1.000000 0.820274
C16   C     C_R   0.079511 0.000000 1.000000 0.820331
C17   C     C_R   0.029048 0.475508 0.389310 0.407823
C18   C     C_R   0.523955 0.029494 0.389329 0.408123
C19   C     C_R   0.970953 0.524493 0.389310 0.407834
C20   C     C_R   0.476044 0.970505 0.389330 0.408134
C21   C     C_R   0.028787 0.524797 0.610702 0.407641
C22   C     C_R   0.524497 0.970956 0.610691 0.407832
C23   C     C_R   0.971214 0.475203 0.610702 0.407652
C24   C     C_R   0.475504 0.029046 0.610691 0.407818
C25   C     C_R   0.529133 0.975610 0.889313 0.407870
C26   C     C_R   0.024097 0.529377 0.889324 0.408099
C27   C     C_R   0.470867 0.024393 0.889314 0.407886
C28   C     C_R   0.975904 0.470620 0.889324 0.408068
C29   C     C_R   0.528670 0.024931 0.110707 0.407546
C30   C     C_R   0.024403 0.470876 0.110687 0.407903
C31   C     C_R   0.471329 0.975068 0.110707 0.407564
C32   C     C_R   0.975596 0.529122 0.110687 0.407931
C33   C     C_R   0.028879 0.475502 0.414576 0.309268
C34   C     C_R   0.523965 0.029320 0.414595 0.309174
C35   C     C_R   0.971121 0.524498 0.414576 0.309334
C36   C     C_R   0.476035 0.970679 0.414595 0.309239
C37   C     C_R   0.028620 0.524801 0.585435 0.309326
C38   C     C_R   0.524502 0.971125 0.585424 0.309317
C39   C     C_R   0.971380 0.475199 0.585436 0.309384
C40   C     C_R   0.475498 0.028876 0.585424 0.309242
C41   C     C_R   0.528963 0.975603 0.914579 0.309225
C42   C     C_R   0.024106 0.529205 0.914590 0.309411
C43   C     C_R   0.471036 0.024398 0.914580 0.309277
C44   C     C_R   0.975895 0.470793 0.914590 0.309253
C45   C     C_R   0.528505 0.024933 0.085441 0.309305
C46   C     C_R   0.024410 0.471046 0.085421 0.309302
C47   C     C_R   0.471495 0.975066 0.085440 0.309375
C48   C     C_R   0.975589 0.528952 0.085421 0.309457
C49   C     C_R   0.000000 0.500000 0.427189 -0.379779
C50   C     C_R   0.500000 1.000000 0.427203 -0.379374
C51   C     C_R   0.000000 0.500000 0.572818 -0.379992
C52   C     C_R   0.500000 0.000000 0.572811 -0.379770
C53   C     C_R   0.499999 0.000000 0.927192 -0.379707
C54   C     C_R   0.000000 0.499999 0.927199 -0.379501
C55   C     C_R   0.500000 0.000000 0.072822 -0.380102
C56   C     C_R   0.999999 0.499999 0.072808 -0.379735
C57   C     C_R   0.000000 0.500000 0.376617 0.006664
C58   C     C_R   0.499999 1.000000 0.376637 0.006448
C59   C     C_R   0.000000 0.500000 0.623394 0.006795
C60   C     C_R   0.500000 0.000001 0.623383 0.006653
C61   C     C_R   0.500000 0.000002 0.876621 0.006628
C62   C     C_R   0.000001 0.499999 0.876632 0.006459
C63   C     C_R   0.500000 0.999999 0.123399 0.006850
C64   C     C_R   0.999999 0.499999 0.123379 0.006577
C65   C     C_R   0.271743 0.515826 0.519733 -0.162945
C66   C     C_R   0.484589 0.271742 0.519843 -0.162963
C67   C     C_R   0.728257 0.482952 0.519390 -0.162928
C68   C     C_R   0.516766 0.728258 0.519471 -0.162935
C69   C     C_R   0.271744 0.484173 0.480264 -0.162980
C70   C     C_R   0.483233 0.728256 0.480525 -0.162993
C71   C     C_R   0.728256 0.517050 0.480608 -0.162955
C72   C     C_R   0.515414 0.271743 0.480154 -0.163019
C73   C     C_R   0.771742 0.014976 0.019953 -0.162995
C74   C     C_R   0.979615 0.771743 0.018280 -0.162848
C75   C     C_R   0.228257 0.983814 0.019635 -0.162982
C76   C     C_R   0.017006 0.228257 0.019402 -0.162924
C77   C     C_R   0.771744 0.985021 0.980043 -0.163060
C78   C     C_R   0.982993 0.228257 0.980596 -0.162956
C79   C     C_R   0.228256 0.016187 0.980362 -0.163035
C80   C     C_R   0.020387 0.771743 0.981718 -0.162871
C81   C     C_R   0.293608 0.500000 0.499999 0.143952
C82   C     C_R   0.500002 0.293608 0.499999 0.143943
C83   C     C_R   0.706392 0.500001 0.499999 0.144080
C84   C     C_R   0.499999 0.706392 0.499999 0.144079
C85   C     C_R   0.793608 0.999999 0.999998 0.143850
C86   C     C_R   0.000001 0.793608 0.999999 0.144507
C87   C     C_R   0.206392 0.000001 0.999999 0.143971
C88   C     C_R   1.000000 0.206392 0.999999 0.144107
C89   C     C_R   0.228301 0.484174 0.480264 -0.158803
C90   C     C_R   0.515414 0.228300 0.480154 -0.158826
C91   C     C_R   0.771699 0.517050 0.480608 -0.158703
C92   C     C_R   0.483233 0.771699 0.480525 -0.158714
C93   C     C_R   0.228300 0.515826 0.519733 -0.158825
C94   C     C_R   0.516765 0.771701 0.519471 -0.158732
C95   C     C_R   0.771699 0.482953 0.519389 -0.158723
C96   C     C_R   0.484589 0.228299 0.519842 -0.158846
C97   C     C_R   0.728301 0.985022 0.980042 -0.158896
C98   C     C_R   0.020386 0.728300 0.981718 -0.158353
C99   C     C_R   0.271699 0.016187 0.980361 -0.158803
C100  C     C_R   0.982994 0.271699 0.980596 -0.158689
C101  C     C_R   0.728300 0.014976 0.019953 -0.158924
C102  C     C_R   0.017006 0.271700 0.019402 -0.158705
C103  C     C_R   0.271700 0.983814 0.019634 -0.158832
C104  C     C_R   0.979615 0.728300 0.018280 -0.158366
C105  C     C_R   0.206438 0.500000 0.499999 0.140857
C106  C     C_R   0.500001 0.206438 0.499998 0.140835
C107  C     C_R   0.793562 0.500001 0.499999 0.141028
C108  C     C_R   0.499999 0.793562 0.499998 0.141024
C109  C     C_R   0.706438 0.999999 0.999998 0.140752
C110  C     C_R   0.000000 0.706438 0.999999 0.141641
C111  C     C_R   0.293562 0.000001 0.999997 0.140909
C112  C     C_R   1.000000 0.293562 0.999999 0.141057
C113  C     C_1   0.338384 0.500000 0.499999 -0.052839
C114  C     C_1   0.500001 0.338384 0.499999 -0.052862
C115  C     C_1   0.661616 0.500001 0.499999 -0.052809
C116  C     C_1   0.499999 0.661616 0.499999 -0.052828
C117  C     C_1   0.838384 0.999999 0.999999 -0.052932
C118  C     C_1   0.000001 0.838384 0.999999 -0.052692
C119  C     C_1   0.161615 0.000000 0.999999 -0.052904
C120  C     C_1   1.000000 0.161616 1.000000 -0.052792
C121  C     C_R   1.000000 0.500000 0.453676 0.978066
C122  C     C_R   0.500000 1.000000 0.453681 0.979138
C123  C     C_R   0.000000 0.500000 0.546327 0.977371
C124  C     C_R   0.500000 1.000000 0.546324 0.977951
C125  C     C_R   0.500000 1.000000 0.953677 0.978272
C126  C     C_R   0.000000 0.500000 0.953680 0.978938
C127  C     C_R   0.500000 0.000000 0.046328 0.977039
C128  C     C_R   1.000000 0.500000 0.046323 0.978264
C129  C     C_1   0.161666 0.500000 0.499999 -0.045831
C130  C     C_1   0.500001 0.161666 0.499997 -0.045809
C131  C     C_1   0.838333 0.500001 0.499998 -0.045794
C132  C     C_1   0.499999 0.838334 0.499997 -0.045766
C133  C     C_1   0.661667 0.999999 0.999998 -0.045885
C134  C     C_1   0.000000 0.661666 0.999998 -0.045631
C135  C     C_1   0.338333 0.000001 0.999997 -0.045850
C136  C     C_1   1.000000 0.338334 0.999998 -0.045757
C137  C     C_1   0.124195 0.500000 0.499999 -0.130428
C138  C     C_1   0.500000 0.124194 0.499998 -0.130232
C139  C     C_1   0.875805 0.500000 0.499999 -0.130430
C140  C     C_1   0.500000 0.875806 0.499998 -0.130231
C141  C     C_1   0.624195 0.999999 0.999998 -0.130458
C142  C     C_1   0.000000 0.624194 0.999999 -0.130252
C143  C     C_1   0.375805 0.000001 0.999998 -0.130459
C144  C     C_1   1.000000 0.375805 0.999999 -0.130239
C145  C     C_1   0.375860 0.500000 0.500000 -0.154028
C146  C     C_1   0.500001 0.375860 0.500000 -0.154043
C147  C     C_1   0.624139 0.500001 0.500000 -0.154022
C148  C     C_1   0.500000 0.624140 0.500000 -0.154035
C149  C     C_1   0.875860 0.999999 1.000000 -0.154092
C150  C     C_1   0.000000 0.875861 1.000000 -0.153981
C151  C     C_1   0.124139 0.000000 1.000000 -0.154086
C152  C     C_1   1.000000 0.124140 1.000000 -0.154002
C153  C     C_R   0.029207 0.524636 0.262629 -0.041322
C154  C     C_R   0.474814 0.028735 0.262649 -0.041327
C155  C     C_R   0.970794 0.475362 0.262630 -0.041326
C156  C     C_R   0.525184 0.971262 0.262649 -0.041328
C157  C     C_R   0.029469 0.475676 0.737382 -0.041328
C158  C     C_R   0.475368 0.970791 0.737371 -0.041335
C159  C     C_R   0.970532 0.524322 0.737382 -0.041332
C160  C     C_R   0.524632 0.029214 0.737371 -0.041328
C161  C     C_R   0.529121 0.024741 0.762633 -0.041324
C162  C     C_R   0.974957 0.528859 0.762644 -0.041341
C163  C     C_R   0.470879 0.975264 0.762633 -0.041326
C164  C     C_R   0.025044 0.471139 0.762644 -0.041327
C165  C     C_R   0.529587 0.975820 0.237387 -0.041325
C166  C     C_R   0.975268 0.470873 0.237367 -0.041332
C167  C     C_R   0.470411 0.024177 0.237387 -0.041334
C168  C     C_R   0.024733 0.529125 0.237367 -0.041343
C169  C     C_R   0.000000 0.499999 0.275268 -0.068067
C170  C     C_R   0.499999 0.999999 0.275288 -0.068073
C171  C     C_R   0.000001 0.499999 0.724744 -0.068064
C172  C     C_R   0.500000 0.000002 0.724733 -0.068070
C173  C     C_R   0.500000 0.000003 0.775271 -0.068071
C174  C     C_R   0.000000 0.499999 0.775282 -0.068066
C175  C     C_R   0.499999 0.999999 0.224749 -0.068067
C176  C     C_R   0.000000 0.499999 0.224729 -0.068067
C177  C     C_R   0.062371 0.542515 0.275738 0.678278
C178  C     C_R   0.456313 0.061556 0.275759 0.678273
C179  C     C_R   0.937630 0.457484 0.275739 0.678279
C180  C     C_R   0.543685 0.938442 0.275758 0.678273
C181  C     C_R   0.062823 0.458154 0.724272 0.678281
C182  C     C_R   0.457496 0.937623 0.724262 0.678283
C183  C     C_R   0.937178 0.541845 0.724273 0.678287
C184  C     C_R   0.542504 0.062381 0.724261 0.678275
C185  C     C_R   0.562222 0.042735 0.775742 0.678274
C186  C     C_R   0.956617 0.561770 0.775754 0.678288
C187  C     C_R   0.437777 0.957271 0.775743 0.678275
C188  C     C_R   0.043384 0.438228 0.775753 0.678274
C189  C     C_R   0.563026 0.958462 0.224277 0.678276
C190  C     C_R   0.957281 0.437767 0.224258 0.678282
C191  C     C_R   0.436972 0.041536 0.224278 0.678283
C192  C     C_R   0.042719 0.562231 0.224258 0.678290
C193  C     C_R   0.063048 0.540882 0.300742 -0.220803
C194  C     C_R   0.457933 0.062264 0.300762 -0.220806
C195  C     C_R   0.936953 0.459117 0.300743 -0.220783
C196  C     C_R   0.542065 0.937734 0.300762 -0.220794
C197  C     C_R   0.063482 0.459794 0.699268 -0.220803
C198  C     C_R   0.459128 0.936947 0.699258 -0.220785
C199  C     C_R   0.936519 0.540205 0.699269 -0.220784
C200  C     C_R   0.540872 0.063057 0.699258 -0.220810
C201  C     C_R   0.562904 0.041105 0.800746 -0.220814
C202  C     C_R   0.958241 0.562469 0.800758 -0.220735
C203  C     C_R   0.437095 0.958901 0.800746 -0.220802
C204  C     C_R   0.041760 0.437528 0.800757 -0.220795
C205  C     C_R   0.563677 0.960104 0.199274 -0.220822
C206  C     C_R   0.958912 0.437085 0.199254 -0.220788
C207  C     C_R   0.436322 0.039893 0.199274 -0.220797
C208  C     C_R   0.041088 0.562913 0.199254 -0.220739
C209  C     C_R   0.031476 0.520759 0.313456 -0.126323
C210  C     C_R   0.478650 0.031078 0.313476 -0.126313
C211  C     C_R   0.968525 0.479241 0.313456 -0.126338
C212  C     C_R   0.521348 0.968920 0.313476 -0.126324
C213  C     C_R   0.031697 0.479578 0.686555 -0.126338
C214  C     C_R   0.479246 0.968523 0.686544 -0.126342
C215  C     C_R   0.968305 0.520421 0.686555 -0.126350
C216  C     C_R   0.520754 0.031481 0.686544 -0.126327
C217  C     C_R   0.531402 0.020871 0.813460 -0.126318
C218  C     C_R   0.978804 0.531182 0.813471 -0.126362
C219  C     C_R   0.468596 0.979134 0.813460 -0.126327
C220  C     C_R   0.021197 0.468815 0.813471 -0.126321
C221  C     C_R   0.531794 0.979732 0.186560 -0.126334
C222  C     C_R   0.979139 0.468591 0.186541 -0.126331
C223  C     C_R   0.468204 0.020265 0.186560 -0.126348
C224  C     C_R   0.020861 0.531407 0.186540 -0.126369
C225  C     C_R   0.000000 0.499999 0.300729 -0.067717
C226  C     C_R   0.499999 0.999999 0.300749 -0.067712
C227  C     C_R   0.000000 0.500000 0.699282 -0.067724
C228  C     C_R   0.500000 0.000002 0.699271 -0.067725
C229  C     C_R   0.499999 0.000003 0.800733 -0.067719
C230  C     C_R   0.000000 0.499999 0.800744 -0.067710
C231  C     C_R   0.499999 0.999999 0.199287 -0.067733
C232  C     C_R   0.000000 0.499999 0.199267 -0.067716
C233  C     C_R   0.031097 0.520085 0.338685 0.620026
C234  C     C_R   0.479332 0.030713 0.338705 0.620003
C235  C     C_R   0.968904 0.479915 0.338686 0.620039
C236  C     C_R   0.520667 0.969286 0.338705 0.620008
C237  C     C_R   0.031310 0.480247 0.661326 0.620042
C238  C     C_R   0.479919 0.968902 0.661315 0.620027
C239  C     C_R   0.968691 0.519752 0.661326 0.620047
C240  C     C_R   0.520081 0.031102 0.661314 0.620014
C241  C     C_R   0.531026 0.020197 0.838689 0.620016
C242  C     C_R   0.979484 0.530813 0.838701 0.620046
C243  C     C_R   0.468973 0.979809 0.838689 0.620029
C244  C     C_R   0.020517 0.469184 0.838700 0.620017
C245  C     C_R   0.531404 0.980398 0.161331 0.620030
C246  C     C_R   0.979814 0.468967 0.161311 0.620023
C247  C     C_R   0.468595 0.019599 0.161331 0.620047
C248  C     C_R   0.020186 0.531031 0.161311 0.620045
Cu1   Cu    Cu3+1 0.000000 0.459010 0.500000 0.972667
Cu2   Cu    Cu3+1 0.540990 0.000000 0.500000 0.972638
Cu3   Cu    Cu3+1 0.000000 0.540990 0.500000 0.972653
Cu4   Cu    Cu3+1 0.459010 0.000000 0.500000 0.972654
Cu5   Cu    Cu3+1 0.500000 0.959010 0.000000 0.972626
Cu6   Cu    Cu3+1 0.040990 0.500000 0.000000 0.972559
Cu7   Cu    Cu3+1 0.500000 0.040990 0.000000 0.972669
Cu8   Cu    Cu3+1 0.959010 0.500000 0.000000 0.972574
Cu9   Cu    Cu3+1 0.500000 0.500000 0.476120 0.989612
Cu10  Cu    Cu3+1 0.500000 0.500000 0.523880 0.989702
Cu11  Cu    Cu3+1 0.000000 0.000000 0.976120 0.989739
Cu12  Cu    Cu3+1 0.000000 0.000000 0.023880 0.989828
H1    H     H_    0.088843 0.555110 0.310102 0.218590
H2    H     H_    0.443221 0.087786 0.310123 0.218598
H3    H     H_    0.911158 0.444889 0.310103 0.218603
H4    H     H_    0.556778 0.912212 0.310122 0.218608
H5    H     H_    0.089428 0.445843 0.689908 0.218593
H6    H     H_    0.444905 0.911150 0.689898 0.218608
H7    H     H_    0.910573 0.554156 0.689909 0.218605
H8    H     H_    0.555095 0.088854 0.689897 0.218591
H9    H     H_    0.588649 0.055422 0.810106 0.218585
H10   H     H_    0.943654 0.588063 0.810118 0.218645
H11   H     H_    0.411350 0.944583 0.810107 0.218592
H12   H     H_    0.056347 0.411934 0.810117 0.218607
H13   H     H_    0.589690 0.946280 0.189914 0.218576
H14   H     H_    0.944600 0.411336 0.189894 0.218613
H15   H     H_    0.410308 0.053717 0.189914 0.218594
H16   H     H_    0.055400 0.588662 0.189894 0.218645
H17   H     H_    0.211781 0.528148 0.535099 0.153196
H18   H     H_    0.472589 0.211781 0.535292 0.153260
H19   H     H_    0.788218 0.469679 0.534487 0.152936
H20   H     H_    0.529819 0.788220 0.534632 0.152981
H21   H     H_    0.211783 0.471852 0.464899 0.153180
H22   H     H_    0.470180 0.788217 0.465363 0.152930
H23   H     H_    0.788217 0.530323 0.465510 0.152919
H24   H     H_    0.527414 0.211782 0.464703 0.153232
H25   H     H_    0.711781 0.026637 0.035490 0.153356
H26   H     H_    0.963743 0.711781 0.032512 0.152035
H27   H     H_    0.288219 0.971212 0.034923 0.153130
H28   H     H_    0.030246 0.288219 0.034509 0.152918
H29   H     H_    0.711784 0.973361 0.964505 0.153346
H30   H     H_    0.969753 0.288218 0.965488 0.152888
H31   H     H_    0.288217 0.028789 0.965072 0.153096
H32   H     H_    0.036258 0.711782 0.967485 0.151988
H33   H     H_    0.288258 0.528149 0.535099 0.147678
H34   H     H_    0.472589 0.288258 0.535293 0.147701
H35   H     H_    0.711741 0.469678 0.534487 0.147521
H36   H     H_    0.529820 0.711742 0.534633 0.147549
H37   H     H_    0.288260 0.471851 0.464899 0.147647
H38   H     H_    0.470179 0.711739 0.465364 0.147498
H39   H     H_    0.711740 0.530325 0.465511 0.147509
H40   H     H_    0.527415 0.288260 0.464704 0.147670
H41   H     H_    0.788258 0.026638 0.035491 0.147779
H42   H     H_    0.963741 0.788259 0.032512 0.147029
H43   H     H_    0.211742 0.971211 0.034924 0.147657
H44   H     H_    0.030248 0.211741 0.034509 0.147512
H45   H     H_    0.788261 0.973360 0.964506 0.147757
H46   H     H_    0.969752 0.211740 0.965489 0.147481
H47   H     H_    0.211740 0.028790 0.965073 0.147602
H48   H     H_    0.036261 0.788260 0.967486 0.147013
N1    N     N_R   0.000000 0.500000 0.350765 -0.423783
N2    N     N_R   0.499999 0.999999 0.350784 -0.423787
N3    N     N_R   0.000001 0.500000 0.649247 -0.423771
N4    N     N_R   0.500000 0.000002 0.649236 -0.423779
N5    N     N_R   0.499999 0.000003 0.850768 -0.423779
N6    N     N_R   0.000001 0.499998 0.850779 -0.423802
N7    N     N_R   0.499999 0.999999 0.149252 -0.423763
N8    N     N_R   1.000000 0.499999 0.149232 -0.423793
O1    O     O_R   0.059820 0.465390 0.500010 -0.583265
O2    O     O_R   0.534610 0.059820 0.500010 -0.583535
O3    O     O_R   0.940180 0.534610 0.500010 -0.583294
O4    O     O_R   0.465390 0.940180 0.500010 -0.583554
O5    O     O_R   0.059820 0.534610 0.499990 -0.582873
O6    O     O_R   0.534610 0.940180 0.499990 -0.582842
O7    O     O_R   0.940180 0.465390 0.499990 -0.582891
O8    O     O_R   0.465390 0.059820 0.499990 -0.582810
O9    O     O_R   0.559820 0.965390 0.000010 -0.583417
O10   O     O_R   0.034610 0.559820 0.000010 -0.583482
O11   O     O_R   0.440180 0.034610 0.000010 -0.583424
O12   O     O_R   0.965390 0.440180 0.000010 -0.583400
O13   O     O_R   0.559820 0.034610 0.999990 -0.582687
O14   O     O_R   0.034610 0.440180 0.999990 -0.583005
O15   O     O_R   0.440180 0.965390 0.999990 -0.582727
O16   O     O_R   0.965390 0.559820 0.999990 -0.583076
O17   O     O_R   0.999990 0.465390 0.465160 -0.584403
O18   O     O_R   0.534610 0.999990 0.465160 -0.585009
O19   O     O_R   0.000010 0.534610 0.465160 -0.584424
O20   O     O_R   0.465390 0.000010 0.465160 -0.585029
O21   O     O_R   0.999990 0.534610 0.534840 -0.584050
O22   O     O_R   0.534610 0.000010 0.534840 -0.584434
O23   O     O_R   0.000010 0.465390 0.534840 -0.584068
O24   O     O_R   0.465390 0.999990 0.534840 -0.584409
O25   O     O_R   0.499990 0.965390 0.965160 -0.584526
O26   O     O_R   0.034610 0.499990 0.965160 -0.584890
O27   O     O_R   0.500010 0.034610 0.965160 -0.584535
O28   O     O_R   0.965390 0.500010 0.965160 -0.584834
O29   O     O_R   0.499990 0.034610 0.034840 -0.583893
O30   O     O_R   0.034610 0.500010 0.034840 -0.584498
O31   O     O_R   0.500010 0.965390 0.034840 -0.583918
O32   O     O_R   0.965390 0.499990 0.034840 -0.584548
O33   O     O_2   0.061215 0.539771 0.351065 -0.513541
O34   O     O_2   0.459084 0.060456 0.351086 -0.513547
O35   O     O_2   0.938785 0.460229 0.351066 -0.513486
O36   O     O_2   0.540914 0.939543 0.351086 -0.513498
O37   O     O_2   0.061636 0.460884 0.648945 -0.513544
O38   O     O_2   0.460238 0.938781 0.648935 -0.513501
O39   O     O_2   0.938365 0.539116 0.648946 -0.513496
O40   O     O_2   0.539762 0.061223 0.648934 -0.513564
O41   O     O_2   0.561075 0.039988 0.851069 -0.513565
O42   O     O_2   0.959381 0.560654 0.851081 -0.513345
O43   O     O_2   0.438924 0.960018 0.851070 -0.513534
O44   O     O_2   0.040620 0.439342 0.851080 -0.513494
O45   O     O_2   0.561824 0.961182 0.148950 -0.513599
O46   O     O_2   0.960032 0.438912 0.148931 -0.513496
O47   O     O_2   0.438175 0.038816 0.148951 -0.513533
O48   O     O_2   0.039968 0.561086 0.148930 -0.513360
O49   O     O_R   0.500000 0.559840 0.479810 -0.576186
O50   O     O_R   0.440160 0.500000 0.479810 -0.576211
O51   O     O_R   0.500000 0.440160 0.479810 -0.576190
O52   O     O_R   0.559840 0.500000 0.479810 -0.576147
O53   O     O_R   0.500000 0.440160 0.520190 -0.576197
O54   O     O_R   0.440160 0.500000 0.520190 -0.576156
O55   O     O_R   0.500000 0.559840 0.520190 -0.576134
O56   O     O_R   0.559840 0.500000 0.520190 -0.576157
O57   O     O_R   0.000000 0.059840 0.979810 -0.576176
O58   O     O_R   0.940160 0.000000 0.979810 -0.576172
O59   O     O_R   0.000000 0.940160 0.979810 -0.576048
O60   O     O_R   0.059840 0.000000 0.979810 -0.576210
O61   O     O_R   1.000000 0.940160 0.020190 -0.576056
O62   O     O_R   0.940160 0.000000 0.020190 -0.576219
O63   O     O_R   0.000000 0.059840 0.020190 -0.576124
O64   O     O_R   0.059840 0.000000 0.020190 -0.576121
F1    F     F_    0.096661 0.557651 0.264669 -0.596936
F2    F     F_    0.440530 0.095554 0.264690 -0.596945
F3    F     F_    0.903340 0.442347 0.264670 -0.596930
F4    F     F_    0.559468 0.904444 0.264690 -0.596942
F5    F     F_    0.097273 0.443386 0.735341 -0.596925
F6    F     F_    0.442366 0.903330 0.735330 -0.596919
F7    F     F_    0.902727 0.556613 0.735342 -0.596908
F8    F     F_    0.557633 0.096675 0.735330 -0.596936
F9    F     F_    0.596460 0.057990 0.764674 -0.596948
F10   F     F_    0.941002 0.595845 0.764685 -0.596897
F11   F     F_    0.403540 0.942016 0.764674 -0.596939
F12   F     F_    0.058999 0.404153 0.764684 -0.596936
F13   F     F_    0.597549 0.943864 0.235346 -0.596935
F14   F     F_    0.942033 0.403527 0.235327 -0.596910
F15   F     F_    0.402449 0.056134 0.235347 -0.596920
F16   F     F_    0.057968 0.596471 0.235326 -0.596888
O65   O     O_3   0.060051 0.453926 0.377421 -0.515123
C249  C     C_3   0.043092 0.419526 0.365104 -0.250804
H49   H     H_    0.014295 0.406884 0.373486 0.138688
H50   H     H_    0.066395 0.394208 0.365123 0.182139
H51   H     H_    0.037200 0.427662 0.346067 0.177180
O66   O     O_3   0.544963 0.060891 0.377443 -0.515079
C250  C     C_3   0.579664 0.044570 0.365121 -0.250664
H52   H     H_    0.592816 0.015988 0.373486 0.138736
H53   H     H_    0.604562 0.068321 0.365156 0.182144
H54   H     H_    0.571638 0.038566 0.346079 0.177157
O67   O     O_3   0.939950 0.546074 0.377421 -0.515089
C251  C     C_3   0.956909 0.580475 0.365105 -0.250801
H55   H     H_    0.985704 0.593118 0.373488 0.138664
H56   H     H_    0.933605 0.605792 0.365123 0.182140
H57   H     H_    0.962804 0.572339 0.346068 0.177182
O68   O     O_3   0.455036 0.939108 0.377444 -0.515047
C252  C     C_3   0.420335 0.955429 0.365121 -0.250664
H58   H     H_    0.407183 0.984011 0.373487 0.138721
H59   H     H_    0.395438 0.931678 0.365157 0.182139
H60   H     H_    0.428362 0.961432 0.346080 0.177159
O69   O     O_3   0.059562 0.546701 0.622592 -0.515145
C253  C     C_3   0.042244 0.580921 0.634910 -0.250916
H61   H     H_    0.013318 0.593264 0.626527 0.138677
H62   H     H_    0.065281 0.606481 0.634892 0.182115
H63   H     H_    0.036435 0.572723 0.653946 0.177209
O70   O     O_3   0.546082 0.939956 0.622579 -0.515089
C254  C     C_3   0.580474 0.956921 0.634901 -0.250837
H64   H     H_    0.593105 0.985730 0.626527 0.138682
H65   H     H_    0.605802 0.933629 0.634876 0.182118
H66   H     H_    0.572334 0.962795 0.653940 0.177191
O71   O     O_3   0.940439 0.453299 0.622592 -0.515114
C255  C     C_3   0.957757 0.419080 0.634911 -0.250939
H67   H     H_    0.986686 0.406740 0.626530 0.138671
H68   H     H_    0.934722 0.393518 0.634892 0.182106
H69   H     H_    0.963561 0.427279 0.653949 0.177212
O72   O     O_3   0.453919 0.060046 0.622579 -0.515126
C256  C     C_3   0.419527 0.043082 0.634901 -0.250837
H70   H     H_    0.406896 0.014273 0.626528 0.138706
H71   H     H_    0.394198 0.066374 0.634876 0.182119
H72   H     H_    0.427667 0.037210 0.653940 0.177188
O73   O     O_3   0.560210 0.954136 0.877425 -0.515123
C257  C     C_3   0.543370 0.919681 0.865104 -0.250790
H73   H     H_    0.514609 0.906945 0.873481 0.138691
H74   H     H_    0.566755 0.894438 0.865128 0.182140
H75   H     H_    0.537463 0.927798 0.846066 0.177180
O74   O     O_3   0.045253 0.560674 0.877437 -0.514945
C258  C     C_3   0.079879 0.544188 0.865117 -0.250671
H76   H     H_    0.092901 0.515551 0.873488 0.138671
H77   H     H_    0.104885 0.567826 0.865149 0.182134
H78   H     H_    0.071827 0.538212 0.846077 0.177163
O75   O     O_3   0.439789 0.045867 0.877426 -0.515103
C259  C     C_3   0.456629 0.080327 0.865110 -0.250792
H79   H     H_    0.485381 0.093069 0.873493 0.138669
H80   H     H_    0.433238 0.105565 0.865130 0.182137
H81   H     H_    0.462550 0.072213 0.846073 0.177175
O76   O     O_3   0.954749 0.439323 0.877438 -0.515057
C260  C     C_3   0.920123 0.455808 0.865118 -0.250694
H82   H     H_    0.907101 0.484445 0.873488 0.138732
H83   H     H_    0.895117 0.432170 0.865150 0.182132
H84   H     H_    0.928176 0.461783 0.846077 0.177161
O77   O     O_3   0.559341 0.046979 0.122598 -0.515173
C261  C     C_3   0.541860 0.081112 0.134920 -0.250981
H85   H     H_    0.512872 0.093315 0.126541 0.138681
H86   H     H_    0.564773 0.106784 0.134901 0.182105
H87   H     H_    0.536099 0.072883 0.153957 0.177221
O78   O     O_3   0.045889 0.439806 0.122575 -0.515082
C262  C     C_3   0.080339 0.456659 0.134894 -0.250791
H88   H     H_    0.093063 0.485425 0.126517 0.138711
H89   H     H_    0.105590 0.433284 0.134870 0.182114
H90   H     H_    0.072221 0.462564 0.153933 0.177177
O79   O     O_3   0.440659 0.953020 0.122598 -0.515138
C263  C     C_3   0.458139 0.918884 0.134917 -0.250983
H91   H     H_    0.487123 0.906678 0.126534 0.138647
H92   H     H_    0.435223 0.893214 0.134900 0.182105
H93   H     H_    0.463908 0.927111 0.153953 0.177223
O80   O     O_3   0.954110 0.560191 0.122575 -0.514979
C264  C     C_3   0.919662 0.543338 0.134896 -0.250779
H94   H     H_    0.906938 0.514571 0.126521 0.138665
H95   H     H_    0.894409 0.566712 0.134871 0.182110
H96   H     H_    0.927781 0.537437 0.153935 0.177181
O81   O     O_3   0.059469 0.454557 0.427134 -0.535887
C265  C     C_3   0.049243 0.412024 0.428370 -0.199872
H97   H     H_    0.059313 0.395738 0.411843 0.173845
H98   H     H_    0.015577 0.406412 0.431646 0.138682
H99   H     H_    0.066442 0.398048 0.443604 0.175781
O82   O     O_3   0.544349 0.060280 0.427159 -0.536390
C266  C     C_3   0.587044 0.050780 0.428434 -0.201346
H100  H     H_    0.603183 0.061012 0.411892 0.173936
H101  H     H_    0.593212 0.017234 0.431784 0.139315
H102  H     H_    0.600708 0.068309 0.443638 0.175984
O83   O     O_3   0.940531 0.545443 0.427135 -0.535827
C267  C     C_3   0.950757 0.587976 0.428370 -0.199964
H103  H     H_    0.940685 0.604262 0.411844 0.173848
H104  H     H_    0.984423 0.593588 0.431645 0.138677
H105  H     H_    0.933558 0.601951 0.443605 0.175729
O84   O     O_3   0.455651 0.939719 0.427160 -0.536331
C268  C     C_3   0.412955 0.949219 0.428435 -0.201435
H106  H     H_    0.396817 0.938987 0.411893 0.173935
H107  H     H_    0.406787 0.982765 0.431785 0.139320
H108  H     H_    0.399292 0.931690 0.443638 0.175928
O85   O     O_3   0.058994 0.546066 0.572880 -0.535599
C269  C     C_3   0.048354 0.588500 0.571669 -0.199047
H109  H     H_    0.058319 0.604867 0.588190 0.173778
H110  H     H_    0.014625 0.593792 0.568428 0.138326
H111  H     H_    0.065372 0.602655 0.556422 0.175682
O86   O     O_3   0.545454 0.940539 0.572866 -0.535850
C270  C     C_3   0.587984 0.950775 0.571631 -0.199921
H112  H     H_    0.604270 0.940719 0.588161 0.173827
H113  H     H_    0.593587 0.984441 0.568349 0.138682
H114  H     H_    0.601967 0.933570 0.556401 0.175777
O87   O     O_3   0.941007 0.453933 0.572881 -0.535546
C271  C     C_3   0.951648 0.411500 0.571669 -0.199133
H115  H     H_    0.941687 0.395133 0.588191 0.173773
H116  H     H_    0.985376 0.406209 0.568426 0.138338
H117  H     H_    0.934627 0.397343 0.556424 0.175635
O88   O     O_3   0.454546 0.059462 0.572866 -0.535915
C272  C     C_3   0.412016 0.049226 0.571631 -0.199815
H118  H     H_    0.395730 0.059283 0.588161 0.173826
H119  H     H_    0.406413 0.015560 0.568349 0.138684
H120  H     H_    0.398034 0.066431 0.556401 0.175835
O89   O     O_3   0.559623 0.954761 0.927138 -0.535996
C273  C     C_3   0.549531 0.912198 0.928381 -0.200139
H121  H     H_    0.559626 0.895939 0.911850 0.173856
H122  H     H_    0.515887 0.906483 0.931675 0.138788
H123  H     H_    0.566796 0.898278 0.943608 0.175830
O90   O     O_3   0.044635 0.560071 0.927153 -0.536007
C274  C     C_3   0.087290 0.550386 0.928416 -0.201194
H124  H     H_    0.103466 0.560580 0.911878 0.173907
H125  H     H_    0.093318 0.516808 0.931747 0.139157
H126  H     H_    0.101034 0.567831 0.943628 0.175717
O91   O     O_3   0.440375 0.045236 0.927140 -0.535959
C275  C     C_3   0.450462 0.087801 0.928383 -0.200209
H127  H     H_    0.440355 0.104061 0.911856 0.173868
H128  H     H_    0.484107 0.093520 0.931670 0.138781
H129  H     H_    0.433205 0.101716 0.943615 0.175787
O92   O     O_3   0.955366 0.439927 0.927153 -0.536209
C276  C     C_3   0.912710 0.449612 0.928417 -0.201040
H130  H     H_    0.896536 0.439418 0.911879 0.173912
H131  H     H_    0.906683 0.483190 0.931747 0.139183
H132  H     H_    0.898966 0.432168 0.943629 0.175867
O93   O     O_3   0.558781 0.046340 0.072887 -0.535503
C277  C     C_3   0.547953 0.088728 0.071686 -0.198618
H133  H     H_    0.557863 0.105132 0.088206 0.173747
H134  H     H_    0.514198 0.093874 0.068456 0.138161
H135  H     H_    0.564895 0.102965 0.056435 0.175678
O94   O     O_3   0.045263 0.440394 0.072861 -0.535931
C278  C     C_3   0.087823 0.450501 0.071619 -0.200195
H136  H     H_    0.104084 0.440407 0.088149 0.173845
H137  H     H_    0.093526 0.484148 0.068329 0.138823
H138  H     H_    0.101749 0.433244 0.056391 0.175774
O95   O     O_3   0.441217 0.953661 0.072887 -0.535447
C279  C     C_3   0.452043 0.911273 0.071685 -0.198732
H139  H     H_    0.442126 0.894868 0.088203 0.173755
H140  H     H_    0.485799 0.906124 0.068459 0.138144
H141  H     H_    0.435106 0.897039 0.056432 0.175620
O96   O     O_3   0.954736 0.559604 0.072862 -0.535743
C280  C     C_3   0.912176 0.549498 0.071620 -0.200349
H142  H     H_    0.895916 0.559589 0.088151 0.173840
H143  H     H_    0.906473 0.515852 0.068328 0.138811
H144  H     H_    0.898250 0.566757 0.056393 0.175633

loop_
_geom_bond_atom_site_label_1
_geom_bond_atom_site_label_2
_ccdc_geom_bond_type
O71   C255  S    
C240  O40   S    
C51   C123  S    
O77   C261  S    
Cu2   O18   S    
Cu7   O27   S    
C239  N3    A    
C240  N4    A    
C179  C195  A    
O73   C257  S    
C264  H96   S    
C177  C193  A    
Cu8   O28   S    
C79   C99   A    
C44   O92   S    
C21   C59   A    
C22   C60   A    
O94   C278  S    
Cu2   Cu4   S    
C22   C38   A    
C72   H40   S    
C12   O52   A    
C186  C202  A    
C280  H142  S    
Cu6   Cu8   S    
Cu11  O57   S    
Cu9   O49   S    
C190  C206  A    
C275  H127  S    
Cu7   O11   S    
C6    O16   A    
C3    O3    A    
C70   C84   A    
C253  H62   S    
C180  C196  A    
C193  H1    S    
C73   C101  A    
Cu5   O9    S    
C252  H59   S    
C75   C103  A    
Cu2   O6    S    
C79   C87   A    
C15   O59   A    
C10   O50   A    
C254  H66   S    
C35   O83   S    
C270  H113  S    
C5    O13   A    
C247  N7    A    
C34   C50   A    
C109  C133  S    
C262  H88   S    
C2    C138  S    
C91   C107  A    
C196  H4    S    
C175  C231  A    
C245  N7    A    
C114  C146  T    
C25   C41   A    
C157  C181  A    
C237  O37   S    
C126  O26   A    
C28   C44   A    
Cu12  O63   S    
C29   C45   A    
C12   O56   A    
C40   O88   S    
C260  H84   S    
C14   O62   A    
C31   C63   A    
C66   C82   A    
C54   C126  S    
Cu10  O55   S    
C246  O46   S    
C19   O67   S    
C62   N6    S    
C256  H72   S    
O88   C272  S    
C269  H109  S    
C160  C172  A    
C101  H25   S    
C85   C117  S    
C189  F13   S    
Cu5   O31   S    
C187  F11   S    
O72   C256  S    
C251  H56   S    
Cu1   Cu3   S    
C276  H131  S    
C153  C168  A    
C13   O63   A    
C280  H144  S    
C154  C167  A    
C215  C239  A    
C173  C229  A    
C75   H43   S    
C198  C214  A    
C76   H44   S    
C36   C50   A    
Cu5   Cu7   S    
Cu8   O16   S    
C106  C130  S    
C5    O9    A    
C250  H53   S    
C194  H2    S    
C133  C141  T    
C164  C188  A    
C60   N4    S    
C105  C129  S    
C273  H121  S    
C167  C191  A    
C100  H30   S    
C168  C192  A    
C259  H79   S    
C279  H140  S    
C264  H94   S    
C19   C35   A    
C157  C171  A    
C104  C110  A    
Cu7   O13   S    
C158  C172  A    
C27   O75   S    
C275  H129  S    
C14   C149  S    
C156  C170  A    
C267  H103  S    
C211  C235  A    
C16   C151  S    
C63   N7    S    
C56   C128  S    
C71   H39   S    
C258  H77   S    
C45   O93   S    
C94   H20   S    
C46   O94   S    
C208  H16   S    
C266  H102  S    
C129  C137  T    
O92   C276  S    
C117  C149  T    
C101  C109  A    
C244  O44   S    
C104  H26   S    
C176  C232  A    
C39   C51   A    
Cu8   O12   S    
C207  C223  A    
C115  C147  T    
C52   C124  S    
C58   N2    S    
C181  C197  A    
Cu4   O8    S    
C273  H123  S    
C7    C143  S    
Cu6   O14   S    
C23   C59   A    
C154  C170  A    
C216  C228  A    
C155  C179  A    
C199  C215  A    
O68   C252  S    
C214  C238  A    
Cu1   O1    S    
Cu10  O53   S    
C66   H34   S    
C185  C201  A    
C72   C90   A    
Cu7   O29   S    
C260  H83   S    
Cu9   Cu10  S    
C102  H28   S    
C6    O10   A    
C92   H22   S    
Cu5   O25   S    
C92   C108  A    
C3    O7    A    
C278  H136  S    
C25   O73   S    
C18   O66   S    
C35   C49   A    
C13   O57   A    
Cu2   O22   S    
C77   C97   A    
C124  O24   A    
C4    O4    A    
C97   H29   S    
C29   O77   S    
C121  O17   A    
C135  C143  T    
C180  F4    S    
C241  N5    A    
C84   C116  S    
C67   C95   A    
C210  C226  A    
C184  F8    S    
C112  C136  S    
C69   C89   A    
C212  C236  A    
C43   C53   A    
C71   C83   A    
C18   C34   A    
C76   C102  A    
C153  C177  A    
C261  H85   S    
C96   C106  A    
C216  C240  A    
C259  H81   S    
C83   C115  S    
C39   O87   S    
O80   C264  S    
C32   C64   A    
C191  C207  A    
C223  C247  A    
C274  H125  S    
C191  F15   S    
C188  C204  A    
C267  H105  S    
C68   C94   A    
C2    O2    A    
C1    O1    A    
C272  H119  S    
C196  C212  A    
C98   H32   S    
C87   C119  S    
C165  C175  A    
C194  C210  A    
C253  H63   S    
C97   C109  A    
C165  C189  A    
C266  H100  S    
C49   C121  S    
C278  H138  S    
Cu12  O62   S    
C17   C33   A    
C201  H9    S    
C174  C230  A    
C157  C164  A    
C41   C53   A    
C53   C125  S    
C158  C163  A    
C204  H12   S    
C75   C87   A    
C55   C127  S    
C73   H41   S    
O70   C254  S    
C243  N5    A    
C249  H50   S    
C110  C134  S    
C3    C139  S    
C20   C58   A    
C30   O78   S    
C123  O21   A    
C1    C137  S    
C255  H67   S    
C26   C42   A    
C74   C104  A    
O66   C250  S    
C168  C176  A    
C93   H17   S    
C30   C46   A    
O76   C260  S    
C14   O58   A    
C270  H112  S    
C11   C146  S    
C241  O41   S    
C264  H95   S    
C9    C148  S    
C43   O91   S    
C48   O96   S    
C202  C218  A    
Cu9   O51   S    
C127  O29   A    
C239  O39   S    
O65   C249  S    
C186  F10   S    
C7    O11   A    
C206  C222  A    
C233  O33   S    
C200  C216  A    
C215  C227  A    
C218  C242  A    
C197  H5    S    
C265  H97   S    
C108  C132  S    
C21   O69   S    
Cu11  O60   S    
C121  O19   A    
C163  C173  A    
C44   C54   A    
C200  H8    S    
C263  H91   S    
C45   C55   A    
C275  H128  S    
C89   C105  A    
O83   C267  S    
C31   C47   A    
Cu4   O24   S    
C233  N1    A    
O74   C258  S    
C268  H106  S    
C244  N6    A    
Cu6   O30   S    
C123  O23   A    
C271  H115  S    
C28   C62   A    
C29   C63   A    
C252  H58   S    
C98   C110  A    
C30   C64   A    
C280  H143  S    
C128  O32   A    
C102  C112  A    
O95   C279  S    
C50   C122  S    
C183  F7    S    
Cu1   O17   S    
C8    O14   A    
C254  H65   S    
C19   C57   A    
C67   C83   A    
C178  C194  A    
C277  H133  S    
C159  C171  A    
C204  C220  A    
C12   C147  S    
C167  C175  A    
O89   C273  S    
C182  F6    S    
C33   C49   A    
C24   O72   S    
C187  C203  A    
Cu4   O4    S    
O84   C268  S    
Cu12  O64   S    
C103  C111  A    
C113  C145  T    
C118  C150  T    
C257  H73   S    
C218  C230  A    
C161  C185  A    
C20   O68   S    
Cu10  O56   S    
C224  C248  A    
C77   H45   S    
C189  C205  A    
C256  H71   S    
C262  H90   S    
C269  H110  S    
C16   O60   A    
C164  C174  A    
C88   C120  S    
C255  H69   S    
C212  C226  A    
Cu6   O10   S    
C61   N5    S    
C16   O64   A    
C69   H37   S    
C276  H130  S    
C248  O48   S    
C32   C48   A    
C209  C225  A    
C219  C229  A    
C153  C169  A    
C80   H48   S    
C223  C231  A    
Cu2   O2    S    
C11   O53   A    
C269  H111  S    
O75   C259  S    
C68   C84   A    
C203  H11   S    
C250  H54   S    
C31   O79   S    
C90   C106  A    
C238  O38   S    
C17   O65   S    
C116  C148  T    
O78   C262  S    
Cu3   O5    S    
C207  H15   S    
C125  O25   A    
C57   N1    S    
C273  H122  S    
C257  H75   S    
C32   O80   S    
O81   C265  S    
C213  C227  A    
Cu11  O58   S    
C128  O30   A    
Cu9   O50   S    
C134  C142  T    
C161  C173  A    
C65   C81   A    
C263  H93   S    
C245  O45   S    
C274  H124  S    
C185  F9    S    
C267  H104  S    
C159  C162  A    
C86   C118  S    
C25   C61   A    
C95   C107  A    
C271  H117  S    
C271  H116  S    
C266  H101  S    
C171  C227  A    
C100  C112  A    
C252  H60   S    
C2    O8    A    
C154  C178  A    
C130  C138  T    
C78   C100  A    
C169  C225  A    
C79   H47   S    
C208  C224  A    
O90   C274  S    
C122  O20   A    
C197  C213  A    
C66   C96   A    
C270  H114  S    
C78   C88   A    
O86   C270  S    
C246  N8    A    
C80   C98   A    
C277  H134  S    
C70   C92   A    
C13   C152  S    
C1    O5    A    
C132  C140  T    
C89   H21   S    
C242  N6    A    
C220  C230  A    
C205  H13   S    
C202  H10   S    
C127  O31   A    
C136  C144  T    
C42   C54   A    
C222  C246  A    
C111  C135  S    
C156  C165  A    
C222  C232  A    
O85   C269  S    
C248  N8    A    
C274  H126  S    
C18   C58   A    
C74   H42   S    
C235  O35   S    
C210  C234  A    
C217  C241  A    
C6    C142  S    
C69   C81   A    
C20   C36   A    
C27   C43   A    
C21   C37   A    
C251  H55   S    
O82   C266  S    
C268  H108  S    
C81   C113  S    
C243  O43   S    
C67   H35   S    
Cu1   O7    S    
C15   C150  S    
C259  H80   S    
C177  F1    S    
C188  F12   S    
C250  H52   S    
C182  C198  A    
C179  F3    S    
C17   C57   A    
O69   C253  S    
Cu3   O19   S    
O87   C271  S    
C268  H107  S    
C234  O34   S    
C125  O27   A    
C94   C108  A    
C261  H86   S    
C247  O47   S    
C279  H139  S    
C198  H6    S    
C213  C237  A    
C224  C232  A    
Cu9   O52   S    
C37   C51   A    
C38   C52   A    
C155  C166  A    
O91   C275  S    
C68   H36   S    
C156  C180  A    
C163  C187  A    
C272  H118  S    
C205  C221  A    
C155  C169  A    
C234  N2    A    
C258  H78   S    
C27   C61   A    
C217  C229  A    
Cu10  O54   S    
C261  H87   S    
O67   C251  S    
C278  H137  S    
C99   C111  A    
C40   C52   A    
C36   O84   S    
Cu6   O26   S    
C76   C88   A    
C236  N2    A    
C93   C105  A    
C237  N3    A    
C41   O89   S    
C238  N4    A    
C190  F14   S    
C4    O6    A    
C26   O74   S    
C249  H51   S    
C15   O61   A    
C64   N8    S    
C99   H31   S    
Cu3   O21   S    
C28   O76   S    
C255  H68   S    
C257  H74   S    
C119  C151  T    
C120  C152  T    
C95   H19   S    
C206  H14   S    
C90   H24   S    
C22   O70   S    
C131  C139  T    
C82   C114  S    
C107  C131  S    
C192  F16   S    
Cu3   O3    S    
C254  H64   S    
C162  C186  A    
C23   O71   S    
C199  H7    S    
C265  H99   S    
C184  C200  A    
O93   C277  S    
C78   H46   S    
C11   O51   A    
C183  C199  A    
C166  C190  A    
C33   O81   S    
C195  H3    S    
C195  C211  A    
C178  F2    S    
C4    C140  S    
C193  C209  A    
O79   C263  S    
C251  H57   S    
C24   C60   A    
C103  H27   S    
C221  C231  A    
C70   H38   S    
C8    C144  S    
C74   C86   A    
C71   C91   A    
C265  H98   S    
C158  C182  A    
Cu11  O59   S    
C235  N1    A    
O96   C280  S    
C34   O82   S    
C263  H92   S    
C192  C208  A    
C236  O36   S    
C46   C56   A    
Cu11  Cu12  S    
C214  C228  A    
C47   C55   A    
C253  H61   S    
C73   C85   A    
C48   C56   A    
C122  O18   A    
Cu5   O15   S    
C279  H141  S    
C5    C141  S    
C172  C228  A    
C242  O42   S    
C7    O15   A    
C162  C174  A    
C42   O90   S    
Cu8   O32   S    
C166  C176  A    
C10   O54   A    
C203  C219  A    
C47   O95   S    
C272  H120  S    
C96   H18   S    
C160  C161  A    
C170  C226  A    
C26   C62   A    
C201  C217  A    
C258  H76   S    
Cu4   O20   S    
C59   N3    S    
C91   H23   S    
C276  H132  S    
C126  O28   A    
C23   C39   A    
C221  C245  A    
C65   C93   A    
C24   C40   A    
C181  F5    S    
C219  C243  A    
Cu12  O61   S    
Cu1   O23   S    
C9    O49   A    
C260  H82   S    
C209  C233  A    
C8    O12   A    
C37   O85   S    
C10   C145  S    
C77   C85   A    
C9    O55   A    
C65   H33   S    
C80   C86   A    
C220  C244  A    
C277  H135  S    
C256  H70   S    
C211  C225  A    
C262  H89   S    
C249  H49   S    
C159  C183  A    
C160  C184  A    
C72   C82   A    
C124  O22   A    
C38   O86   S    
