data_mof_unit_32424.cif
_audit_creation_date              2012-12-10T19:06:25-0500
_audit_creation_method            fapswitch 2.2
_symmetry_space_group_name_H-M    P1
_symmetry_Int_Tables_number       1
_space_group_crystal_system       triclinic
_cell_length_a                    23.51583
_cell_length_b                    10.866503
_cell_length_c                    9.561854
_cell_angle_alpha                 88.942713
_cell_angle_beta                  89.582657
_cell_angle_gamma                 90.691903
_cell_volume                      2442.72382003

loop_
_atom_site_label
_atom_site_type_symbol
_atom_type_description
_atom_site_fract_x
_atom_site_fract_y
_atom_site_fract_z
_atom_type_partial_charge
C1    C     C_R   0.500454 0.262572 0.500866 0.837312
C2    C     C_R   0.968325 0.314108 0.336665 0.411488
C3    C     C_R   0.028146 0.304432 0.347361 0.051766
C4    C     C_R   0.059328 0.392868 0.425382 -0.061284
C5    C     C_R   0.029188 0.478332 0.507063 -0.036961
C6    C     C_R   0.059453 0.562830 0.589689 -0.058519
C7    C     C_R   0.030187 0.644522 0.674415 -0.182045
C8    C     C_R   0.971227 0.645654 0.678465 0.409490
C9    C     C_R   0.119869 0.400401 0.424878 0.566311
C10   C     C_R   0.118893 0.564903 0.586239 0.562225
C11   C     C_R   0.238762 0.517639 0.379193 -0.083513
C12   C     C_R   0.390966 0.499701 0.500483 0.818947
C13   C     C_R   0.298079 0.520827 0.377979 -0.216413
C14   C     C_R   0.328368 0.497642 0.501640 -0.052325
C15   C     C_R   0.298286 0.471164 0.626262 -0.182127
C16   C     C_R   0.239065 0.465940 0.626780 -0.100326
C17   C     C_R   0.208938 0.489324 0.503409 0.336666
C18   C     C_R   0.757509 0.400911 0.566114 -0.118306
C19   C     C_R   0.698521 0.405388 0.564705 -0.171108
C20   C     C_R   0.670912 0.503727 0.498688 -0.071350
C21   C     C_R   0.703051 0.600382 0.433749 0.037957
C22   C     C_R   0.762912 0.593427 0.432852 0.442319
C23   C     C_R   0.499962 0.737764 0.498030 0.793726
C24   C     C_R   0.789881 0.494056 0.500251 0.206471
C25   C     C_R   0.521200 0.060849 0.614695 0.119623
C26   C     C_R   0.503708 0.129763 0.498858 -0.159471
C27   C     C_R   0.493470 0.069490 0.372813 -0.188503
C28   C     C_R   0.492853 0.941171 0.366954 0.150551
C29   C     C_R   0.503631 0.871519 0.491746 -0.108609
C30   C     C_R   0.520968 0.934144 0.610899 0.044800
C31   C     C_3   0.501990 0.920267 0.759944 -0.462000
C32   C     C_3   0.501460 0.060312 0.763925 -0.055283
C33   C     C_R   0.530396 0.587141 0.071396 0.151177
C34   C     C_R   0.608729 0.502141 0.499495 0.821547
C35   C     C_R   0.464881 0.424146 0.077657 -0.084544
C36   C     C_R   0.464163 0.424937 0.929373 0.439984
C37   C     C_R   0.532456 0.583109 0.924623 0.094691
C38   C     C_3   0.595971 0.598577 0.924353 0.219164
C39   C     C_3   0.592401 0.613657 0.081499 -0.475683
C40   C     C_R   0.879675 0.563852 0.591349 0.659475
C41   C     C_R   0.877966 0.406394 0.420695 0.640775
C42   C     C_R   0.938147 0.399189 0.419996 -0.119578
C43   C     C_R   0.968905 0.479825 0.507442 -0.109178
C44   C     C_R   0.939556 0.564003 0.593927 -0.090651
Cu1   Cu    Cu3+1 0.500000 0.499980 0.640670 1.016125
Cu2   Cu    Cu3+1 0.500000 0.500020 0.359330 0.954935
H1    H     H_    0.674183 0.331315 0.614724 0.186544
H2    H     H_    0.483043 0.122371 0.279442 0.173367
H3    H     H_    0.458845 0.877931 0.770542 0.194234
H4    H     H_    0.534979 0.876341 0.826346 0.197613
H5    H     H_    0.458003 0.097344 0.776658 0.229621
H6    H     H_    0.437391 0.361086 0.136229 0.166276
H7    H     H_    0.611116 0.682608 0.866713 0.118502
H8    H     H_    0.615940 0.542978 0.142145 0.268456
H9    H     H_    0.600659 0.709879 0.113730 0.150332
H10   H     H_    0.053238 0.708895 0.738886 0.219002
H11   H     H_    0.215921 0.536985 0.283515 0.157962
H12   H     H_    0.320165 0.542203 0.280592 0.166174
H13   H     H_    0.320405 0.453196 0.723140 0.207660
H14   H     H_    0.216488 0.443622 0.723222 0.159320
H15   H     H_    0.778280 0.324584 0.618213 0.187285
N1    N     N_R   0.850844 0.488046 0.503990 -0.469429
N2    N     N_R   0.147768 0.484798 0.504731 -0.464807
N3    N     N_R   0.500360 0.500930 0.147930 -0.189681
N4    N     N_R   0.500360 0.500890 0.852020 -0.193524
O1    O     O_R   0.500000 0.319640 0.618810 -0.534303
O2    O     O_2   0.846010 0.332561 0.340373 -0.427289
O3    O     O_2   0.151111 0.325981 0.344374 -0.545102
O4    O     O_2   0.147825 0.647964 0.662378 -0.531215
O5    O     O_R   0.500010 0.319680 0.381230 -0.591240
O6    O     O_R   0.417880 0.499940 0.618820 -0.537932
O7    O     O_R   0.417880 0.499980 0.381240 -0.593903
O8    O     O_R   0.499990 0.680320 0.618770 -0.589223
O9    O     O_R   0.500000 0.680360 0.381190 -0.582975
O10   O     O_R   0.582120 0.500020 0.618760 -0.531651
O11   O     O_R   0.582120 0.500060 0.381180 -0.584032
O12   O     O_2   0.849759 0.638422 0.674728 -0.416120
Cl1   Cl    Cl    0.933089 0.223272 0.209928 -0.459665
C45   C     C_3   0.675303 0.713103 0.370794 -0.755929
H16   H     H_    0.628427 0.712777 0.382509 0.204433
H17   H     H_    0.691521 0.796615 0.423362 0.264542
H18   H     H_    0.685970 0.720504 0.257701 0.263783
Cl2   Cl    Cl    0.804813 0.708421 0.346956 -0.493185
C46   C     C_3   0.477147 0.884530 0.228956 -0.797862
H19   H     H_    0.439019 0.824066 0.242292 0.242822
H20   H     H_    0.466700 0.955107 0.147916 0.215607
H21   H     H_    0.513527 0.831894 0.187769 0.236474
C47   C     C_3   0.545394 0.115485 0.862945 -0.717552
H22   H     H_    0.588321 0.076998 0.844353 0.241010
H23   H     H_    0.547723 0.216848 0.847224 0.277386
H24   H     H_    0.532427 0.095221 0.972934 0.226017
C48   C     C_3   0.057729 0.196928 0.279406 -0.611336
H25   H     H_    0.086415 0.151626 0.355764 0.242728
H26   H     H_    0.028588 0.122087 0.247511 0.255495
H27   H     H_    0.081755 0.229268 0.185083 0.256781
Cl3   Cl    Cl    0.416115 0.324162 0.849921 -0.678925
Cl4   Cl    Cl    0.633540 0.460733 0.885571 -0.575022
Cl5   Cl    Cl    0.941122 0.754866 0.790969 -0.437268

loop_
_geom_bond_atom_site_label_1
_geom_bond_atom_site_label_2
_ccdc_geom_bond_type
C27   H2    S    
Cu1   O6    S    
C41   C42   A    
C19   C20   A    
C46   H21   S    
Cu2   O11   S    
C7    C8    A    
C41   O2    S    
Cu1   Cu2   S    
C26   C27   A    
C29   C30   A    
C35   H6    S    
C18   C24   A    
C5    C6    A    
C41   N1    A    
C28   C29   A    
C23   O8    A    
C38   C39   S    
C19   H1    S    
C39   H8    S    
C28   C46   S    
C15   C16   A    
C32   C47   S    
C40   N1    A    
Cu1   O8    S    
C18   C19   A    
C16   H14   S    
C8    Cl5   S    
C39   H9    S    
C10   N2    A    
C16   C17   A    
C37   N4    A    
C35   N3    A    
Cu2   O7    S    
C34   O10   A    
C20   C34   S    
C25   C32   S    
C5    C43   A    
C21   C22   A    
C7    H10   S    
C31   H3    S    
C38   Cl4   S    
C46   H19   S    
C45   H17   S    
C36   N4    A    
C13   H12   S    
C25   C26   A    
C48   H27   S    
C33   C37   A    
Cu2   N3    S    
C3    C48   S    
C35   C36   A    
C43   C44   A    
C32   H5    S    
C37   C38   S    
C2    Cl1   S    
C36   Cl3   S    
C31   C32   S    
C14   C15   A    
C47   H24   S    
C21   C45   S    
C48   H26   S    
C1    O1    A    
C33   C39   S    
C20   C21   A    
C12   O6    A    
C47   H23   S    
Cu1   N4    S    
C1    C26   S    
C22   C24   A    
C42   C43   A    
C23   O9    A    
C3    C4    A    
C23   C29   S    
Cu2   O9    S    
C25   C30   A    
C11   C17   A    
C24   N1    S    
C9    N2    A    
C15   H13   S    
C8    C44   A    
C12   C14   S    
C4    C5    A    
C6    C10   A    
C45   H18   S    
C18   H15   S    
C6    C7    A    
C1    O5    A    
Cu1   O10   S    
C22   Cl2   S    
C2    C3    A    
C9    O3    S    
C11   H11   S    
C17   N2    S    
C11   C13   A    
C30   C31   S    
C38   H7    S    
C2    C42   A    
C33   N3    A    
C48   H25   S    
C12   O7    A    
Cu2   O5    S    
C45   H16   S    
C10   O4    S    
C40   C44   A    
C47   H22   S    
Cu1   O1    S    
C40   O12   S    
C46   H20   S    
C31   H4    S    
C4    C9    A    
C13   C14   A    
C34   O11   A    
C27   C28   A    
