data_mof_unit_36878.cif
_audit_creation_date              2013-03-05T16:00:02-0500
_audit_creation_method            fapswitch 2.2
_symmetry_space_group_name_H-M    P1
_symmetry_Int_Tables_number       1
_space_group_crystal_system       triclinic
_cell_length_a                    20.798055
_cell_length_b                    21.738564
_cell_length_c                    14.933244
_cell_angle_alpha                 90.085365
_cell_angle_beta                  130.020198
_cell_angle_gamma                 89.974897
_cell_volume                      5170.50079938

loop_
_atom_site_label
_atom_site_type_symbol
_atom_site_description
_atom_site_fract_x
_atom_site_fract_y
_atom_site_fract_z
_atom_type_partial_charge
O1    O     O_R   0.600040 0.935040 0.546740 -0.587728
O2    O     O_R   0.399960 0.064960 0.453260 -0.587696
O3    O     O_R   0.399960 0.935040 0.453260 -0.579338
O4    O     O_R   0.600040 0.064960 0.546740 -0.579327
O5    O     O_R   0.100040 0.435040 0.546740 -0.587863
O6    O     O_R   0.899960 0.564960 0.453260 -0.587854
O7    O     O_R   0.899960 0.435040 0.453260 -0.579243
O8    O     O_R   0.100040 0.564960 0.546740 -0.579231
O9    O     O_R   0.555010 0.935070 0.653220 -0.583138
O10   O     O_R   0.444990 0.064930 0.346780 -0.583151
O11   O     O_R   0.444990 0.935070 0.346780 -0.592036
O12   O     O_R   0.555010 0.064930 0.653220 -0.592025
O13   O     O_R   0.055010 0.435070 0.653220 -0.583549
O14   O     O_R   0.944990 0.564930 0.346780 -0.583555
O15   O     O_R   0.944990 0.435070 0.346780 -0.591882
O16   O     O_R   0.055010 0.564930 0.653220 -0.591879
C1    C     C_R   0.602850 0.914032 0.631364 0.795251
C2    C     C_R   0.397158 0.085975 0.368647 0.795245
C3    C     C_R   0.396161 0.914708 0.367192 0.790100
C4    C     C_R   0.603837 0.085293 0.632805 0.790087
C5    C     C_R   0.102683 0.413918 0.631166 0.795251
C6    C     C_R   0.897307 0.586074 0.368822 0.795239
C7    C     C_R   0.897504 0.413720 0.368857 0.789030
C8    C     C_R   0.102497 0.586279 0.631144 0.789049
Cu1   Cu    Cu3+1 0.526640 1.000000 0.436960 0.929477
Cu2   Cu    Cu3+1 0.473360 0.000000 0.563040 0.929487
Cu3   Cu    Cu3+1 0.026640 0.500000 0.436960 0.929238
Cu4   Cu    Cu3+1 0.973360 0.500000 0.563040 0.929242
C9    C     C_R   0.667364 0.131458 0.713513 -0.053011
C10   C     C_R   0.332628 0.868550 0.286476 -0.053010
C11   C     C_R   0.336050 0.134005 0.291722 -0.048621
C12   C     C_R   0.663978 0.866019 0.708319 -0.048603
C13   C     C_R   0.157118 0.638809 0.700857 -0.052903
C14   C     C_R   0.842890 0.361186 0.299152 -0.052887
C15   C     C_R   0.836809 0.634545 0.292624 -0.048154
C16   C     C_R   0.163143 0.365416 0.707315 -0.048188
C17   C     C_R   0.785653 0.196335 0.781983 -0.198149
C18   C     C_R   0.214303 0.803706 0.217951 -0.198155
C19   C     C_R   0.207750 0.189584 0.206640 -0.198258
C20   C     C_R   0.792363 0.810532 0.793558 -0.198245
C21   C     C_R   0.251339 0.720372 0.740091 -0.198975
C22   C     C_R   0.748727 0.279593 0.259978 -0.198964
C23   C     C_R   0.709404 0.691067 0.208766 -0.197656
C24   C     C_R   0.290421 0.308746 0.790946 -0.197628
C25   C     C_R   0.724881 0.153689 0.701936 -0.191142
C26   C     C_R   0.275085 0.846342 0.298015 -0.191154
C27   C     C_R   0.268530 0.147476 0.287919 -0.191737
C28   C     C_R   0.731556 0.852609 0.712226 -0.191750
C29   C     C_R   0.203403 0.668801 0.675643 -0.190623
C30   C     C_R   0.796644 0.331171 0.324409 -0.190625
C31   C     C_R   0.769576 0.648432 0.289230 -0.192368
C32   C     C_R   0.230298 0.351436 0.710566 -0.192346
C33   C     C_R   0.671854 0.151783 0.806284 -0.257658
C34   C     C_R   0.328157 0.848211 0.193726 -0.257662
C35   C     C_R   0.343590 0.164394 0.216600 -0.258527
C36   C     C_R   0.656409 0.835600 0.783386 -0.258534
C37   C     C_R   0.159323 0.660868 0.790793 -0.251401
C38   C     C_R   0.840664 0.339142 0.209188 -0.251389
C39   C     C_R   0.844795 0.665117 0.218076 -0.258001
C40   C     C_R   0.155184 0.334885 0.781924 -0.257956
C41   C     C_R   0.734521 0.192742 0.890721 0.089603
C42   C     C_R   0.265481 0.807266 0.109269 0.089597
C43   C     C_R   0.280158 0.203525 0.128095 0.090640
C44   C     C_R   0.719850 0.796481 0.871917 0.090652
C45   C     C_R   0.203721 0.714411 0.853092 0.089064
C46   C     C_R   0.796290 0.285588 0.146910 0.089060
C47   C     C_R   0.782023 0.704942 0.130494 0.090388
C48   C     C_R   0.217921 0.295012 0.869434 0.090362
C49   C     C_R   0.790422 0.216409 0.875470 0.166911
C50   C     C_R   0.209551 0.783621 0.124482 0.166916
C51   C     C_R   0.212336 0.216901 0.125765 0.166964
C52   C     C_R   0.787737 0.783177 0.874365 0.166947
C53   C     C_R   0.252121 0.743219 0.828738 0.164315
C54   C     C_R   0.747927 0.256758 0.171307 0.164320
C55   C     C_R   0.714329 0.718559 0.128345 0.166227
C56   C     C_R   0.285535 0.281299 0.871435 0.166234
C57   C     C_R   0.741271 0.212192 0.987507 0.065067
C58   C     C_R   0.258747 0.787807 0.012500 0.065062
C59   C     C_R   0.281774 0.229001 0.041573 0.070611
C60   C     C_R   0.718182 0.770954 0.958358 0.070637
C61   C     C_R   0.202880 0.739056 0.940670 0.065405
C62   C     C_R   0.797120 0.260955 0.059314 0.065407
C63   C     C_R   0.784000 0.730744 0.044483 0.070719
C64   C     C_R   0.215986 0.269252 0.955511 0.070697
C65   C     C_R   0.304790 0.816192 0.983897 -0.221135
C66   C     C_R   0.695264 0.183787 0.016148 -0.221144
C67   C     C_R   0.653822 0.785217 0.962929 -0.230386
C68   C     C_R   0.346046 0.214638 0.036849 -0.230314
C69   C     C_R   0.853110 0.282532 0.042777 -0.221783
C70   C     C_R   0.146863 0.717501 0.957172 -0.221775
C71   C     C_R   0.151401 0.283249 0.959782 -0.230805
C72   C     C_R   0.848659 0.716824 0.040338 -0.230866
C73   C     C_R   0.300743 0.794495 0.892952 -0.228370
C74   C     C_R   0.699326 0.205473 0.107113 -0.228364
C75   C     C_R   0.651958 0.759219 0.045863 -0.238419
C76   C     C_R   0.347864 0.240584 0.953836 -0.238363
C77   C     C_R   0.850220 0.260028 0.953248 -0.231119
C78   C     C_R   0.149741 0.740015 0.046685 -0.231134
C79   C     C_R   0.149568 0.257186 0.042732 -0.239730
C80   C     C_R   0.850533 0.742926 0.957453 -0.239712
H1    H     H_    0.336852 0.817620 0.873781 0.145186
H2    H     H_    0.663247 0.182331 0.126316 0.145181
H3    H     H_    0.600825 0.770901 0.044936 0.145763
H4    H     H_    0.398927 0.228818 0.954638 0.145761
H5    H     H_    0.894313 0.277694 0.943765 0.141833
H6    H     H_    0.105627 0.722367 0.056140 0.141820
H7    H     H_    0.098251 0.268622 0.041546 0.142125
H8    H     H_    0.901906 0.731549 0.958736 0.142117
H9    H     H_    0.375857 0.863737 0.190754 0.158935
H10   H     H_    0.624178 0.136236 0.809292 0.158915
H11   H     H_    0.599967 0.843512 0.770349 0.147217
H12   H     H_    0.400010 0.156461 0.229591 0.147265
H13   H     H_    0.872870 0.365338 0.187514 0.155277
H14   H     H_    0.127081 0.634689 0.812429 0.155290
H15   H     H_    0.099092 0.343406 0.769494 0.146935
H16   H     H_    0.900932 0.656658 0.230606 0.146922
H17   H     H_    0.277208 0.861649 0.368923 0.156180
H18   H     H_    0.722742 0.138392 0.631011 0.156190
H19   H     H_    0.738093 0.875220 0.653876 0.147621
H20   H     H_    0.262022 0.124897 0.346324 0.147675
H21   H     H_    0.797585 0.347394 0.393846 0.157406
H22   H     H_    0.202480 0.652567 0.606229 0.157406
H23   H     H_    0.237055 0.374073 0.652459 0.147437
H24   H     H_    0.762792 0.625754 0.347279 0.147411
H25   H     H_    0.287513 0.742618 0.720263 0.133752
H26   H     H_    0.712584 0.257329 0.279840 0.133758
H27   H     H_    0.657704 0.701322 0.207257 0.135752
H28   H     H_    0.342057 0.298412 0.792335 0.135736
H29   H     H_    0.828890 0.213735 0.770728 0.133560
H30   H     H_    0.171044 0.786323 0.229178 0.133553
H31   H     H_    0.155902 0.199590 0.204931 0.135438
H32   H     H_    0.844264 0.800582 0.795362 0.135443
H33   H     H_    0.342622 0.856754 0.027721 0.146458
H34   H     H_    0.657448 0.143218 0.972338 0.146447
H35   H     H_    0.603332 0.816550 0.903848 0.133098
H36   H     H_    0.396497 0.183258 0.095863 0.133046
H37   H     H_    0.902037 0.315534 0.100030 0.148738
H38   H     H_    0.097926 0.684509 0.899905 0.148737
H39   H     H_    0.100594 0.314290 0.900312 0.133170
H40   H     H_    0.899491 0.685810 0.099852 0.133210
N1    N     N_R   0.433280 1.000000 0.657760 -0.174319
N2    N     N_R   0.566720 0.000000 0.342240 -0.174353
N3    N     N_R   0.933280 0.500000 0.657760 -0.174660
N4    N     N_R   0.066720 0.500000 0.342240 -0.174656
C81   C     C_R   0.329750 0.039213 0.665396 -0.321210
C82   C     C_R   0.670119 0.960593 0.334520 -0.321202
C83   C     C_R   0.830555 0.540530 0.665957 -0.321180
C84   C     C_R   0.169440 0.459471 0.334032 -0.321189
C85   C     C_R   0.353881 0.020179 0.601763 0.034817
C86   C     C_R   0.646063 0.979716 0.398193 0.034867
C87   C     C_R   0.854241 0.520926 0.602054 0.036112
C88   C     C_R   0.145758 0.479071 0.397940 0.036091
C89   C     C_R   0.488712 0.990769 0.778373 0.302954
C90   C     C_R   0.511291 0.009240 0.221629 0.302961
C91   C     C_R   0.988597 0.490576 0.778317 0.301426
C92   C     C_R   0.011402 0.509432 0.221685 0.301423
C93   C     C_R   0.461357 0.000250 0.844371 -0.023361
C94   C     C_R   0.538624 0.999715 0.155610 -0.023355
C95   C     C_R   0.961391 0.500451 0.844408 -0.021721
C96   C     C_R   0.038603 0.499558 0.155586 -0.021717
C97   C     C_R   0.385171 0.032543 0.787138 0.129943
C98   C     C_R   0.614727 0.967323 0.212794 0.129920
C99   C     C_R   0.885853 0.533522 0.787619 0.130224
C100  C     C_R   0.114140 0.466483 0.212370 0.130240
C101  C     C_R   0.509748 0.985569 0.967002 0.075738
C102  C     C_R   0.490233 0.014393 0.032974 0.075719
C103  C     C_R   0.009515 0.485452 0.966833 0.078802
C104  C     C_R   0.990478 0.514558 0.033160 0.078797
C105  C     C_R   0.425048 0.058296 0.974646 -0.242185
C106  C     C_R   0.574856 0.941610 0.025267 -0.242136
C107  C     C_R   0.926098 0.559084 0.975464 -0.242697
C108  C     C_R   0.073888 0.440923 0.024522 -0.242716
C109  C     C_R   0.368881 0.062683 0.853244 -0.193179
C110  C     C_R   0.630942 0.937132 0.146646 -0.193207
C111  C     C_R   0.870149 0.563997 0.854130 -0.194237
C112  C     C_R   0.129836 0.436004 0.145854 -0.194263
H41   H     H_    0.315178 0.093031 0.811436 0.150604
H42   H     H_    0.684526 0.906680 0.188392 0.150632
H43   H     H_    0.817074 0.594919 0.812732 0.150553
H44   H     H_    0.182903 0.405074 0.187248 0.150552
H45   H     H_    0.688154 0.972416 0.491664 0.131236
H46   H     H_    0.311776 0.027443 0.508279 0.131205
H47   H     H_    0.187787 0.471564 0.491343 0.131791
H48   H     H_    0.812212 0.528429 0.508651 0.131779
H49   H     H_    0.269467 0.061552 0.620164 0.145750
H50   H     H_    0.730317 0.938140 0.379703 0.145759
H51   H     H_    0.770740 0.563523 0.621007 0.145543
H52   H     H_    0.229255 0.436476 0.378978 0.145540
H53   H     H_    0.415939 0.089502 0.021490 0.154828
H54   H     H_    0.583960 0.910412 0.978389 0.154814
H55   H     H_    0.917412 0.590338 0.022769 0.154688
H56   H     H_    0.082563 0.409672 0.977207 0.154662
C113  C     C_3   0.417972 0.016706 0.155200 -0.799796
H57   H     H_    0.401372 0.065801 0.147495 0.208942
H58   H     H_    0.379860 0.994971 0.067530 0.197746
H59   H     H_    0.394929 0.992812 0.193418 0.267136
C114  C     C_3   0.582030 0.983287 0.844805 -0.799789
H60   H     H_    0.620144 0.004968 0.932525 0.197738
H61   H     H_    0.598602 0.934185 0.852429 0.209026
H62   H     H_    0.605094 0.007210 0.806637 0.267080
C115  C     C_3   0.918149 0.517223 0.155283 -0.798311
H63   H     H_    0.901903 0.566370 0.148146 0.208892
H64   H     H_    0.879884 0.495905 0.067259 0.200455
H65   H     H_    0.895025 0.493085 0.193244 0.266191
C116  C     C_3   0.081854 0.482795 0.844728 -0.798292
H66   H     H_    0.120109 0.504120 0.932747 0.200463
H67   H     H_    0.098113 0.433650 0.851891 0.208834
H68   H     H_    0.104979 0.506931 0.806769 0.266188

loop_
_geom_bond_atom_site_label_1
_geom_bond_atom_site_label_2
_geom_bond_distance
_ccdc_geom_bond_type
C25   H18   1.082926 S    
O16   Cu4   1.935156 S    
C26   H17   1.082929 S    
C18   C50   1.403363 A    
C47   C63   1.426941 A    
C101  C102  1.428329 A    
C17   C49   1.403353 A    
C35   H12   1.073070 S    
O2    C2    1.309822 A    
C44   C60   1.426586 A    
C115  H63   1.104830 S    
C54   C74   1.391111 A    
Cu1   N2    2.052329 S    
C53   C73   1.391132 A    
C99   C111  1.395388 A    
C68   C76   1.385149 A    
O4    Cu1   1.946389 S    
C12   C28   1.399288 A    
C55   C75   1.388684 A    
C87   H48   1.081047 S    
C5    C16   1.466066 S    
C43   C59   1.426618 A    
C116  H66   1.108651 S    
C108  H56   1.075048 S    
C96   C104  1.448662 A    
C6    C15   1.466023 S    
C82   C98   1.400077 A    
O11   C3    1.311144 A    
C62   C69   1.416924 A    
C19   H31   1.084067 S    
C96   C100  1.411243 A    
O12   Cu2   1.935156 S    
O10   C2    1.312453 A    
C90   C94   1.434584 A    
C60   C67   1.417625 A    
C52   C80   1.388869 A    
C59   C64   1.424832 A    
C32   H23   1.083078 S    
C11   C35   1.395701 A    
C89   C114  1.517025 S    
O11   Cu1   1.935159 S    
C13   C29   1.400362 A    
O6    C6    1.309920 A    
C42   C58   1.422946 A    
C45   C53   1.417691 A    
C42   C50   1.417627 A    
C15   C39   1.395953 A    
C114  H61   1.104859 S    
C20   C28   1.392119 A    
C66   C74   1.387492 A    
C51   C79   1.388891 A    
C39   C47   1.403865 A    
C82   C86   1.392039 A    
C90   C113  1.517022 S    
C33   C41   1.401944 A    
C38   C46   1.402065 A    
C104  C107  1.410579 A    
O6    Cu4   1.948962 S    
C75   H3    1.084651 S    
C39   H16   1.072826 S    
C113  H58   1.108773 S    
C35   C43   1.403836 A    
C38   H13   1.075826 S    
C36   C44   1.403857 A    
O13   Cu4   1.936999 S    
O3    C3    1.311963 A    
C64   C71   1.418008 A    
C105  H53   1.074410 S    
O14   Cu3   1.936998 S    
C86   H45   1.081136 S    
Cu2   N1    2.052330 S    
C110  H42   1.084377 S    
C36   H11   1.073080 S    
C16   C32   1.399270 A    
C77   H5    1.084439 S    
C7    C14   1.467938 S    
O15   C7    1.311147 A    
C20   H32   1.084015 S    
O16   C8    1.311148 A    
O5    Cu3   1.948963 S    
O1    Cu1   1.948963 S    
C31   H24   1.083061 S    
C115  H64   1.108636 S    
C30   H21   1.082935 S    
C65   C73   1.387485 A    
C95   C103  1.448642 A    
C60   C63   1.424803 A    
C92   C115  1.516689 S    
C21   C29   1.393095 A    
C59   C68   1.417812 A    
C70   H38   1.077503 S    
C66   H34   1.077720 S    
O9    Cu2   1.936999 S    
C28   H19   1.083069 S    
C4    C9    1.467957 S    
C116  H67   1.104809 S    
C23   C55   1.403678 A    
O15   Cu3   1.935159 S    
C80   H8    1.084702 S    
C22   C54   1.403477 A    
C91   C95   1.434512 A    
C48   C64   1.426956 A    
C67   H35   1.074558 S    
C92   C96   1.434527 A    
C68   H36   1.074635 S    
C93   C101  1.448928 A    
C103  C104  1.428418 A    
C72   C80   1.385503 A    
C94   C98   1.411664 A    
C111  H43   1.084177 S    
C34   C42   1.401925 A    
C83   H51   1.083761 S    
Cu1   Cu2   2.730583 S    
C107  C111  1.391859 A    
O7    Cu4   1.946392 S    
C34   H9    1.075654 S    
C69   C77   1.387485 A    
C12   C36   1.395680 A    
C9    C33   1.398237 A    
C84   C100  1.400028 A    
N4    C92   1.394191 A    
C114  H62   1.085421 S    
C83   C87   1.392161 A    
C63   C72   1.417911 A    
C21   H25   1.083892 S    
C46   C62   1.423052 A    
C10   C34   1.398239 A    
C45   C61   1.423045 A    
C109  H41   1.084559 S    
C113  H59   1.085372 S    
O12   C4    1.311147 A    
Cu3   N4    2.052329 S    
O13   C5    1.312288 A    
O2    Cu2   1.948962 S    
Cu4   N3    2.052330 S    
C23   H27   1.083999 S    
C48   C56   1.418748 A    
N2    C90   1.394198 A    
C88   H47   1.081053 S    
O14   C6    1.312282 A    
C40   C48   1.403912 A    
C103  C108  1.410548 A    
C22   C30   1.393078 A    
C71   H39   1.074641 S    
C61   C70   1.416906 A    
C58   C65   1.416869 A    
O9    C1    1.312437 A    
C27   H20   1.083098 S    
C16   C40   1.395973 A    
C43   C51   1.418448 A    
C57   C66   1.416841 A    
C69   H37   1.077513 S    
C76   H4    1.084815 S    
C15   C31   1.399113 A    
C85   H46   1.081169 S    
C115  H65   1.086147 S    
C95   C99   1.411218 A    
C47   C55   1.418585 A    
C73   H1    1.084398 S    
C72   H40   1.074634 S    
C93   C97   1.411765 A    
C49   C77   1.390985 A    
O10   Cu1   1.936998 S    
C19   C27   1.392138 A    
C106  C110  1.391668 A    
C116  H68   1.086127 S    
C41   C49   1.417644 A    
C101  C106  1.410649 A    
C1    C12   1.466180 S    
C41   C57   1.422933 A    
C67   C75   1.385133 A    
C24   H28   1.084137 S    
C13   C37   1.398100 A    
C20   C52   1.403760 A    
C82   H50   1.083961 S    
O3    Cu2   1.946392 S    
C84   C88   1.392163 A    
C97   C109  1.395203 A    
C37   C45   1.402089 A    
C91   C116  1.516703 S    
C78   H6    1.084420 S    
C24   C32   1.391946 A    
C14   C30   1.400350 A    
C37   H14   1.075831 S    
C98   C110  1.395189 A    
C84   H52   1.083779 S    
C79   H7    1.084764 S    
C106  H54   1.074627 S    
O1    C1    1.309827 A    
C8    C13   1.467942 S    
C18   H30   1.083900 S    
C10   C26   1.400383 A    
N3    C91   1.394179 A    
C71   C79   1.385528 A    
N2    C86   1.357499 A    
N4    C88   1.357563 A    
C83   C99   1.400018 A    
C56   C76   1.388770 A    
C58   C61   1.420745 A    
N1    C89   1.394187 A    
N1    C85   1.357606 A    
C81   C97   1.400113 A    
C57   C62   1.420742 A    
C23   C31   1.391870 A    
O7    C7    1.312061 A    
C29   H22   1.082922 S    
N3    C87   1.357558 A    
O8    C8    1.312059 A    
C17   H29   1.083912 S    
C100  C112  1.395385 A    
C44   C52   1.418383 A    
C89   C93   1.434560 A    
C114  H60   1.108803 S    
C107  H55   1.075106 S    
C81   C85   1.392150 A    
C18   C26   1.392992 A    
C22   H26   1.083884 S    
C33   H10   1.075685 S    
C21   C53   1.403461 A    
O4    C4    1.311965 A    
C94   C102  1.448989 A    
C108  C112  1.391859 A    
C112  H44   1.084194 S    
O5    C5    1.309927 A    
C74   H2    1.084380 S    
C102  C105  1.410716 A    
C113  H57   1.104723 S    
C81   H49   1.084101 S    
Cu3   Cu4   2.730583 S    
C14   C38   1.398122 A    
O8    Cu3   1.946389 S    
C105  C109  1.391785 A    
C40   H15   1.072917 S    
C11   C27   1.399340 A    
C2    C11   1.466199 S    
C24   C56   1.403690 A    
C3    C10   1.467948 S    
C17   C25   1.393006 A    
C70   C78   1.387485 A    
C9    C25   1.400409 A    
C50   C78   1.390967 A    
C65   H33   1.077743 S    
C19   C51   1.403791 A    
C46   C54   1.417680 A    
