data_mof_unit_62617.cif
_audit_creation_date              2012-12-10T19:58:38-0500
_audit_creation_method            fapswitch 2.2
_symmetry_space_group_name_H-M    P1
_symmetry_Int_Tables_number       1
_space_group_crystal_system       triclinic
_cell_length_a                    14.96933
_cell_length_b                    14.199498
_cell_length_c                    19.252554
_cell_angle_alpha                 90.006365
_cell_angle_beta                  90.246451
_cell_angle_gamma                 89.966547
_cell_volume                      4092.22599101

loop_
_atom_site_label
_atom_site_type_symbol
_atom_type_description
_atom_site_fract_x
_atom_site_fract_y
_atom_site_fract_z
_atom_type_partial_charge
C1    C     C_R   0.327712 0.500063 0.499271 1.010508
C2    C     C_R   0.951840 0.498307 0.484480 -0.270763
C3    C     C_R   0.469102 0.105027 0.442159 0.545831
C4    C     C_R   0.575010 0.895031 0.522683 0.547034
C5    C     C_R   0.530864 0.104993 0.557829 0.543122
C6    C     C_R   0.424945 0.895077 0.477262 0.547400
C7    C     C_R   0.467896 0.204113 0.443843 0.556609
C8    C     C_R   0.572894 0.795950 0.523703 0.554241
C9    C     C_R   0.532123 0.204075 0.556144 0.559387
C10   C     C_R   0.427108 0.795987 0.476242 0.550852
C11   C     C_R   0.499961 0.053283 0.499996 -0.219996
C12   C     C_R   0.672231 0.499952 0.499203 1.007625
C13   C     C_R   0.499962 0.946782 0.499987 -0.229184
C14   C     C_R   0.500366 0.499994 0.366240 0.779506
C15   C     C_R   0.499413 0.499995 0.633853 0.780961
C16   C     C_R   0.577676 0.466803 0.743824 -0.139419
C17   C     C_R   0.422674 0.521280 0.254649 -0.082198
C18   C     C_R   0.584106 0.485828 0.257217 -0.073324
C19   C     C_R   0.423156 0.527894 0.745065 -0.132162
C20   C     C_R   0.578327 0.465074 0.816850 -0.008028
C21   C     C_R   0.424588 0.523388 0.181635 0.003461
C22   C     C_R   0.586115 0.488042 0.184204 0.010861
C23   C     C_R   0.183178 0.574233 0.524667 0.549585
C24   C     C_R   0.424208 0.527597 0.818064 -0.000869
C25   C     C_R   0.502078 0.496612 0.853129 0.210515
C26   C     C_R   0.506629 0.508322 0.147460 0.138269
C27   C     C_R   0.500611 0.499860 0.709014 -0.108554
C28   C     C_R   0.501944 0.500096 0.291256 -0.148594
C29   C     C_R   0.519835 0.585274 0.962440 0.596157
C30   C     C_R   0.493373 0.419122 0.038219 0.563391
C31   C     C_R   0.521222 0.588156 0.034404 0.528429
C32   C     C_R   0.492187 0.416157 0.966277 0.586544
C33   C     C_R   0.507521 0.505161 0.071986 -0.543595
C34   C     C_R   0.816947 0.426871 0.526037 0.501787
C35   C     C_R   0.504896 0.499332 0.928620 -0.369665
C36   C     C_R   0.091093 0.574424 0.519878 0.637103
C37   C     C_R   0.908985 0.426561 0.521247 0.632421
C38   C     C_R   0.903363 0.569904 0.451785 0.659625
C39   C     C_R   0.095880 0.428934 0.452905 0.656191
C40   C     C_2   0.658414 0.440991 0.702503 0.602779
C41   C     C_2   0.339788 0.544027 0.294039 0.617861
C42   C     C_2   0.667494 0.474375 0.299149 0.569798
C43   C     C_2   0.340547 0.553135 0.705365 0.423366
C44   C     C_2   0.659742 0.434834 0.855619 0.526231
C45   C     C_R   0.811307 0.570833 0.456906 0.545688
C46   C     C_2   0.341281 0.535546 0.139728 0.615401
C47   C     C_2   0.668935 0.464656 0.144919 0.608969
C48   C     C_2   0.345440 0.564060 0.857102 0.590250
C49   C     C_R   0.188002 0.428134 0.457990 0.494973
C50   C     C_R   0.231736 0.500419 0.494461 -0.556852
C51   C     C_R   0.768077 0.499631 0.494522 -0.574916
C52   C     C_R   0.047799 0.501529 0.484409 -0.265183
F1    F     F_    0.532756 0.665589 0.925548 -0.549493
F2    F     F_    0.775970 0.357971 0.563043 -0.518758
F3    F     F_    0.764536 0.639889 0.424107 -0.520990
F4    F     F_    0.234299 0.358059 0.426272 -0.521034
F5    F     F_    0.442089 0.060373 0.383382 -0.487691
F6    F     F_    0.651177 0.939676 0.542355 -0.481664
F7    F     F_    0.557885 0.060312 0.616600 -0.494587
F8    F     F_    0.348781 0.939774 0.457540 -0.479240
F9    F     F_    0.434286 0.251488 0.388565 -0.512583
F10   F     F_    0.644746 0.748711 0.548683 -0.523076
F11   F     F_    0.565808 0.251403 0.611404 -0.521022
F12   F     F_    0.480114 0.338898 0.075148 -0.525915
F13   F     F_    0.355352 0.748773 0.451143 -0.516171
F14   F     F_    0.535103 0.671266 0.067620 -0.541186
F15   F     F_    0.477645 0.333097 0.933153 -0.538209
F16   F     F_    0.043839 0.643767 0.551614 -0.514789
F17   F     F_    0.956632 0.358293 0.554182 -0.515716
F18   F     F_    0.945469 0.638640 0.415396 -0.500208
F19   F     F_    0.053325 0.359088 0.417709 -0.507746
F20   F     F_    0.224448 0.644412 0.560403 -0.543260
H1    H     H_    0.672639 0.477892 0.654475 0.062060
H2    H     H_    0.325322 0.507743 0.342275 0.058842
H3    H     H_    0.666389 0.435466 0.347601 0.040961
H4    H     H_    0.345189 0.589161 0.655924 0.136775
H5    H     H_    0.691518 0.368134 0.844049 0.164167
H6    H     H_    0.343076 0.573054 0.090664 0.085971
H7    H     H_    0.682742 0.499139 0.095835 0.087456
H8    H     H_    0.306295 0.621770 0.836021 0.121721
N1    N     N_R   0.500000 0.252470 0.500000 -0.283974
N2    N     N_R   0.500000 0.747530 0.500000 -0.283322
O1    O     O_R   0.369060 0.579480 0.500010 -0.533338
O2    O     O_2   0.289281 0.606416 0.274780 -0.450207
O3    O     O_2   0.737193 0.511924 0.281581 -0.455223
O4    O     O_2   0.266630 0.530514 0.726089 -0.484208
O5    O     O_2   0.692048 0.484607 0.900925 -0.515976
O6    O     O_2   0.270931 0.499896 0.157850 -0.441495
O7    O     O_2   0.720188 0.403553 0.165217 -0.451470
O8    O     O_2   0.322238 0.528994 0.912042 -0.525961
O9    O     O_R   0.630940 0.420520 0.499990 -0.574041
O10   O     O_R   0.630940 0.579480 0.499990 -0.510731
O11   O     O_R   0.369060 0.420520 0.500010 -0.552720
O12   O     O_R   0.500020 0.579510 0.398180 -0.589156
O13   O     O_R   0.499980 0.420490 0.601820 -0.544439
O14   O     O_R   0.499980 0.579510 0.601820 -0.618643
O15   O     O_R   0.500020 0.420490 0.398180 -0.556106
O16   O     O_2   0.707780 0.376669 0.719771 -0.453946
Zn1   Zn    Zn3+2 0.500000 0.606140 0.500000 1.120633
Zn2   Zn    Zn3+2 0.500000 0.393860 0.500000 1.130276

loop_
_geom_bond_atom_site_label_1
_geom_bond_atom_site_label_2
_ccdc_geom_bond_type
C31   F14   S    
C30   C32   A    
C21   C26   A    
C38   F18   S    
C30   F12   S    
C34   C37   A    
N2    Zn1   S    
C12   O9    A    
C47   H7    S    
C4    C8    A    
O15   Zn2   S    
C42   H3    S    
C8    N2    A    
C44   H5    S    
C5    C11   A    
C3    C7    A    
C18   C42   S    
C40   O16   D    
C20   C25   A    
C45   C51   A    
C23   C36   A    
O14   Zn1   S    
C40   H1    S    
C4    C13   A    
C7    F9    S    
C38   C45   A    
C9    N1    A    
C41   H2    S    
C31   C33   A    
O9    Zn2   S    
C44   O5    D    
C19   C27   A    
C1    C50   S    
C36   C52   A    
C16   C27   A    
C22   C47   S    
O1    Zn1   S    
C47   O7    D    
C20   C44   S    
C19   C43   S    
C46   O6    D    
C5    F7    S    
C24   C48   S    
C32   C35   A    
C6    F8    S    
C18   C28   A    
C24   C25   A    
C15   O14   A    
C46   H6    S    
O13   Zn2   S    
C23   C50   A    
C41   O2    D    
C10   N2    A    
C17   C21   A    
C5    C9    A    
C37   F17   S    
C2    C38   A    
C26   C33   S    
C15   C27   S    
C16   C20   A    
C34   C51   A    
C42   O3    D    
O11   Zn2   S    
C2    C52   S    
C16   C40   S    
C32   F15   S    
C3    F5    S    
C39   C49   A    
C25   C35   S    
C34   F2    S    
C12   C51   S    
C14   O15   A    
C21   C46   S    
C10   F13   S    
C43   H4    S    
C30   C33   A    
C7    N1    A    
C9    F11   S    
C17   C28   A    
C23   F20   S    
C12   O10   A    
C6    C10   A    
C36   F16   S    
N1    Zn2   S    
C1    O1    A    
C49   F4    S    
C29   C35   A    
C48   H8    S    
C18   C22   A    
C19   C24   A    
C29   C31   A    
C6    C13   A    
C15   O13   A    
C11   C13   S    
C2    C37   A    
C29   F1    S    
O12   Zn1   S    
C39   C52   A    
C17   C41   S    
C43   O4    D    
C3    C11   A    
C45   F3    S    
C1    O11   A    
C49   C50   A    
C22   C26   A    
C4    F6    S    
C39   F19   S    
C48   O8    D    
C14   C28   S    
C14   O12   A    
O10   Zn1   S    
C8    F10   S    
