data_mof_unit_10350.cif
_audit_creation_date              2012-12-10T19:00:15-0500
_audit_creation_method            fapswitch 2.2
_symmetry_space_group_name_H-M    P1
_symmetry_Int_Tables_number       1
_space_group_crystal_system       triclinic
_cell_length_a                    9.636361
_cell_length_b                    10.819405
_cell_length_c                    13.466735
_cell_angle_alpha                 91.937464
_cell_angle_beta                  72.55914
_cell_angle_gamma                 89.910509
_cell_volume                      1338.62312114

loop_
_atom_site_label
_atom_site_type_symbol
_atom_type_description
_atom_site_fract_x
_atom_site_fract_y
_atom_site_fract_z
_atom_type_partial_charge
C1    C     C_R   0.500646 0.737257 0.497696 0.780819
C2    C     C_R   0.431052 0.490667 0.977839 -0.080977
C3    C     C_R   0.481496 0.461004 0.868418 -0.085298
C4    C     C_R   0.539216 0.512930 0.030743 -0.103590
C5    C     C_R   0.689074 0.503116 0.972303 -0.100912
C6    C     C_R   0.731482 0.459247 0.869609 -0.234111
C7    C     C_R   0.629004 0.429476 0.821136 0.628511
C8    C     C_R   0.509767 0.536660 0.139097 0.589853
C9    C     C_R   0.764169 0.527209 0.127072 -0.332040
C10   C     C_R   0.380681 0.456101 0.810335 -0.116718
C11   C     C_R   0.377129 0.939169 0.551856 0.119400
C12   C     C_R   0.423226 0.484302 0.698188 0.831029
C13   C     C_R   0.501053 0.870910 0.496957 -0.088099
C14   C     C_R   0.629937 0.933665 0.448918 -0.225015
C15   C     C_R   0.631495 0.062589 0.452140 -0.205016
C16   C     C_R   0.502531 0.129678 0.499697 -0.065002
C17   C     C_R   0.377733 0.066659 0.552197 0.119025
C18   C     C_3   0.228067 0.074997 0.542360 -0.495990
C19   C     C_3   0.226556 0.935128 0.542633 -0.432121
C20   C     C_R   0.945480 0.402485 0.457291 0.095650
C21   C     C_R   0.900418 0.586291 0.558410 0.421050
C22   C     C_R   0.050039 0.583174 0.561094 0.382070
C23   C     C_R   0.500943 0.262797 0.498427 0.782404
C24   C     C_R   0.091444 0.403208 0.456554 0.039887
C25   C     C_3   0.144269 0.349260 0.348581 -0.443563
C26   C     C_3   0.985845 0.346088 0.349561 0.453902
C27   C     C_R   0.577532 0.508633 0.300817 0.853668
C28   C     C_R   0.797383 0.526366 0.019590 0.574611
C29   C     C_R   0.619221 0.522818 0.187404 -0.253050
C30   C     C_R   0.237306 0.426316 0.862246 -0.236870
C31   C     C_R   0.189801 0.430796 0.970147 -0.152107
C32   C     C_R   0.276677 0.483754 0.026158 0.467736
Cu1   Cu    Cu3+1 0.359330 0.500020 0.500010 1.001715
Cu2   Cu    Cu3+1 0.640670 0.499980 0.499990 1.043429
H1    H     H_    0.850714 0.532383 0.162421 0.249586
H2    H     H_    0.731039 0.109382 0.412812 0.147817
H3    H     H_    0.149703 0.119423 0.612603 0.205024
H4    H     H_    0.226013 0.111957 0.466892 0.205095
H5    H     H_    0.148268 0.900968 0.614009 0.223864
H6    H     H_    0.221222 0.890719 0.468177 0.210172
H7    H     H_    0.211612 0.414561 0.292882 0.298758
H8    H     H_    0.193153 0.255711 0.345333 0.127031
H9    H     H_    0.844399 0.436947 0.829211 0.178228
H10   H     H_    0.942958 0.251316 0.346180 0.049673
H11   H     H_    0.161476 0.402079 0.819837 0.183863
H12   H     H_    0.079737 0.405178 0.011098 0.222737
H13   H     H_    0.727587 0.883410 0.405483 0.145250
N1    N     N_R   0.852320 0.499070 0.499340 -0.199525
N2    N     N_R   0.148230 0.499110 0.499340 -0.202692
O1    O     O_R   0.381190 0.680360 0.500000 -0.524464
O2    O     O_R   0.618780 0.680320 0.499990 -0.569538
O3    O     O_R   0.323230 0.500000 0.650990 -0.585763
O4    O     O_R   0.560820 0.499960 0.650980 -0.483232
O5    O     O_R   0.381220 0.319680 0.500010 -0.591676
O6    O     O_R   0.618810 0.319640 0.500000 -0.563327
O7    O     O_R   0.439180 0.500040 0.349020 -0.532326
O8    O     O_R   0.676770 0.500000 0.349010 -0.548155
O9    O     O_3   0.798685 0.665956 0.624615 -0.562983
C33   C     C_3   0.830044 0.790332 0.598351 0.060079
H14   H     H_    0.835880 0.804450 0.516149 0.146308
H15   H     H_    0.933781 0.820577 0.608952 0.162569
C34   C     C_3   0.712447 0.873530 0.670506 -0.751050
H16   H     H_    0.718281 0.869493 0.751464 0.233162
H17   H     H_    0.728522 0.970555 0.645461 0.221055
H18   H     H_    0.603020 0.842982 0.669683 0.249150
O10   O     O_3   0.100776 0.669762 0.619194 -0.595656
C35   C     C_3   0.044236 0.648129 0.726578 0.124753
H19   H     H_    0.059362 0.549992 0.742807 0.169001
H20   H     H_    0.926660 0.671849 0.756648 0.179927
C36   C     C_3   0.123783 0.730037 0.785685 -0.755286
H21   H     H_    0.092164 0.828316 0.783548 0.210704
H22   H     H_    0.095614 0.704550 0.868252 0.254382
H23   H     H_    0.243291 0.720116 0.750351 0.242782
F1    F     F_    0.958887 0.423736 0.278350 -0.652088
F2    F     F_    0.935317 0.544326 0.960446 -0.757362
F3    F     F_    0.384252 0.588382 0.198428 -0.658426
O11   O     O_3   0.204860 0.527459 0.125609 -0.505521
C37   C     C_3   0.155949 0.649888 0.119302 0.191373
H24   H     H_    0.078891 0.652207 0.072210 0.149963
H25   H     H_    0.249565 0.710818 0.083512 0.139325
C38   C     C_3   0.077229 0.703576 0.227959 -0.715970
H26   H     H_    0.148224 0.700403 0.279268 0.283251
H27   H     H_    0.046289 0.801460 0.222455 0.159444
H28   H     H_    0.976685 0.651639 0.263842 0.267066
F4    F     F_    0.672815 0.354317 0.734250 -0.670632

loop_
_geom_bond_atom_site_label_1
_geom_bond_atom_site_label_2
_ccdc_geom_bond_type
C27   C29   S    
C30   H11   S    
C4    C8    A    
C38   H26   S    
C26   H10   S    
O11   C37   S    
Cu1   O3    S    
C11   C19   S    
Cu2   O2    S    
C5    C6    A    
C8    C29   A    
C19   H5    S    
C18   H3    S    
C3    C7    A    
C30   C31   A    
C37   H25   S    
Cu1   N2    S    
C15   C16   A    
C8    F3    S    
C2    C32   A    
C18   C19   S    
C22   O10   S    
C34   H17   S    
Cu1   O1    S    
C12   O3    A    
C32   O11   S    
C20   C24   A    
C16   C17   A    
C31   H12   S    
Cu2   O8    S    
C36   H21   S    
C1    O1    A    
C12   O4    A    
C9    C29   A    
C21   N1    A    
Cu1   O7    S    
O10   C35   S    
C33   H14   S    
C13   C14   A    
C38   H27   S    
Cu1   Cu2   S    
C33   H15   S    
C35   H19   S    
C24   C25   S    
C27   O8    A    
C25   H7    S    
C37   H24   S    
C25   C26   S    
C35   H20   S    
C2    C4    A    
C34   H16   S    
C5    C28   A    
C10   C30   A    
C31   C32   A    
C36   H23   S    
C17   C18   S    
C20   N1    A    
C1    O2    A    
C14   H13   S    
C10   C12   S    
C22   N2    A    
C16   C23   S    
C6    H9    S    
O9    C33   S    
C1    C13   S    
C15   H2    S    
C38   H28   S    
C23   O5    A    
Cu1   O5    S    
C11   C17   A    
C33   C34   S    
C34   H18   S    
C27   O7    A    
C4    C5    A    
C25   H8    S    
C23   O6    A    
C6    C7    A    
C35   C36   S    
C2    C3    A    
C18   H4    S    
C21   O9    S    
C3    C10   A    
C11   C13   A    
C37   C38   S    
C7    F4    S    
C20   C26   S    
C24   N2    A    
C26   F1    S    
C19   H6    S    
Cu2   O6    S    
Cu2   N1    S    
Cu2   O4    S    
C9    H1    S    
C14   C15   A    
C36   H22   S    
C21   C22   A    
C28   F2    S    
C9    C28   A    
