data_mof_unit_59720.cif
_audit_creation_date              2012-12-11T15:15:39-0500
_audit_creation_method            fapswitch 2.2
_symmetry_space_group_name_H-M    P1
_symmetry_Int_Tables_number       1
_space_group_crystal_system       triclinic
_cell_length_a                    20.566928
_cell_length_b                    22.804709
_cell_length_c                    6.929079
_cell_angle_alpha                 90.002312
_cell_angle_beta                  87.063147
_cell_angle_gamma                 90.000027
_cell_volume                      3245.62770264

loop_
_atom_site_label
_atom_site_type_symbol
_atom_type_description
_atom_site_fract_x
_atom_site_fract_y
_atom_site_fract_z
_atom_type_partial_charge
O1    O     O_R   0.387100 0.552640 0.378490 -0.521987
O2    O     O_R   0.612900 0.052640 0.621510 -0.521932
O3    O     O_R   0.249610 0.559600 0.072250 -0.549872
O4    O     O_R   0.750390 0.059600 0.927750 -0.549894
O5    O     O_R   0.249120 0.447360 0.902040 -0.539925
O6    O     O_R   0.750880 0.947360 0.097960 -0.539928
C1    C     C_R   0.226369 0.572911 0.243937 0.806126
C2    C     C_R   0.773628 0.072914 0.756066 0.806071
O7    O     O_R   0.386610 0.559560 0.048860 -0.544569
O8    O     O_R   0.613390 0.059560 0.951140 -0.544592
O9    O     O_R   0.387100 0.447320 0.878470 -0.539991
O10   O     O_R   0.612900 0.947320 0.121530 -0.539969
C3    C     C_R   0.407417 0.575233 0.214491 0.841970
C4    C     C_R   0.592586 0.075237 0.785516 0.841900
O11   O     O_R   0.249120 0.552680 0.402050 -0.509092
O12   O     O_R   0.750880 0.052680 0.597950 -0.509073
O13   O     O_3   0.318110 0.463180 0.223790 -0.385792
O14   O     O_3   0.681890 0.963180 0.776210 -0.385802
V1    V     V_3+5 0.318110 0.506830 0.948930 1.490061
V2    V     V_3+5 0.681890 0.006830 0.051070 1.490069
O15   O     O_R   0.386610 0.440400 0.548840 -0.545530
O16   O     O_R   0.613390 0.940400 0.451160 -0.545563
C5    C     C_R   0.408107 0.425371 0.714441 0.758382
C6    C     C_R   0.591893 0.925371 0.285551 0.758390
O17   O     O_R   0.249610 0.440440 0.572240 -0.547411
O18   O     O_R   0.750390 0.940440 0.427760 -0.547409
C7    C     C_R   0.225327 0.428420 0.744105 0.687857
C8    C     C_R   0.774672 0.928419 0.255891 0.687876
V3    V     V_3+5 0.318110 0.493170 0.448930 1.501650
V4    V     V_3+5 0.681890 0.993170 0.551070 1.501652
O19   O     O_3   0.318110 0.536820 0.723940 -0.359554
O20   O     O_3   0.681890 0.036820 0.276060 -0.359526
C9    C     C_R   0.167647 0.389534 0.757375 -0.146767
C10   C     C_R   0.832347 0.889528 0.242608 -0.146758
C11   C     C_R   0.159456 0.349254 0.606629 -0.176969
C12   C     C_R   0.840529 0.849241 0.393329 -0.176967
C13   C     C_R   0.104410 0.313828 0.605113 -0.111315
C14   C     C_R   0.895569 0.813808 0.394825 -0.111344
C15   C     C_R   0.056551 0.317421 0.755261 -0.002404
C16   C     C_R   0.943430 0.817398 0.244679 -0.002380
C17   C     C_R   0.064462 0.356314 0.908409 -0.129526
C18   C     C_R   0.935527 0.856299 0.091559 -0.129461
C19   C     C_R   0.118696 0.393321 0.910091 0.320390
C20   C     C_R   0.881300 0.893315 0.089900 0.320357
C21   C     C_R   0.895825 0.185749 0.906857 0.402180
C22   C     C_R   0.104150 0.685719 0.093129 0.402326
C23   C     C_R   0.840671 0.149765 0.903806 -0.315189
C24   C     C_R   0.159311 0.649745 0.096186 -0.315183
C25   C     C_R   0.873881 0.115534 0.581585 0.434873
C26   C     C_R   0.126119 0.615536 0.418438 0.434901
C27   C     C_R   0.927868 0.153421 0.578908 0.225390
C28   C     C_R   0.072127 0.653417 0.421110 0.225249
C29   C     C_R   0.939965 0.187194 0.745246 -0.117626
C30   C     C_R   0.060015 0.687171 0.254750 -0.117702
C31   C     C_2   0.996332 0.281667 0.748736 0.380121
C32   C     C_2   0.003645 0.781639 0.251190 0.380102
C33   C     C_2   0.000664 0.222623 0.755840 0.382739
C34   C     C_2   0.999309 0.722595 0.244159 0.382816
C35   C     C_R   0.829432 0.114047 0.743828 -0.260503
C36   C     C_R   0.170562 0.614041 0.256180 -0.260534
H1    H     H_    0.195565 0.345459 0.487850 0.148258
H2    H     H_    0.804420 0.845448 0.512103 0.148228
H3    H     H_    0.806919 0.148981 0.029084 0.171389
H4    H     H_    0.193059 0.648955 0.970898 0.171406
H5    H     H_    0.027060 0.359382 0.023991 0.148250
H6    H     H_    0.972931 0.859369 0.975984 0.148275
H7    H     H_    0.098585 0.284136 0.485151 0.136735
H8    H     H_    0.901389 0.784112 0.514771 0.136753
C37   C     C_R   0.579267 0.365120 0.684067 -0.209759
C38   C     C_R   0.420724 0.865137 0.315380 -0.209775
H9    H     H_    0.628136 0.381991 0.657611 0.158323
H10   H     H_    0.371847 0.882017 0.341572 0.158324
C39   C     C_R   0.463416 0.383773 0.714891 -0.100575
C40   C     C_R   0.536584 0.883774 0.285054 -0.100550
C41   C     C_R   0.477765 0.099017 0.842888 -0.341013
C42   C     C_R   0.522262 0.598992 0.157529 -0.340976
C43   C     C_R   0.426255 0.137421 0.882674 0.448379
C44   C     C_R   0.573794 0.637383 0.117923 0.448315
C45   C     C_R   0.436382 0.198085 0.872804 0.398366
C46   C     C_R   0.563674 0.698051 0.127619 0.398278
C47   C     C_R   0.496238 0.221265 0.791369 -0.154131
C48   C     C_R   0.503782 0.721254 0.208716 -0.154094
C49   C     C_R   0.550031 0.181466 0.758934 -0.078989
C50   C     C_R   0.449970 0.681466 0.240965 -0.078986
C51   C     C_R   0.505095 0.282685 0.750008 0.050080
C52   C     C_R   0.494914 0.782682 0.249939 0.050108
C53   C     C_R   0.568991 0.304438 0.710839 -0.029559
C54   C     C_R   0.431005 0.804448 0.288777 -0.029551
C55   C     C_R   0.622296 0.265731 0.695347 0.359876
C56   C     C_R   0.377691 0.765749 0.304105 0.359886
C57   C     C_R   0.612427 0.204420 0.703941 0.252068
C58   C     C_R   0.387555 0.704436 0.295659 0.252073
C59   C     C_R   0.452571 0.323282 0.740333 -0.243464
C60   C     C_R   0.547434 0.823276 0.259790 -0.243456
C61   C     C_R   0.527104 0.404909 0.688925 0.327921
C62   C     C_R   0.472890 0.904921 0.310667 0.327858
C63   C     C_R   0.539786 0.119702 0.787936 -0.110644
C64   C     C_R   0.460219 0.619695 0.212121 -0.110685
H11   H     H_    0.402589 0.309051 0.743660 0.174191
H12   H     H_    0.597411 0.809043 0.256712 0.174180
H13   H     H_    0.469921 0.052442 0.865697 0.157743
H14   H     H_    0.530119 0.552410 0.134906 0.157739
O21   O     O_3   0.967973 0.154870 0.412471 -0.621616
H15   H     H_    0.999447 0.187498 0.418849 0.306437
O22   O     O_3   0.032027 0.654875 0.587558 -0.621590
H16   H     H_    0.000546 0.687496 0.581166 0.306463
O23   O     O_3   0.537096 0.464441 0.664508 -0.652468
H17   H     H_    0.584499 0.472170 0.647838 0.284764
O24   O     O_3   0.462895 0.964460 0.334882 -0.652456
H18   H     H_    0.415488 0.972196 0.351300 0.284841
O25   O     O_3   0.684313 0.287861 0.656190 -0.564182
C65   C     C_3   0.716187 0.291407 0.831348 -0.255035
H19   H     H_    0.690056 0.321488 0.935423 0.141158
H20   H     H_    0.765710 0.309506 0.800565 0.192249
H21   H     H_    0.721915 0.247399 0.897867 0.152607
O26   O     O_3   0.315664 0.787893 0.342961 -0.564166
C66   C     C_3   0.283870 0.791393 0.167656 -0.255056
H22   H     H_    0.310073 0.821411 0.063538 0.141109
H23   H     H_    0.234356 0.809542 0.198180 0.192233
H24   H     H_    0.278127 0.747361 0.101309 0.152630
O27   O     O_3   0.387737 0.233552 0.953436 -0.550246
C67   C     C_3   0.402857 0.247019 0.144829 -0.193274
H25   H     H_    0.449381 0.271813 0.149214 0.129453
H26   H     H_    0.405003 0.206685 0.234841 0.150048
H27   H     H_    0.363737 0.275344 0.209880 0.156242
O28   O     O_3   0.612371 0.733495 0.047179 -0.550263
C68   C     C_3   0.597371 0.746928 0.855665 -0.193390
H28   H     H_    0.550858 0.771725 0.850985 0.129449
H29   H     H_    0.595276 0.706577 0.765705 0.150008
H30   H     H_    0.636532 0.775237 0.790770 0.156262
O29   O     O_3   0.367201 0.116060 0.956289 -0.535548
C69   C     C_3   0.332529 0.093808 0.801974 -0.187814
H31   H     H_    0.357503 0.055083 0.734352 0.125960
H32   H     H_    0.324778 0.128212 0.691338 0.140323
H33   H     H_    0.283875 0.079171 0.859492 0.159099
O30   O     O_3   0.632892 0.615995 0.044757 -0.535565
C70   C     C_3   0.667487 0.593897 0.199455 -0.187571
H34   H     H_    0.642496 0.555214 0.267305 0.125922
H35   H     H_    0.675152 0.628396 0.309847 0.140260
H36   H     H_    0.716181 0.579240 0.142334 0.159069
O31   O     O_3   0.663579 0.166433 0.661229 -0.660855
H37   H     H_    0.701055 0.187761 0.599543 0.317702
O32   O     O_3   0.336382 0.666461 0.338239 -0.660902
H38   H     H_    0.298890 0.687803 0.399779 0.317677
O33   O     O_3   0.864380 0.080734 0.422080 -0.534488
C71   C     C_3   0.900729 0.028727 0.440043 -0.171762
H39   H     H_    0.896690 0.002573 0.306701 0.133963
H40   H     H_    0.881141 0.001802 0.563706 0.130511
H41   H     H_    0.953428 0.037753 0.455116 0.146271
O34   O     O_3   0.135632 0.580751 0.577961 -0.534493
C72   C     C_3   0.099286 0.528741 0.560051 -0.171759
H42   H     H_    0.103333 0.502600 0.693411 0.133952
H43   H     H_    0.118869 0.501805 0.436400 0.130495
H44   H     H_    0.046584 0.537760 0.544996 0.146239
O35   O     O_3   0.062241 0.196713 0.755370 -0.569559
C73   C     C_3   0.060240 0.141458 0.847089 -0.213353
H45   H     H_    0.038062 0.107951 0.754374 0.139321
H46   H     H_    0.034132 0.143541 0.991759 0.175826
H47   H     H_    0.110897 0.127343 0.869639 0.164428
O36   O     O_3   0.937729 0.696684 0.244635 -0.569523
C74   C     C_3   0.939743 0.641352 0.153400 -0.213407
H48   H     H_    0.961866 0.607911 0.246464 0.139348
H49   H     H_    0.965892 0.643311 0.008762 0.175725
H50   H     H_    0.889088 0.627229 0.130815 0.164440
O37   O     O_3   0.908383 0.219050 0.067457 -0.618137
H51   H     H_    0.872987 0.213024 0.168150 0.311815
O38   O     O_3   0.091583 0.719006 0.932516 -0.618082
H52   H     H_    0.126981 0.712983 0.831827 0.311823
O39   O     O_3   0.120154 0.433503 0.058610 -0.658495
H53   H     H_    0.141583 0.469681 0.009072 0.282895
O40   O     O_3   0.879850 0.933505 0.941411 -0.658493
H54   H     H_    0.858425 0.969683 0.990973 0.282910
O41   O     O_3   0.934870 0.307652 0.753875 -0.551137
C75   C     C_3   0.934574 0.357434 0.633009 -0.245885
H55   H     H_    0.957392 0.348105 0.486909 0.139719
H56   H     H_    0.958852 0.395197 0.700612 0.141747
H57   H     H_    0.883278 0.370195 0.613555 0.170233
O42   O     O_3   0.065107 0.807626 0.245962 -0.551117
C76   C     C_3   0.065430 0.857377 0.366978 -0.245883
H58   H     H_    0.042668 0.848003 0.513115 0.139722
H59   H     H_    0.041112 0.895152 0.299582 0.141728
H60   H     H_    0.116732 0.870144 0.386302 0.170291

loop_
_geom_bond_atom_site_label_1
_geom_bond_atom_site_label_2
_ccdc_geom_bond_type
V4    O20   S    
O40   H54   S    
O37   H51   S    
O13   V3    S    
O39   H53   S    
C40   C60   A    
O25   C65   S    
C39   C59   A    
O4    C2    A    
V1    O19   S    
C65   H20   S    
O33   C71   S    
C19   O39   S    
C15   C17   A    
C32   O42   S    
O41   C75   S    
C7    C9    S    
C70   H35   S    
O9    V1    S    
O28   C68   S    
C73   H45   S    
C11   C13   A    
C42   C44   A    
C43   C45   A    
O3    C1    A    
C66   H23   S    
C2    C35   S    
C23   H3    S    
C9    C11   A    
C52   C54   A    
C24   H4    S    
C27   O21   S    
O32   H38   S    
C41   C63   A    
O26   C66   S    
C43   O29   S    
C72   H44   S    
C3    C64   S    
C37   H9    S    
C58   O32   S    
O7    C3    A    
C75   H55   S    
C31   O41   S    
C52   C60   A    
C47   C49   A    
O5    C7    A    
C51   C59   A    
C73   H46   S    
O7    V1    S    
O6    C8    A    
O8    V2    S    
C69   H31   S    
C16   C32   S    
C26   C28   A    
O23   H17   S    
O3    V1    S    
O14   V4    S    
C56   O26   S    
C55   C57   A    
C59   H11   S    
C10   C12   A    
C37   C53   A    
C24   C36   A    
C15   C31   S    
C21   C23   A    
C70   H34   S    
C8    C10   S    
C2    O12   A    
C42   H14   S    
C17   C19   A    
O10   V2    S    
O31   H37   S    
C18   C20   A    
C5    C39   S    
C12   H2    S    
C65   H19   S    
C74   H49   S    
C28   C30   A    
O11   V3    S    
C71   H40   S    
C51   C53   A    
O17   V3    S    
C70   H36   S    
C22   C24   A    
C23   C35   A    
C22   O38   S    
C9    C19   A    
C40   C62   A    
C10   C20   A    
C46   C48   A    
O8    C4    A    
C66   H24   S    
O38   H52   S    
C45   C47   A    
C29   C33   S    
O30   C70   S    
C17   H5    S    
C1    O11   A    
C25   C27   A    
C48   C52   A    
O15   V3    S    
C44   O30   S    
C27   C29   A    
C38   C62   A    
C68   H29   S    
C71   H41   S    
C45   O27   S    
C26   O34   S    
C56   C58   A    
C60   H12   S    
C72   H42   S    
C22   C30   A    
O1    V3    S    
C44   C46   A    
C25   O33   S    
C11   H1    S    
C41   C43   A    
C75   H57   S    
O27   C67   S    
C62   O24   S    
C61   O23   S    
C54   C56   A    
C28   O22   S    
O18   V4    S    
C48   C50   A    
C31   C33   D    
C30   C34   S    
O16   C6    A    
O1    C3    A    
C39   C61   A    
O12   V4    S    
C67   H26   S    
O29   C69   S    
C1    C36   S    
O21   H15   S    
C74   H50   S    
C49   C57   A    
C4    C63   S    
C41   H13   S    
C71   H39   S    
V2    O20   S    
C55   O25   S    
O16   V4    S    
V3    O19   S    
C73   H47   S    
C38   C54   A    
C14   H8    S    
C16   C18   A    
C37   C61   A    
C38   H10   S    
O5    V1    S    
O17   C7    A    
O6    V2    S    
O22   H16   S    
O10   C6    A    
O18   C8    A    
C25   C35   A    
O2    V4    S    
C26   C36   A    
O36   C74   S    
C76   H60   S    
C67   H27   S    
O15   C5    A    
C68   H30   S    
C50   C64   A    
C13   C15   A    
C74   H48   S    
C66   H22   S    
C12   C14   A    
C14   C16   A    
C6    C40   S    
C46   O28   S    
C69   H33   S    
C13   H7    S    
O9    C5    A    
O13   V1    S    
C32   C34   D    
C42   C64   A    
O14   V2    S    
C72   H43   S    
O2    C4    A    
C75   H56   S    
C20   O40   S    
C21   C29   A    
C76   H58   S    
O4    V2    S    
C69   H32   S    
C49   C63   A    
O35   C73   S    
C18   H6    S    
C53   C55   A    
O34   C72   S    
C34   O36   S    
C50   C58   A    
C76   H59   S    
C67   H25   S    
O24   H18   S    
C21   O37   S    
C65   H21   S    
C47   C51   A    
C68   H28   S    
C33   O35   S    
O42   C76   S    
C57   O31   S    
