data_mof_unit_29106.cif
_audit_creation_date              2013-03-05T15:46:22-0500
_audit_creation_method            fapswitch 2.2
_symmetry_space_group_name_H-M    P1
_symmetry_Int_Tables_number       1
_space_group_crystal_system       triclinic
_cell_length_a                    10.954091
_cell_length_b                    10.863257
_cell_length_c                    18.797336
_cell_angle_alpha                 89.682192
_cell_angle_beta                  89.951651
_cell_angle_gamma                 60.355287
_cell_volume                      1944.01374243

loop_
_atom_site_label
_atom_site_type_symbol
_atom_site_description
_atom_site_fract_x
_atom_site_fract_y
_atom_site_fract_z
_atom_type_partial_charge
O1    O     O_R   0.748800 0.497470 0.428000 -0.359982
O2    O     O_R   0.476420 0.724060 0.429470 -0.497936
C1    C     C_R   0.356445 0.778138 0.398699 0.549523
O3    O     O_R   0.264580 0.744340 0.416750 -0.525935
O4    O     O_R   0.309380 0.472470 0.418200 -0.494671
C2    C     C_R   0.386330 0.353948 0.387864 0.600527
O5    O     O_R   0.501710 0.260430 0.414300 -0.540871
O6    O     O_R   0.728090 0.305600 0.428960 -0.524224
C3    C     C_R   0.713398 0.416411 0.394921 0.590740
O7    O     O_R   0.738760 0.495930 0.588610 -0.464711
O8    O     O_R   0.467110 0.722640 0.578360 -0.521967
C4    C     C_R   0.343732 0.771952 0.603840 0.546644
O9    O     O_R   0.254530 0.742800 0.577360 -0.507356
O10   O     O_R   0.300070 0.471040 0.567100 -0.476386
C5    C     C_R   0.370233 0.350026 0.595706 0.629689
O11   O     O_R   0.491670 0.258900 0.574910 -0.502876
O12   O     O_R   0.718780 0.304180 0.577850 -0.505809
C6    C     C_R   0.769063 0.372874 0.608516 0.578965
Cr1   Cr    Cr6+3 0.601770 0.606860 0.505860 1.125438
Cr2   Cr    Cr6+3 0.291380 0.601660 0.495070 1.073036
Cr3   Cr    Cr6+3 0.606880 0.291510 0.499120 1.040844
O13   O     O_3   0.500010 0.500010 0.500020 -0.312672
C7    C     C_R   0.834913 0.929249 0.081449 0.450394
C8    C     C_R   0.763108 0.070139 0.058463 0.001139
C9    C     C_R   0.654034 0.173227 0.099358 -0.054770
C10   C     C_R   0.610880 0.134706 0.162455 0.072670
H1    H     H_    0.577432 0.171145 0.300685 0.135739
C11   C     C_R   0.352050 0.328390 0.164426 -0.001190
C12   C     C_R   0.480061 0.241758 0.273802 -0.156636
C13   C     C_R   0.479733 0.238961 0.200139 -0.028921
C14   C     C_R   0.043261 0.685126 0.291806 0.316878
C15   C     C_R   0.933750 0.791192 0.331151 -0.158490
C16   C     C_R   0.688309 0.993302 0.186457 -0.122173
C17   C     C_R   0.798203 0.891148 0.145675 -0.012090
C18   C     C_R   0.233544 0.426115 0.203083 -0.073387
C19   C     C_R   0.235780 0.432756 0.277031 0.026362
C20   C     C_R   0.890135 0.757414 0.394387 -0.149869
C21   C     C_R   0.951681 0.616560 0.416914 0.474693
C22   C     C_R   0.054288 0.508461 0.375158 0.417158
C23   C     C_R   0.107464 0.542503 0.314273 0.001075
C24   C     C_R   0.361529 0.337950 0.312899 0.035271
H2    H     H_    0.854032 0.782121 0.163670 0.160988
H3    H     H_    0.885981 0.900564 0.313914 0.152975
H4    H     H_    0.792085 0.099674 0.009049 0.133975
H5    H     H_    0.599348 0.281845 0.080498 0.119732
H6    H     H_    0.662108 0.960794 0.235963 0.101164
H7    H     H_    0.134947 0.493027 0.175950 0.190068
H8    H     H_    0.809280 0.840618 0.426180 0.137982
C25   C     C_R   0.785374 0.267168 0.288531 -0.146381
H9    H     H_    0.783522 0.182015 0.317777 0.148529
C26   C     C_R   0.829715 0.243523 0.219063 0.310804
C27   C     C_R   0.839094 0.348314 0.180027 -0.015568
C28   C     C_R   0.798263 0.480011 0.210986 -0.142614
H10   H     H_    0.805220 0.563161 0.182352 0.159136
C29   C     C_R   0.757601 0.502619 0.281231 0.332640
C30   C     C_R   0.752218 0.395434 0.320666 -0.005279
C31   C     C_R   0.436378 0.871997 0.296454 -0.102610
H11   H     H_    0.533472 0.846525 0.322833 0.202245
C32   C     C_R   0.420011 0.906828 0.223675 -0.129817
H12   H     H_    0.505731 0.902256 0.193618 0.137844
C33   C     C_R   0.295338 0.936674 0.189003 0.001406
C34   C     C_R   0.185360 0.941975 0.228969 -0.060310
H13   H     H_    0.091737 0.957629 0.203542 0.264949
C35   C     C_R   0.199686 0.910811 0.300408 -0.071271
H14   H     H_    0.112709 0.911201 0.327899 0.163401
C36   C     C_R   0.329466 0.862446 0.333333 0.028863
C37   C     C_R   0.371722 0.420215 0.717222 -0.195915
H15   H     H_    0.413739 0.486053 0.697805 0.097610
C38   C     C_R   0.355688 0.409584 0.789992 0.001279
C39   C     C_R   0.303685 0.320822 0.812838 0.069350
C40   C     C_R   0.272084 0.242877 0.764067 -0.041888
H16   H     H_    0.235784 0.171637 0.782370 0.108014
C41   C     C_R   0.289122 0.254122 0.691917 0.349969
C42   C     C_R   0.339239 0.342450 0.668958 0.055840
C43   C     C_R   0.903867 0.392480 0.706440 -0.032546
H17   H     H_    0.925403 0.463535 0.675009 0.206779
C44   C     C_R   0.932015 0.380478 0.778137 0.349355
C45   C     C_R   0.899382 0.294681 0.821520 -0.023534
C46   C     C_R   0.836959 0.219439 0.791026 -0.058811
C47   C     C_R   0.810371 0.232565 0.717958 -0.136217
H18   H     H_    0.754937 0.183053 0.694652 0.191869
C48   C     C_R   0.837868 0.323660 0.676697 -0.049099
C49   C     C_R   0.206618 0.826647 0.713007 -0.118100
H19   H     H_    0.126956 0.813151 0.685723 0.209249
C50   C     C_R   0.199706 0.834450 0.786026 0.315047
C51   C     C_R   0.303325 0.845742 0.824196 -0.017607
C52   C     C_R   0.416420 0.845454 0.787719 0.318789
C53   C     C_R   0.419986 0.845092 0.713504 -0.002040
C54   C     C_R   0.317828 0.827470 0.676095 -0.103920
O14   O     O_R   0.186690 0.923650 0.086970 -0.442320
O15   O     O_R   0.957250 0.194250 0.084630 -0.474142
C55   C     C_R   0.908994 0.316516 0.111662 0.549301
O16   O     O_R   0.934970 0.407490 0.085330 -0.532705
O17   O     O_R   0.203780 0.365190 0.067090 -0.488332
C56   C     C_R   0.327616 0.294029 0.092745 0.537961
O18   O     O_R   0.417600 0.174890 0.067840 -0.537200
O19   O     O_R   0.375320 0.946260 0.070860 -0.496769
C57   C     C_R   0.271961 0.962641 0.112063 0.545188
O20   O     O_R   0.160600 0.919630 0.926660 -0.407575
O21   O     O_R   0.933060 0.190520 0.936020 -0.554590
C58   C     C_R   0.940054 0.284279 0.896207 0.549718
O22   O     O_R   0.908880 0.403460 0.925020 -0.410292
O23   O     O_R   0.179600 0.361450 0.918490 -0.422536
C59   C     C_R   0.296225 0.290226 0.886376 0.608366
O24   O     O_R   0.391510 0.170860 0.907530 -0.488564
O25   O     O_R   0.351130 0.942530 0.922260 -0.446335
C60   C     C_R   0.275928 0.893888 0.897685 0.605647
Cr4   Cr    Cr6+3 0.062440 0.063090 0.008210 1.124596
Cr5   Cr    Cr6+3 0.062880 0.375170 0.998920 1.158898
Cr6   Cr    Cr6+3 0.374700 0.061720 0.992470 1.097961
O26   O     O_3   0.166667 0.166667 0.999870 -0.353709
F1    F     F_    0.915022 0.585398 0.480588 -0.570079
F2    F     F_    0.108049 0.371681 0.396500 -0.596779
F3    F     F_    0.869577 0.115386 0.191710 -0.680478
F4    F     F_    0.731986 0.625800 0.311311 -0.677057
C61   C     C_2   0.400811 0.486388 0.839019 0.257169
H20   H     H_    0.455726 0.538710 0.817877 0.094478
O27   O     O_2   0.377402 0.493317 0.902794 -0.465965
F5    F     F_    0.258474 0.178723 0.644979 -0.650018
F6    F     F_    0.986225 0.458656 0.805524 -0.579918
C62   C     C_2   0.781939 0.141974 0.833539 0.317020
H21   H     H_    0.742567 0.175396 0.886853 0.118683
O28   O     O_2   0.774574 0.042636 0.808080 -0.374796
F7    F     F_    0.090775 0.831323 0.818882 -0.527046
F8    F     F_    0.519523 0.853448 0.824178 -0.531371
C63   C     C_2   0.525835 0.869887 0.675881 0.358290
H22   H     H_    0.505412 0.912388 0.622130 0.140299
O29   O     O_2   0.636072 0.844722 0.704314 -0.372207
F9    F     F_    0.941128 0.829900 0.041832 -0.576196
F10   F     F_    0.090278 0.722516 0.233361 -0.646780

loop_
_geom_bond_atom_site_label_1
_geom_bond_atom_site_label_2
_geom_bond_distance
_ccdc_geom_bond_type
C52   C53   1.395514 A    
C38   C61   1.485599 S    
C58   O22   1.286971 A    
C41   F5    1.357435 S    
H1    C12   1.081054 S    
C41   C42   1.387240 A    
C56   O18   1.268754 A    
C17   H2    1.081926 S    
C52   F8    1.360793 S    
C31   C36   1.407441 A    
O24   Cr6   2.045323 S    
C44   F6    1.357628 S    
C18   H7    1.084054 S    
O19   C57   1.309260 A    
O4    Cr2   1.960774 S    
C28   H10   1.083545 S    
C14   C23   1.410243 A    
O20   Cr4   2.073837 S    
C46   C62   1.484414 S    
O8    Cr1   1.948160 S    
C34   H13   1.066089 S    
C11   C56   1.459979 S    
C20   C21   1.395689 A    
C14   F10   1.355808 S    
Cr5   O26   1.968600 S    
C21   C22   1.400515 A    
C39   C59   1.431609 S    
C31   C32   1.405149 A    
O25   C60   1.266948 A    
C5    O11   1.266108 A    
C61   H20   1.085439 S    
C7    F9    1.355856 S    
C50   F7    1.358325 S    
Cr6   O26   1.985769 S    
C55   O16   1.255054 A    
C34   C35   1.373038 A    
C18   C19   1.393170 A    
C11   C18   1.408491 A    
O6    C3    1.297822 A    
C25   C26   1.373412 A    
C2    C24   1.462781 S    
C53   C63   1.490828 S    
C7    C8    1.396491 A    
C39   C40   1.405833 A    
C51   C60   1.457372 S    
C44   C45   1.407884 A    
C32   H12   1.075488 S    
Cr3   O13   1.969340 S    
C45   C58   1.460048 S    
C16   H6    1.081314 S    
C19   C24   1.415329 A    
C38   C39   1.406088 A    
C59   O24   1.259003 A    
O12   C6    1.266670 A    
C28   C29   1.377169 A    
C49   C54   1.405279 A    
O21   Cr4   1.951382 S    
C26   F3    1.341254 S    
C32   C33   1.398605 A    
C37   H15   1.085841 S    
O10   Cr2   1.923806 S    
C4    C54   1.458810 S    
C19   C23   1.495652 S    
Cr1   O13   1.970649 S    
O1    C3    1.287118 A    
C8    C9    1.398911 A    
C47   C48   1.399111 A    
C22   C23   1.411782 A    
C37   C42   1.403492 A    
C45   C46   1.422314 A    
C22   F2    1.357848 S    
C9    C10   1.412271 A    
C50   C51   1.399386 A    
O1    Cr1   2.066426 S    
O18   Cr6   2.081203 S    
O12   Cr3   1.970738 S    
C26   C27   1.396836 A    
C37   C38   1.390378 A    
C35   C36   1.392514 A    
C43   H17   1.084156 S    
C12   C13   1.385213 A    
C10   C16   1.409502 A    
C49   H19   1.083574 S    
O7    Cr1   2.077926 S    
C7    C17   1.396005 A    
C29   C30   1.402508 A    
C16   C17   1.398088 A    
O17   C56   1.276673 A    
C43   C48   1.390733 A    
C3    C30   1.444879 S    
C15   C20   1.394084 A    
C53   C54   1.413555 A    
C20   H8    1.082464 S    
C43   C44   1.373822 A    
C62   H21   1.081920 S    
C49   C50   1.375353 A    
Cr2   O13   1.988374 S    
C10   C13   1.498648 S    
C8    H4    1.078617 S    
C27   C55   1.448677 S    
C1    C36   1.468399 S    
C21   F1    1.355581 S    
C1    O3    1.275196 A    
C9    H5    1.083191 S    
O15   C55   1.270530 A    
C27   C28   1.400464 A    
C40   C41   1.381795 A    
O25   Cr6   1.958353 S    
C63   O29   1.221250 D    
O9    Cr2   2.078333 S    
C12   C24   1.408064 A    
O2    Cr1   1.954975 S    
C51   C52   1.414108 A    
O15   Cr4   1.953752 S    
C14   C15   1.397941 A    
C47   H18   1.084482 S    
O6    Cr3   1.929112 S    
O8    C4    1.276107 A    
O11   Cr3   2.044859 S    
C2    O5    1.265585 A    
C25   C30   1.395235 A    
O20   C60   1.273520 A    
O17   Cr5   1.967798 S    
Cr4   O26   1.965364 S    
O23   Cr5   1.937372 S    
C35   H14   1.081670 S    
C11   C13   1.414511 A    
O2    C1    1.280862 A    
O14   Cr4   2.068290 S    
C40   H16   1.084726 S    
O5    Cr3   2.092156 S    
O19   Cr6   1.927589 S    
C33   C57   1.470193 S    
C31   H11   1.077892 S    
O4    C2    1.275599 A    
C29   F4    1.351202 S    
O7    C6    1.262097 A    
C63   H22   1.084948 S    
O21   C58   1.293053 A    
C6    C48   1.446338 S    
C15   H3    1.082343 S    
C61   O27   1.220622 D    
C33   C34   1.396188 A    
C62   O28   1.221464 D    
C46   C47   1.396073 A    
O3    Cr2   2.044816 S    
C5    C42   1.429547 S    
C4    O9    1.269453 A    
C25   H9    1.082232 S    
O23   C59   1.273258 A    
O10   C5    1.265457 A    
O22   Cr5   2.087154 S    
O14   C57   1.291789 A    
O16   Cr5   2.059266 S    
