data_mof_unit_58419.cif
_audit_creation_date              2013-03-05T16:13:09-0500
_audit_creation_method            fapswitch 2.2
_symmetry_space_group_name_H-M    P1
_symmetry_Int_Tables_number       1
_space_group_crystal_system       triclinic
_cell_length_a                    8.396114
_cell_length_b                    16.154565
_cell_length_c                    18.897108
_cell_angle_alpha                 112.411988
_cell_angle_beta                  91.182433
_cell_angle_gamma                 83.673654
_cell_volume                      2354.45117747

loop_
_atom_site_label
_atom_site_type_symbol
_atom_site_description
_atom_site_fract_x
_atom_site_fract_y
_atom_site_fract_z
_atom_type_partial_charge
P1    P     P_3+3 0.582960 0.413890 0.320860 0.451770
O1    O     O_2   0.402610 0.439360 0.314250 -0.376481
O2    O     O_3   0.648560 0.446300 0.404730 -0.411863
O3    O     O_3   0.108870 0.604000 0.387500 -0.392263
O4    O     O_2   0.250625 0.537099 0.251545 -0.426476
O5    O     O_3   0.593799 0.296271 0.281977 -0.574192
O6    O     O_3   0.101410 0.699180 0.286706 -0.592524
H1    H     H_    0.096951 0.761205 0.406293 0.069815
C1    C     C_3   0.101574 0.858799 0.355795 -0.884249
H2    H     H_    0.232765 0.856639 0.358909 0.275558
H3    H     H_    0.062965 0.870184 0.303339 0.287984
P2    P     P_3+3 0.071690 0.707860 0.593450 0.483200
P3    P     P_3+3 0.494807 0.768763 0.458085 0.489865
O7    O     O_2   0.241370 0.719440 0.573960 -0.356577
O8    O     O_3   0.507090 0.652150 0.432150 -0.376252
O9    O     O_2   0.329628 0.811302 0.497785 -0.445705
O10   O     O_3   0.110943 0.742258 0.691360 -0.607085
O11   O     O_3   0.495636 0.790248 0.373578 -0.478349
C2    C     C_3   0.486616 0.709738 0.309098 0.365131
H4    H     H_    0.369062 0.687169 0.308410 0.121659
H5    H     H_    0.574425 0.653643 0.309542 0.087021
C3    C     C_3   0.517255 0.722856 0.234625 -0.093028
H6    H     H_    0.489450 0.661446 0.185705 0.065597
C4    C     C_3   0.566284 0.749793 0.678337 0.348162
H7    H     H_    0.679063 0.742706 0.647897 -0.021986
H8    H     H_    0.474677 0.723189 0.636336 0.157916
C5    C     C_3   0.524155 0.851011 0.724613 -0.638344
H9    H     H_    0.601594 0.873105 0.775191 0.229301
H10   H     H_    0.547362 0.889313 0.688598 0.179807
Ba1   Ba    Ba6+2 0.333520 0.539550 0.472180 1.558936
C6    C     C_3   0.564991 0.263962 0.338895 0.360838
H11   H     H_    0.446595 0.293673 0.367119 0.102208
H12   H     H_    0.659757 0.279556 0.382330 0.140269
C7    C     C_3   0.567697 0.162180 0.300807 -0.896616
H13   H     H_    0.470997 0.144480 0.258427 0.269863
H14   H     H_    0.549745 0.133239 0.343878 0.223695
H15   H     H_    0.685251 0.132046 0.271175 0.261505
C8    C     C_3   0.995748 0.723646 0.733228 0.813084
H16   H     H_    0.883622 0.709932 0.702449 -0.015674
C9    C     C_3   0.958631 0.805716 0.808738 -0.720312
H17   H     H_    0.058416 0.810237 0.849122 0.250085
H18   H     H_    0.847636 0.798184 0.835903 0.191369
P4    P     P_3+3 0.606720 0.586180 0.679160 0.483659
O12   O     O_2   0.787080 0.560670 0.685800 -0.359834
O13   O     O_3   0.541120 0.553770 0.595290 -0.401039
O14   O     O_3   0.080800 0.396070 0.612520 -0.336137
O15   O     O_3   0.587620 0.704129 0.728114 -0.584222
P5    P     P_3+3 0.695713 0.232762 0.546716 0.427212
O16   O     O_3   0.164600 0.390590 0.443970 -0.389874
O17   O     O_3   0.682580 0.347920 0.567870 -0.411056
O18   O     O_2   0.839492 0.187190 0.490431 -0.418563
O19   O     O_3   0.747397 0.215186 0.630509 -0.535435
Ba2   Ba    Ba6+2 0.856270 0.460520 0.527840 1.575209
P6    P     P_3+3 0.093373 0.592577 0.292082 0.450552
C10   C     C_3   0.046605 0.771110 0.355008 0.785057
H19   H     H_    0.050573 0.916794 0.407032 0.210825
O20   O     O_3   0.025080 0.609480 0.556050 -0.377223
C11   C     C_3   0.112105 0.289511 0.273921 0.344203
H20   H     H_    0.159002 0.355013 0.305883 0.124006
C12   C     C_3   0.190455 0.251313 0.194528 -0.483523
H21   H     H_    0.148397 0.297660 0.165682 0.201529
H22   H     H_    0.322785 0.249231 0.199727 0.224894
P7    P     P_3+3 0.131346 0.276511 0.407218 0.437426
O21   O     O_2   0.948320 0.280590 0.426090 -0.359922
O22   O     O_3   0.150237 0.226728 0.307814 -0.586374
H23   H     H_    0.645948 0.730088 0.229037 0.160755
C13   C     C_3   0.688677 0.292401 0.694019 0.520044
H24   H     H_    0.756421 0.349866 0.700058 0.126490
H25   H     H_    0.559942 0.312269 0.687903 0.057081
C14   C     C_3   0.706454 0.273371 0.767097 -0.846405
H26   H     H_    0.634505 0.326827 0.814369 0.221823
H27   H     H_    0.665051 0.207333 0.758375 0.306361
H28   H     H_    0.832683 0.272336 0.784905 0.247921
P8    P     P_3+3 0.108475 0.401268 0.707036 0.475599
C15   C     C_3   0.155471 0.223218 0.679145 0.813686
O23   O     O_2   0.969930 0.471611 0.752644 -0.353458
O24   O     O_3   0.060494 0.305015 0.721969 -0.612596
H29   H     H_    0.075956 0.162122 0.756075 0.259980
C16   C     C_3   0.086593 0.146170 0.693652 -0.932654
H30   H     H_    0.166631 0.082130 0.667619 0.230964
H31   H     H_    0.967387 0.134236 0.668416 0.266528
C17   C     C_R   0.520254 0.456039 0.037565 -0.009772
C18   C     C_R   0.451242 0.404442 0.071980 -0.078485
C19   C     C_R   0.326903 0.352666 0.033419 0.314726
C20   C     C_R   0.245921 0.371420 0.973831 -0.065266
C21   C     C_R   0.314062 0.423562 0.939527 0.015419
C22   C     C_R   0.456121 0.461672 0.968921 -0.003031
C23   C     C_R   0.250485 0.431252 0.872382 -0.098436
C24   C     C_R   0.338424 0.462560 0.826996 0.006726
C25   C     C_R   0.478109 0.503707 0.857131 -0.019908
C26   C     C_R   0.533949 0.505062 0.929414 0.012212
C27   C     C_R   0.294742 0.450132 0.751043 0.251968
C28   C     C_R   0.389904 0.479830 0.707109 -0.395066
C29   C     C_R   0.515618 0.531510 0.738762 0.263056
C30   C     C_R   0.562136 0.543025 0.815161 -0.067782
C31   C     C_R   0.658677 0.497469 0.069073 0.027515
C32   C     C_R   0.719715 0.495072 0.139679 -0.036477
C33   C     C_R   0.635835 0.453641 0.180676 -0.053897
C34   C     C_R   0.507168 0.405418 0.143770 -0.029954
H32   H     H_    0.358838 0.467451 0.648377 0.188034
H33   H     H_    0.138312 0.405578 0.852047 0.163644
H34   H     H_    0.447464 0.369605 0.171421 0.167873
C35   C     C_R   0.691758 0.590385 0.850732 -0.117776
C36   C     C_R   0.750006 0.588928 0.920708 0.096568
C37   C     C_R   0.672870 0.545145 0.959964 0.024767
C38   C     C_R   0.735944 0.541019 0.029359 -0.001564
C39   C     C_R   0.888458 0.628531 0.950845 -0.132619
C40   C     C_R   0.955260 0.620697 0.016273 -0.194573
C41   C     C_R   0.880613 0.576958 0.056576 0.059802
C42   C     C_R   0.864853 0.533191 0.168284 -0.063781
C43   C     C_R   0.950483 0.567341 0.122263 -0.019672
C44   C     C_R   0.917029 0.535792 0.241742 0.290645
C45   C     C_R   0.825249 0.501574 0.283758 -0.460309
C46   C     C_R   0.685863 0.460414 0.256037 0.222424
H35   H     H_    0.752906 0.626153 0.823504 0.173152
H36   H     H_    0.947543 0.664430 0.923025 0.183631
H37   H     H_    0.065651 0.650319 0.034703 0.152087
H38   H     H_    0.865705 0.505402 0.339442 0.159615
C47   C     C_2   0.389062 0.239101 0.495142 -0.512940
C48   C     C_R   0.788291 0.754994 0.528242 -0.281870
C49   C     C_2   0.238656 0.114950 0.417026 -0.278647
C50   C     C_2   0.253828 0.203536 0.445717 0.297942
C51   C     C_2   0.513266 0.183399 0.502765 0.261850
C52   C     C_3   0.516602 0.082447 0.459476 -0.035442
C53   C     C_3   0.349736 0.050325 0.439604 0.112938
C54   C     C_2   0.626553 0.026883 0.492550 0.016245
C55   C     C_2   0.575627 0.971585 0.523158 -0.047304
C56   C     C_R   0.831740 0.937192 0.579854 0.056125
C57   C     C_R   0.690642 0.907701 0.542070 -0.087324
C58   C     C_R   0.948873 0.876971 0.593285 -0.320736
C59   C     C_R   0.928769 0.785512 0.567022 0.196907
C60   C     C_R   0.666755 0.816016 0.517674 0.295146
H39   H     H_    0.143332 0.088771 0.377873 0.183091
H40   H     H_    0.054590 0.901838 0.624295 0.164924
H41   H     H_    0.392345 0.311524 0.520548 0.166820
H42   H     H_    0.754426 0.027707 0.485717 0.150249
H43   H     H_    0.448556 0.967126 0.527649 0.141016
N1    N     N_3   0.357398 0.873473 0.751464 -0.158659
H44   H     H_    0.284427 0.864032 0.704201 0.186720
H45   H     H_    0.330168 0.830391 0.777980 0.214084
N2    N     N_R   0.061203 0.643625 0.745681 0.224219
O25   O     O_R   0.106133 0.573514 0.684911 -0.344481
O26   O     O_R   0.115094 0.647376 0.811745 -0.487935
N3    N     N_3   0.939218 0.889510 0.795156 -0.178571
H46   H     H_    0.859142 0.883491 0.750887 0.124861
H47   H     H_    0.887802 0.940852 0.844562 0.173652
N4    N     N_R   0.872890 0.779035 0.359646 0.201701
O27   O     O_R   0.783570 0.847227 0.353766 -0.391680
O28   O     O_R   0.806534 0.713659 0.365961 -0.506752
N5    N     N_3   0.939477 0.303838 0.266955 -0.214823
H48   H     H_    0.893941 0.241415 0.247001 0.177627
H49   H     H_    0.892708 0.339891 0.322090 0.136181
N6    N     N_3   0.146846 0.160677 0.150258 -0.154958
H50   H     H_    0.204532 0.136876 0.096751 0.226600
H51   H     H_    0.195571 0.117040 0.176094 0.181754
N7    N     N_R   0.321156 0.223753 0.704286 0.199423
O29   O     O_R   0.430574 0.167734 0.657119 -0.473098
O30   O     O_R   0.347560 0.249502 0.777125 -0.445493
N8    N     N_3   0.151404 0.206364 0.597608 -0.214387
H52   H     H_    0.174792 0.137267 0.565901 0.086005
H53   H     H_    0.036010 0.225939 0.584927 0.197440
N9    N     N_R   0.303146 0.271476 0.044590 0.217330
O31   O     O_R   0.426162 0.223899 0.058534 -0.421435
O32   O     O_R   0.171745 0.233787 0.023134 -0.420006
N10   N     N_3   0.100406 0.332196 0.945623 -0.152012
H54   H     H_    0.009364 0.383569 0.949649 0.107284
H55   H     H_    0.118089 0.288122 0.888495 0.179197
N11   N     N_3   0.113356 0.585656 0.138009 -0.154162
H56   H     H_    0.185444 0.545911 0.090245 0.099031
H57   H     H_    0.121761 0.653319 0.148554 0.195826
N12   N     N_3   0.767388 0.661233 0.496872 -0.141355
H58   H     H_    0.859783 0.624442 0.458174 0.189079
H59   H     H_    0.752020 0.636471 0.539373 0.153674
N13   N     N_R   0.419267 0.801540 0.231139 0.277698
O33   O     O_R   0.307790 0.791333 0.180620 -0.404625
O34   O     O_R   0.456791 0.882043 0.271151 -0.329597

loop_
_geom_bond_atom_site_label_1
_geom_bond_atom_site_label_2
_geom_bond_distance
_ccdc_geom_bond_type
N12   H58   1.039337 S    
P7    O22   1.741471 S    
C28   C29   1.398658 A    
O16   P7    1.756699 S    
P2    C59   1.839621 S    
C22   C26   1.412740 A    
C5    H10   1.112280 S    
C48   C59   1.410051 A    
C26   C37   1.402383 A    
Ba1   O13   2.831353 S    
C2    H4    1.087399 S    
C4    C5    1.535725 S    
O6    C10   1.411004 S    
C56   C57   1.403681 A    
P5    C51   1.839546 S    
C32   C33   1.437335 A    
C51   C52   1.517618 S    
C20   C21   1.412425 A    
N12   H59   1.040340 S    
N10   H54   1.045600 S    
P8    O23   1.546123 D    
P3    O11   1.759066 S    
C27   C28   1.404785 A    
N7    O29   1.301111 A    
N4    O28   1.291728 A    
C4    H8    1.092608 S    
C7    H13   1.109973 S    
C41   C43   1.416344 A    
N8    H52   1.044085 S    
C8    H16   1.094882 S    
Ba2   O21   2.836864 S    
C21   C23   1.409949 A    
C33   C46   1.443293 A    
C11   C12   1.519784 S    
C17   C22   1.425217 A    
C7    H15   1.110747 S    
Ba1   O20   2.941773 S    
P4    C29   1.891184 S    
C40   C41   1.414121 A    
C12   H22   1.111314 S    
P1    O1    1.540096 D    
P8    C27   1.865035 S    
C12   N6    1.466027 S    
C3    H23   1.110970 S    
C42   C44   1.433556 A    
N13   O33   1.300664 A    
C15   N7    1.460558 S    
P4    Ba2   3.401668 S    
P5    O18   1.546168 D    
H29   C16   1.110577 S    
N4    O27   1.302351 A    
P8    O24   1.771159 S    
P2    O10   1.752692 S    
C39   C40   1.390810 A    
N8    H53   1.037689 S    
C14   H26   1.108034 S    
C1    C10   1.532199 S    
N6    H51   1.045609 S    
C1    H2    1.099260 S    
C57   C60   1.409773 A    
P2    Ba1   3.408317 S    
C45   H38   1.080137 S    
N11   H57   1.043944 S    
O5    C6    1.398020 S    
C54   H42   1.086155 S    
N10   H55   1.044810 S    
C18   C34   1.421332 A    
C44   C45   1.408408 A    
C58   H40   1.081773 S    
O7    Ba1   2.836698 S    
O12   Ba2   2.836738 S    
H1    C10   1.109037 S    
C36   C37   1.410982 A    
C3    N13   1.458792 S    
C30   C35   1.408116 A    
C23   H33   1.075323 S    
N9    O32   1.301391 A    
C49   H39   1.085533 S    
Ba1   Ba2   4.595433 S    
O17   Ba2   2.772555 S    
C17   C31   1.411449 A    
C13   H24   1.109609 S    
C5    N1    1.458215 S    
O4    P6    1.546185 D    
C25   C30   1.426945 A    
C2    C3    1.531653 S    
C19   C20   1.416045 A    
N3    H47   1.045560 S    
C16   H31   1.104100 S    
Ba2   O20   2.797505 S    
C21   C22   1.408517 A    
O11   C2    1.411201 S    
C11   H20   1.110955 S    
C47   H41   1.085510 S    
C42   C43   1.434095 A    
C12   H21   1.107891 S    
P1    O2    1.576126 S    
O2    Ba1   2.947442 S    
C35   H35   1.079432 S    
P4    O12   1.540391 D    
C55   C57   1.474001 S    
C49   C53   1.500137 S    
C2    H5    1.105948 S    
C1    H3    1.110923 S    
C11   O22   1.398810 S    
C10   N4    1.451531 S    
C18   C19   1.420124 A    
N7    O30   1.299205 A    
C31   C32   1.432178 A    
C14   H28   1.105647 S    
C6    H12   1.108957 S    
C6    C7    1.520582 S    
P6    C44   1.874673 S    
C1    H19   1.111562 S    
C4    H7    1.090415 S    
C24   C27   1.417611 A    
P5    O17   1.738482 S    
C15   O24   1.419823 S    
C28   H32   1.081735 S    
C49   C50   1.343072 D    
O19   C13   1.409513 S    
N1    H45   1.045657 S    
P2    O20   1.564491 S    
N11   H56   1.043191 S    
Ba1   O16   2.798057 S    
P2    O7    1.527485 D    
C17   C18   1.410252 A    
P3    O8    1.747837 S    
C8    N2    1.448627 S    
N5    H49   1.040533 S    
C16   H30   1.111849 S    
P1    C46   1.923727 S    
O14   P8    1.767473 S    
P7    C50   1.825512 S    
C19   N9    1.440539 S    
O8    Ba1   2.771945 S    
C52   C54   1.506623 S    
C45   C46   1.402398 A    
C47   C50   1.477327 S    
C15   N8    1.459244 S    
C31   C38   1.415054 A    
C9    H17   1.110955 S    
P1    O5    1.748870 S    
O3    P6    1.744749 S    
C48   C60   1.404610 A    
C4    O15   1.397900 S    
C40   H37   1.080139 S    
C6    H11   1.106587 S    
N3    H46   1.044252 S    
C56   C58   1.394698 A    
C48   N12   1.430412 S    
C47   C51   1.343056 D    
N9    O31   1.301996 A    
C37   C38   1.426447 A    
N5    H48   1.046109 S    
C9    N3    1.462673 S    
O1    Ba1   2.836218 S    
C13   C14   1.526082 S    
C20   N10   1.436848 S    
N2    O26   1.300767 A    
C58   C59   1.396467 A    
N6    H50   1.042851 S    
P4    O13   1.576126 S    
N2    O25   1.294529 A    
C8    C9    1.541340 S    
C32   C42   1.428547 A    
O2    Ba2   2.831913 S    
C25   C26   1.427971 A    
P4    O15   1.762613 S    
C54   C55   1.343050 D    
O16   Ba2   2.940989 S    
O14   Ba2   2.812818 S    
C9    H18   1.113186 S    
P1    Ba1   3.401142 S    
P3    C60   1.858842 S    
C7    H14   1.102041 S    
O10   C8    1.388847 S    
C29   C30   1.435064 A    
N13   O34   1.301125 A    
C39   H36   1.079564 S    
N1    H44   1.044252 S    
O13   Ba2   2.948228 S    
P7    O21   1.573338 D    
P5    O19   1.750295 S    
C34   H34   1.079020 S    
C23   C24   1.405617 A    
C33   C34   1.414356 A    
P3    O9    1.548623 D    
C35   C36   1.408133 A    
C3    H6    1.111794 S    
C14   H27   1.109685 S    
C43   N11   1.432269 S    
C55   H43   1.084443 S    
O6    P6    1.771970 S    
C13   H25   1.109660 S    
C24   C25   1.413235 A    
C15   C16   1.544076 S    
C36   C39   1.394169 A    
O3    Ba1   2.813439 S    
C11   N5    1.453643 S    
C52   C53   1.537230 S    
C5    H9    1.108606 S    
C38   C41   1.406739 A    
