data_mof_unit_61719.cif
_audit_creation_date              2013-03-05T15:40:40-0500
_audit_creation_method            fapswitch 2.2
_symmetry_space_group_name_H-M    P1
_symmetry_Int_Tables_number       1
_space_group_crystal_system       triclinic
_cell_length_a                    10.801229
_cell_length_b                    10.875185
_cell_length_c                    19.477864
_cell_angle_alpha                 97.633688
_cell_angle_beta                  92.136716
_cell_angle_gamma                 98.028277
_cell_volume                      2241.83524174

loop_
_atom_site_label
_atom_site_type_symbol
_atom_site_description
_atom_site_fract_x
_atom_site_fract_y
_atom_site_fract_z
_atom_type_partial_charge
Zn1   Zn    Zn3+2 0.407400 0.592620 0.441700 1.039612
Zn2   Zn    Zn3+2 0.384130 0.390950 0.548790 1.048690
Zn3   Zn    Zn3+2 0.607710 0.617180 0.567810 1.068793
Zn4   Zn    Zn3+2 0.600760 0.399250 0.441700 1.040038
O1    O     O_3   0.500000 0.500000 0.500000 -0.536038
O2    O     O_R   0.555650 0.222860 0.449830 -0.615796
O3    O     O_R   0.450070 0.771450 0.468560 -0.603521
O4    O     O_R   0.213590 0.407490 0.524780 -0.613614
O5    O     O_R   0.780700 0.598200 0.556830 -0.607572
O6    O     O_R   0.410860 0.431690 0.648970 -0.612003
O7    O     O_R   0.578570 0.421470 0.344370 -0.622148
O8    O     O_R   0.567340 0.590030 0.662290 -0.605899
O9    O     O_R   0.443230 0.556810 0.344370 -0.619678
O10   O     O_R   0.229880 0.548640 0.449830 -0.628621
O11   O     O_R   0.775840 0.445670 0.468570 -0.642766
O12   O     O_R   0.404020 0.217050 0.524780 -0.625838
O13   O     O_R   0.590260 0.788640 0.556820 -0.622768
C1    C     C_R   0.476478 0.162638 0.484100 0.851074
C2    C     C_R   0.524205 0.839030 0.515472 0.876029
C3    C     C_R   0.164410 0.472769 0.483960 0.856415
C4    C     C_R   0.836974 0.526495 0.515558 0.915238
C5    C     C_R   0.488341 0.513338 0.688311 0.898442
C6    C     C_R   0.510826 0.484182 0.311537 0.838824
C7    C     C_R   0.505200 0.470413 0.235824 -0.102935
C8    C     C_R   0.502720 0.578937 0.204944 -0.185992
C9    C     C_R   0.486873 0.571409 0.133697 -0.161993
C10   C     C_R   0.473423 0.454987 0.091612 0.077797
C11   C     C_R   0.475139 0.344108 0.121613 0.156135
C12   C     C_R   0.490679 0.351495 0.194400 0.109746
C13   C     C_R   0.628001 0.528728 0.869985 0.125238
C14   C     C_R   0.617012 0.521339 0.797539 0.236492
C15   C     C_R   0.389436 0.507696 0.801718 0.127202
C16   C     C_R   0.401441 0.513799 0.873459 -0.188008
C17   C     C_R   0.519642 0.524732 0.907743 0.024713
C18   C     C_2   0.457431 0.450989 0.016126 -0.166784
C19   C     C_2   0.529562 0.532173 0.983393 -0.148190
C20   C     C_R   0.497308 0.512070 0.763311 -0.213630
H1    H     H_    0.511762 0.670181 0.236333 0.205283
H2    H     H_    0.602978 0.599768 0.012332 0.184228
H3    H     H_    0.390869 0.377097 0.986503 0.192229
H4    H     H_    0.483375 0.657022 0.111352 0.177773
H5    H     H_    0.318187 0.512607 0.902859 0.189012
C21   C     C_2   0.526977 0.974619 0.523611 -0.162110
C22   C     C_2   0.471123 0.029084 0.474767 0.116222
C23   C     C_2   0.972254 0.535889 0.522046 -0.296570
H6    H     H_    0.024625 0.602392 0.563199 0.170449
C24   C     C_2   0.030699 0.463133 0.477575 -0.272592
H7    H     H_    0.980784 0.396881 0.435605 0.174567
I1    I     I_    0.614958 0.080660 0.617400 -0.187720
N1    N     N_R   0.430147 0.964390 0.406657 0.228042
O14   O     O_R   0.325897 0.984804 0.377637 -0.360284
O15   O     O_R   0.509422 0.911830 0.368078 -0.357644
N2    N     N_R   0.727060 0.519115 0.758556 0.235773
O16   O     O_R   0.735812 0.424151 0.711625 -0.364734
O17   O     O_R   0.815193 0.615346 0.766811 -0.314097
I2    I     I_    0.206178 0.501649 0.756303 -0.181326
I3    I     I_    0.458715 0.167402 0.056182 -0.233989
I4    I     I_    0.807549 0.532224 0.921052 -0.165348
I5    I     I_    0.480585 0.183058 0.241247 -0.143852

loop_
_geom_bond_atom_site_label_1
_geom_bond_atom_site_label_2
_geom_bond_distance
_ccdc_geom_bond_type
N1    O15   1.301989 A    
C21   C22   1.351542 D    
N2    O16   1.301536 A    
Zn3   O5    1.924954 S    
C1    C22   1.432319 S    
C8    H1    1.084101 S    
Zn1   O10   1.927950 S    
Zn2   O12   1.930669 S    
C17   C19   1.464026 S    
C18   C19   1.336952 D    
C6    C7    1.460498 S    
C15   C16   1.390422 A    
Zn4   O11   1.922054 S    
C23   C24   1.331558 D    
N1    O14   1.300937 A    
Zn1   O3    1.931255 S    
C11   I3    2.141471 S    
C14   N2    1.435448 S    
Zn4   O7    1.952902 S    
O5    C4    1.275179 A    
C9    C10   1.400028 A    
O4    C3    1.281455 A    
Zn1   O1    1.950655 S    
C16   H5    1.083448 S    
C13   I4    2.139476 S    
O7    C6    1.276671 A    
C11   C12   1.411677 A    
O13   C2    1.281248 A    
C2    C21   1.457923 S    
Zn3   O13   1.938945 S    
C4    C23   1.450032 S    
N2    O17   1.301108 A    
C13   C14   1.402301 A    
O2    C1    1.268095 A    
Zn2   O4    1.922196 S    
C23   H6    1.087874 S    
Zn2   O1    1.962000 S    
Zn1   O9    1.948354 S    
C13   C17   1.403967 A    
C18   H3    1.086311 S    
C3    C24   1.432890 S    
O8    C5    1.275294 A    
O11   C4    1.274895 A    
C16   C17   1.401066 A    
C7    C8    1.397009 A    
O9    C6    1.275779 A    
O10   C3    1.280866 A    
O12   C1    1.281220 A    
Zn4   O2    1.941040 S    
C22   N1    1.439482 S    
C10   C11   1.410131 A    
C12   I5    2.143750 S    
C7    C12   1.415914 A    
C21   I1    2.138912 S    
O3    C2    1.272362 A    
Zn3   O8    1.957587 S    
C10   C18   1.468168 S    
C8    C9    1.382029 A    
C15   C20   1.406567 A    
C5    C20   1.462467 S    
C15   I2    2.126618 S    
C19   H2    1.086588 S    
O6    C5    1.280565 A    
C24   H7    1.086384 S    
C9    H4    1.083502 S    
C14   C20   1.416968 A    
Zn4   O1    1.941429 S    
Zn3   O1    1.935481 S    
Zn2   O6    1.944165 S    
