data_mof_unit_45130.cif
_audit_creation_date              2012-12-10T16:58:32-0500
_audit_creation_method            fapswitch 2.2
_symmetry_space_group_name_H-M    P1
_symmetry_Int_Tables_number       1
_space_group_crystal_system       triclinic
_cell_length_a                    7.751801
_cell_length_b                    8.562409
_cell_length_c                    23.390695
_cell_angle_alpha                 90.734137
_cell_angle_beta                  85.556601
_cell_angle_gamma                 93.609233
_cell_volume                      1544.75055762

loop_
_atom_site_label
_atom_site_type_symbol
_atom_type_description
_atom_site_fract_x
_atom_site_fract_y
_atom_site_fract_z
_atom_type_partial_charge
C1    C     C_R   0.545846 0.794813 0.498495 0.975353
C2    C     C_R   0.337392 0.518351 0.302308 -0.209448
C3    C     C_R   0.661880 0.484454 0.757709 -0.112803
C4    C     C_R   0.335236 0.526369 0.243163 -0.103497
C5    C     C_R   0.505070 0.483328 0.791490 0.323813
C6    C     C_R   0.490841 0.526621 0.208817 0.323121
C7    C     C_2   0.570098 0.958244 0.497642 -0.373946
C8    C     C_2   0.429902 0.041756 0.502360 -0.373947
C9    C     C_R   0.501489 0.498521 0.610670 0.871951
C10   C     C_R   0.498442 0.501645 0.389332 0.872269
C11   C     C_R   0.446510 0.382475 0.122427 0.494962
C12   C     C_R   0.454154 0.205187 0.501505 0.975198
C13   C     C_R   0.543619 0.630086 0.877873 0.519768
C14   C     C_R   0.527112 0.656438 0.117975 0.533103
C15   C     C_R   0.460834 0.356576 0.882660 0.508304
C16   C     C_R   0.530747 0.652861 0.058244 -0.060192
C17   C     C_R   0.451638 0.361649 0.942428 -0.075210
C18   C     C_R   0.489052 0.510057 0.030391 -0.089200
C19   C     C_R   0.493699 0.504407 0.970199 -0.084079
C20   C     C_R   0.441360 0.373377 0.062688 -0.117912
C21   C     C_R   0.540328 0.641238 0.937861 -0.111332
C22   C     C_R   0.573773 0.788646 0.026137 -0.254922
C23   C     C_R   0.347638 0.484504 0.766397 -0.106768
C24   C     C_R   0.400021 0.227731 0.974649 -0.273677
C25   C     C_R   0.581465 0.783901 0.966326 0.465658
C26   C     C_R   0.387947 0.233520 0.034523 0.503719
C27   C     C_3   0.793475 0.962340 0.932045 0.111468
C28   C     C_3   0.828491 0.105726 0.893660 -0.291007
C29   C     C_3   0.020788 0.156125 0.886266 -0.926058
C30   C     C_3   0.149327 0.070891 0.062141 0.114751
C31   C     C_3   0.045574 0.176557 0.103807 -0.379487
C32   C     C_3   0.850779 0.142953 0.101323 -0.878137
C33   C     C_R   0.648899 0.519906 0.233207 -0.116164
C34   C     C_R   0.346590 0.489104 0.707238 -0.207498
C35   C     C_R   0.651568 0.511487 0.292308 -0.203867
C36   C     C_R   0.503557 0.492302 0.672852 -0.036568
C37   C     C_R   0.495620 0.509816 0.327209 -0.036772
C38   C     C_R   0.661339 0.488601 0.698383 -0.209792
H1    H     H_    0.600885 0.899798 0.047190 0.221155
H2    H     H_    0.212985 0.530058 0.223861 0.124553
H3    H     H_    0.702507 0.009290 0.493148 0.180572
H4    H     H_    0.297493 0.990710 0.506854 0.180581
H5    H     H_    0.014316 0.382797 0.456867 0.191035
H6    H     H_    0.985684 0.617204 0.543133 0.190916
H7    H     H_    0.867032 0.864501 0.912552 0.144380
H8    H     H_    0.839049 0.991319 0.975066 0.103317
H9    H     H_    0.780578 0.078645 0.850838 0.274238
H10   H     H_    0.757818 0.204469 0.913024 0.224441
H11   H     H_    0.066582 0.197928 0.927847 0.253140
H12   H     H_    0.365463 0.118104 0.953597 0.232274
H13   H     H_    0.041707 0.253788 0.855221 0.269121
H14   H     H_    0.097117 0.057283 0.869822 0.300470
H15   H     H_    0.116659 0.947137 0.074574 0.170707
H16   H     H_    0.108927 0.081753 0.017855 0.094039
H17   H     H_    0.080152 0.156854 0.148250 0.271417
H18   H     H_    0.077540 0.301505 0.092995 0.205579
H19   H     H_    0.810994 0.169556 0.058075 0.249683
H20   H     H_    0.780613 0.217733 0.133256 0.288252
H21   H     H_    0.814589 0.018464 0.111588 0.295872
H22   H     H_    0.226662 0.484459 0.792886 0.122079
H23   H     H_    0.768862 0.518420 0.206232 0.125354
H24   H     H_    0.223165 0.490920 0.688564 0.159946
H25   H     H_    0.775237 0.505668 0.310535 0.159673
H26   H     H_    0.783848 0.490607 0.672687 0.157393
H27   H     H_    0.215557 0.517430 0.328354 0.158101
H28   H     H_    0.783585 0.484068 0.777532 0.124622
N1    N     N_R   0.487385 0.522298 0.148238 -0.366297
N2    N     N_R   0.505438 0.489472 0.852159 -0.364476
N3    N     N_2   0.950330 0.457950 0.484560 -0.175736
N4    N     N_2   0.049670 0.542050 0.515440 -0.175788
O1    O     O_R   0.389250 0.738570 0.503790 -0.610666
O2    O     O_2   0.583536 0.757789 0.845100 -0.506007
O3    O     O_2   0.563454 0.792181 0.145802 -0.540869
O4    O     O_2   0.426430 0.220188 0.854980 -0.543746
O5    O     O_3   0.613615 0.922058 0.936327 -0.591516
O6    O     O_3   0.330407 0.100521 0.065371 -0.583357
O7    O     O_R   0.610750 0.261430 0.496210 -0.610695
O8    O     O_R   0.678390 0.711620 0.493890 -0.628950
O9    O     O_R   0.321610 0.288380 0.506110 -0.629017
O10   O     O_R   0.355400 0.513520 0.588790 -0.621551
O11   O     O_R   0.644600 0.486480 0.411210 -0.621270
O12   O     O_R   0.644550 0.486570 0.578900 -0.629309
O13   O     O_R   0.355450 0.513430 0.421100 -0.629425
O14   O     O_2   0.413891 0.253119 0.154818 -0.500377
Zn1   Zn    Zn3+2 0.306930 0.518000 0.506610 0.947422
Zn2   Zn    Zn3+2 0.693070 0.482000 0.493390 0.947560

loop_
_geom_bond_atom_site_label_1
_geom_bond_atom_site_label_2
_ccdc_geom_bond_type
C28   H9    S    
C32   H20   S    
C2    H27   S    
C7    C8    D    
C29   H11   S    
C30   H16   S    
C1    O1    A    
C10   C37   S    
C28   C29   S    
C35   C37   A    
C24   C26   A    
C30   C31   S    
C15   N2    A    
C12   O9    A    
C10   O13   A    
C34   H24   S    
C18   C19   A    
C17   C19   A    
O1    Zn1   S    
C4    H2    S    
C3    C38   A    
C22   C25   A    
C9    C36   S    
C26   O6    S    
C14   N1    A    
H6    N4    S    
C31   H18   S    
C34   C36   A    
O11   Zn2   S    
C9    O12   A    
C27   H7    S    
H5    N3    S    
C1    O8    A    
C32   H19   S    
C5    N2    S    
C27   O5    S    
C11   N1    A    
C38   H26   S    
C24   H12   S    
C23   H22   S    
C30   H15   S    
C11   C20   A    
C17   C24   A    
C14   O3    S    
C4    C6    A    
O12   Zn2   S    
C25   O5    S    
C9    O10   A    
C2    C4    A    
O10   Zn1   S    
C30   O6    S    
C31   C32   S    
C5    C23   A    
C8    C12   S    
C23   C34   A    
C12   O7    A    
C13   C21   A    
C27   H8    S    
C16   C18   A    
C6    N1    S    
O13   Zn1   S    
O7    Zn2   S    
C14   C16   A    
C3    H28   S    
O9    Zn1   S    
C29   H13   S    
C15   C17   A    
C21   C25   A    
C28   H10   S    
C16   C22   A    
C19   C21   A    
C1    C7    S    
C8    H4    S    
C3    C5    A    
C13   O2    S    
C11   O14   S    
C10   O11   A    
C6    C33   A    
C36   C38   A    
C2    C37   A    
O8    Zn2   S    
C20   C26   A    
C22   H1    S    
C33   C35   A    
C18   C20   A    
C7    H3    S    
N3    N4    D    
C15   O4    S    
C33   H23   S    
C27   C28   S    
C35   H25   S    
C32   H21   S    
C31   H17   S    
N4    Zn1   S    
C13   N2    A    
N3    Zn2   S    
C29   H14   S    
