data_mof_unit_8459.cif
_audit_creation_date              2013-03-05T15:41:34-0500
_audit_creation_method            fapswitch 2.2
_symmetry_space_group_name_H-M    P1
_symmetry_Int_Tables_number       1
_space_group_crystal_system       triclinic
_cell_length_a                    24.660405
_cell_length_b                    17.495654
_cell_length_c                    15.681185
_cell_angle_alpha                 89.651715
_cell_angle_beta                  130.111902
_cell_angle_gamma                 90.572064
_cell_volume                      5174.02351104

loop_
_atom_site_label
_atom_site_type_symbol
_atom_site_description
_atom_site_fract_x
_atom_site_fract_y
_atom_site_fract_z
_atom_type_partial_charge
C1    C     C_R   0.332098 0.393757 0.198056 -0.123393
C2    C     C_R   0.332460 0.606042 0.198071 -0.119027
C3    C     C_R   0.832098 0.893754 0.198057 -0.123383
C4    C     C_R   0.832460 0.106041 0.198071 -0.119026
H1    H     H_    0.279652 0.398439 0.171599 0.080106
H2    H     H_    0.279882 0.600600 0.171221 0.076685
H3    H     H_    0.779653 0.898434 0.171602 0.080100
H4    H     H_    0.779882 0.100599 0.171221 0.076685
N1    N     N_R   0.389430 0.421450 0.294590 -0.044489
N2    N     N_R   0.389430 0.578550 0.294590 -0.045746
N3    N     N_R   0.889430 0.921450 0.294590 -0.044491
N4    N     N_R   0.889430 0.078550 0.294590 -0.045746
C5    C     C_R   0.654807 0.365232 0.771737 0.526891
C6    C     C_R   0.655209 0.635375 0.771820 0.536919
C7    C     C_R   0.154807 0.865231 0.771736 0.526888
C8    C     C_R   0.155209 0.135374 0.771821 0.536923
N5    N     N_R   0.612200 0.424040 0.705410 -0.104470
N6    N     N_R   0.612200 0.575960 0.705410 -0.104742
N7    N     N_R   0.112200 0.924040 0.705410 -0.104470
N8    N     N_R   0.112200 0.075960 0.705410 -0.104742
C9    C     C_R   0.610472 0.395427 0.403438 -0.130121
C10   C     C_R   0.613867 0.601072 0.405671 -0.136697
C11   C     C_R   0.110473 0.895428 0.403438 -0.130121
C12   C     C_R   0.113864 0.101078 0.405669 -0.136703
H5    H     H_    0.584639 0.395764 0.315746 0.091321
H6    H     H_    0.588539 0.604809 0.318372 0.086352
H7    H     H_    0.084640 0.895765 0.315746 0.091321
H8    H     H_    0.088533 0.104819 0.318369 0.086353
N9    N     N_R   0.581780 0.422390 0.443390 -0.042160
N10   N     N_R   0.581780 0.577610 0.443390 -0.043816
N11   N     N_R   0.081780 0.922390 0.443390 -0.042161
N12   N     N_R   0.081780 0.077610 0.443390 -0.043815
C13   C     C_R   0.403315 0.363059 0.588762 -0.103650
C14   C     C_R   0.400720 0.634047 0.587977 -0.117167
C15   C     C_R   0.903313 0.863063 0.588764 -0.103648
C16   C     C_R   0.900721 0.134048 0.587977 -0.117164
H9    H     H_    0.421198 0.355387 0.671431 0.080672
H10   H     H_    0.419544 0.643066 0.671053 0.083571
H11   H     H_    0.921196 0.855396 0.671434 0.080671
H12   H     H_    0.919546 0.143067 0.671053 0.083575
N13   N     N_R   0.419850 0.423100 0.556610 -0.034782
N14   N     N_R   0.419850 0.576900 0.556610 -0.033193
N15   N     N_R   0.919850 0.923100 0.556610 -0.034782
N16   N     N_R   0.919850 0.076900 0.556610 -0.033192
C17   C     C_R   0.688625 0.397182 0.587569 -0.082538
C18   C     C_R   0.690668 0.595841 0.588685 -0.028850
C19   C     C_R   0.188625 0.897182 0.587569 -0.082534
C20   C     C_R   0.190667 0.095843 0.588683 -0.028852
H13   H     H_    0.739343 0.400238 0.669068 0.196485
H14   H     H_    0.740327 0.586761 0.669744 0.182806
H15   H     H_    0.239343 0.900239 0.669069 0.196487
H16   H     H_    0.240327 0.086765 0.669742 0.182809
N17   N     N_R   0.627410 0.423100 0.556610 -0.051714
N18   N     N_R   0.627410 0.576900 0.556610 -0.053137
N19   N     N_R   0.127410 0.923100 0.556610 -0.051715
N20   N     N_R   0.127410 0.076900 0.556610 -0.053135
C21   C     C_R   0.333333 0.361364 0.403881 -0.166965
C22   C     C_R   0.333803 0.637564 0.403415 -0.154003
C23   C     C_R   0.833321 0.861370 0.403882 -0.166990
C24   C     C_R   0.833804 0.137565 0.403415 -0.153997
H17   H     H_    0.292422 0.351605 0.317154 0.096222
H18   H     H_    0.299940 0.652392 0.318150 0.108944
H19   H     H_    0.792408 0.851617 0.317155 0.096232
H20   H     H_    0.799942 0.152394 0.318150 0.108942
N21   N     N_R   0.374220 0.422390 0.443390 -0.035344
N22   N     N_R   0.374220 0.577610 0.443390 -0.038361
N23   N     N_R   0.874220 0.922390 0.443390 -0.035341
N24   N     N_R   0.874220 0.077610 0.443390 -0.038360
C25   C     C_R   0.563813 0.367026 0.770818 -0.238317
C26   C     C_R   0.563790 0.632932 0.770076 -0.228429
C27   C     C_R   0.063812 0.867025 0.770817 -0.238319
C28   C     C_R   0.063790 0.132931 0.770078 -0.228445
H21   H     H_    0.532968 0.357150 0.796354 0.128204
H22   H     H_    0.532150 0.642872 0.793909 0.131612
H23   H     H_    0.032967 0.857148 0.796351 0.128206
H24   H     H_    0.032151 0.142871 0.793911 0.131607
N25   N     N_R   0.555000 0.424040 0.705410 -0.063598
N26   N     N_R   0.555000 0.575960 0.705410 -0.065366
N27   N     N_R   0.055000 0.924040 0.705410 -0.063600
N28   N     N_R   0.055000 0.075960 0.705410 -0.065362
C29   C     C_R   0.421322 0.392900 0.195082 -0.136244
C30   C     C_R   0.421944 0.608267 0.195742 -0.146975
C31   C     C_R   0.921321 0.892899 0.195082 -0.136246
C32   C     C_R   0.921944 0.108267 0.195741 -0.146978
H25   H     H_    0.449354 0.395406 0.163352 0.091510
H26   H     H_    0.450219 0.606955 0.164409 0.093755
H27   H     H_    0.949354 0.895406 0.163352 0.091510
H28   H     H_    0.950219 0.106955 0.164408 0.093745
N29   N     N_R   0.446630 0.421450 0.294590 -0.043418
N30   N     N_R   0.446630 0.578550 0.294590 -0.041956
N31   N     N_R   0.946630 0.921450 0.294590 -0.043419
N32   N     N_R   0.946630 0.078550 0.294590 -0.041955
C33   C     C_R   0.349424 0.375979 0.132702 0.124417
C34   C     C_R   0.350283 0.625307 0.133510 0.125624
C35   C     C_R   0.849424 0.875977 0.132703 0.124420
C36   C     C_R   0.850283 0.125307 0.133509 0.125630
C37   C     C_R   0.622315 0.326010 0.805976 -0.033019
C38   C     C_R   0.622791 0.674243 0.805818 -0.043030
C39   C     C_R   0.122315 0.826009 0.805974 -0.033018
C40   C     C_R   0.122792 0.174243 0.805820 -0.043041
C41   C     C_R   0.678193 0.377300 0.492986 -0.042379
C42   C     C_R   0.683789 0.611038 0.496240 -0.060455
C43   C     C_R   0.178194 0.877301 0.492986 -0.042383
C44   C     C_R   0.183786 0.111043 0.496237 -0.060451
C45   C     C_R   0.351830 0.320003 0.493672 -0.000456
C46   C     C_R   0.346257 0.673265 0.491241 -0.009272
C47   C     C_R   0.851825 0.820008 0.493675 -0.000442
C48   C     C_R   0.846258 0.173266 0.491241 -0.009276
Ni1   Ni    Ni4+2 0.382890 0.500000 0.370170 0.198389
Ni2   Ni    Ni4+2 0.882890 1.000000 0.370170 0.198392
Ni3   Ni    Ni4+2 0.618740 0.500000 0.629830 0.306984
Ni4   Ni    Ni4+2 0.118740 0.000000 0.629830 0.306984
Ni5   Ni    Ni4+2 0.514090 0.500000 0.370170 0.194123
Ni6   Ni    Ni4+2 0.014090 1.000000 0.370170 0.194122
Ni7   Ni    Ni4+2 0.487550 0.500000 0.629830 0.202381
Ni8   Ni    Ni4+2 0.987550 0.000000 0.629830 0.202381
C49   C     C_3   0.356267 0.205446 0.593801 -0.430347
C50   C     C_3   0.345489 0.800755 0.555337 -0.438361
C51   C     C_3   0.856265 0.705466 0.593829 -0.430366
C52   C     C_3   0.845488 0.300758 0.555333 -0.438365
H29   H     H_    0.392245 0.238429 0.672345 0.165899
H30   H     H_    0.388628 0.782889 0.643193 0.173996
H31   H     H_    0.892227 0.738462 0.672364 0.165901
H32   H     H_    0.888629 0.282894 0.643189 0.173996
H33   H     H_    0.391500 0.169436 0.590427 0.157022
H34   H     H_    0.373298 0.827280 0.528275 0.156156
H35   H     H_    0.891514 0.669459 0.590489 0.157025
H36   H     H_    0.873295 0.327283 0.528268 0.156157
C53   C     C_3   0.809886 0.654976 0.605564 -0.433766
C54   C     C_3   0.799021 0.359717 0.554364 -0.413582
C55   C     C_3   0.309890 0.154956 0.605543 -0.433767
C56   C     C_3   0.299022 0.859716 0.554368 -0.413584
H37   H     H_    0.829011 0.594957 0.624114 0.154242
H38   H     H_    0.797426 0.413915 0.515319 0.151780
H39   H     H_    0.329003 0.094933 0.624062 0.154241
H40   H     H_    0.297429 0.913914 0.515326 0.151779
H41   H     H_    0.314491 0.176119 0.676779 0.209429
H42   H     H_    0.322932 0.872978 0.641680 0.175750
H43   H     H_    0.814469 0.676149 0.676779 0.209461
H44   H     H_    0.822931 0.372981 0.641676 0.175748
H45   H     H_    0.289304 0.323550 0.586040 0.184291
H46   H     H_    0.318400 0.684031 0.630708 0.170709
H47   H     H_    0.789268 0.823563 0.585994 0.184302
H48   H     H_    0.818405 0.184034 0.630713 0.170709
H49   H     H_    0.696482 0.754616 0.542015 0.190812
H50   H     H_    0.744341 0.257317 0.624397 0.213314
H51   H     H_    0.196522 0.254615 0.542087 0.190828
H52   H     H_    0.244338 0.757315 0.624393 0.213314
C57   C     C_3   0.257986 0.299699 0.500210 -0.436700
C58   C     C_3   0.272763 0.694754 0.541158 -0.433625
C59   C     C_3   0.757965 0.799699 0.500175 -0.436725
C60   C     C_3   0.772767 0.194755 0.541162 -0.433623
C61   C     C_3   0.262552 0.205840 0.375416 0.319602
C62   C     C_3   0.234525 0.758872 0.355405 0.333123
C63   C     C_3   0.762574 0.705821 0.375444 0.319601
C64   C     C_3   0.734524 0.258870 0.355405 0.333123
C65   C     C_3   0.307994 0.258350 0.487771 0.271749
C66   C     C_3   0.299269 0.730187 0.481876 0.305143
C67   C     C_3   0.807993 0.758352 0.487778 0.271766
C68   C     C_3   0.799270 0.230188 0.481876 0.305144
C69   C     C_3   0.732022 0.659666 0.495737 0.356953
C70   C     C_3   0.723097 0.326901 0.488523 0.359030
C71   C     C_3   0.232020 0.159669 0.495733 0.356941
C72   C     C_3   0.223097 0.826902 0.488523 0.359032
C73   C     C_3   0.704748 0.742462 0.481421 -0.371117
C74   C     C_3   0.724559 0.249717 0.538162 -0.387576
C75   C     C_3   0.204766 0.242469 0.481464 -0.371103
C76   C     C_3   0.224556 0.749717 0.538158 -0.387574
C77   C     C_3   0.732748 0.637660 0.400479 -0.427824
C78   C     C_3   0.689887 0.313412 0.365787 -0.478731
C79   C     C_3   0.232722 0.137679 0.400445 -0.427799
C80   C     C_3   0.189889 0.813415 0.365788 -0.478731
H53   H     H_    0.767337 0.586707 0.428882 0.144163
H54   H     H_    0.681949 0.369718 0.325822 0.146786
H55   H     H_    0.267298 0.086717 0.428816 0.144155
H56   H     H_    0.181953 0.869722 0.325826 0.146786
H57   H     H_    0.681740 0.614672 0.326416 0.126910
H58   H     H_    0.635845 0.288918 0.320964 0.153489
H59   H     H_    0.181706 0.114708 0.326382 0.126908
H60   H     H_    0.135846 0.788923 0.320961 0.153489
H61   H     H_    0.230411 0.349741 0.444211 0.154822
H62   H     H_    0.247747 0.637896 0.510126 0.152521
H63   H     H_    0.730388 0.849732 0.444156 0.154821
H64   H     H_    0.747752 0.137896 0.510134 0.152521
H65   H     H_    0.652827 0.750482 0.396673 0.162051
H66   H     H_    0.670212 0.224828 0.488112 0.156855
H67   H     H_    0.152838 0.250509 0.396732 0.162043
H68   H     H_    0.170209 0.724829 0.488105 0.156855
H69   H     H_    0.207785 0.628609 0.998899 0.113818
H70   H     H_    0.206822 0.372766 0.997735 0.119503
H71   H     H_    0.707785 0.128610 0.998900 0.113818
H72   H     H_    0.706822 0.872765 0.997736 0.119490
H73   H     H_    0.688046 0.206072 0.804281 0.172584
H74   H     H_    0.686123 0.797971 0.801342 0.176661
H75   H     H_    0.188045 0.706071 0.804280 0.172582
H76   H     H_    0.186123 0.297970 0.801342 0.176657
C81   C     C_2   0.648267 0.257326 0.875691 -0.115260
C82   C     C_2   0.648426 0.743228 0.874991 -0.126382
C83   C     C_2   0.148266 0.757325 0.875690 -0.115256
C84   C     C_2   0.148428 0.243228 0.874993 -0.126375
C85   C     C_2   0.683734 0.203807 0.868734 -0.049662
C86   C     C_2   0.682117 0.799126 0.866202 -0.041439
C87   C     C_2   0.183734 0.703807 0.868734 -0.049653
C88   C     C_2   0.182118 0.299126 0.866202 -0.041425
H77   H     H_    0.320176 0.676194 0.979164 0.169845
H78   H     H_    0.318544 0.329192 0.976381 0.181527
H79   H     H_    0.820175 0.176193 0.979164 0.169834
H80   H     H_    0.818544 0.829192 0.976381 0.181525
C89   C     C_2   0.299535 0.650624 0.016593 -0.146100
C90   C     C_2   0.298216 0.352905 0.014729 -0.116106
C91   C     C_2   0.799535 0.150624 0.016592 -0.146119
C92   C     C_2   0.798216 0.852904 0.014730 -0.116094
C93   C     C_2   0.229611 0.652432 0.962742 -0.140862
C94   C     C_2   0.228249 0.350546 0.960647 -0.165810
C95   C     C_2   0.729611 0.152433 0.962742 -0.140853
C96   C     C_2   0.728249 0.850545 0.960648 -0.165812
H81   H     H_    0.642453 0.253343 0.938604 0.117576
H82   H     H_    0.644259 0.745304 0.939820 0.121256
H83   H     H_    0.142453 0.753342 0.938603 0.117575
H84   H     H_    0.144261 0.245304 0.939823 0.121220
C97   C     C_3   0.700224 0.751914 0.265971 -0.405935
C98   C     C_3   0.626588 0.713648 0.181584 -0.286098
C99   C     C_3   0.576504 0.763647 0.078507 -0.927495
H85   H     H_    0.569101 0.819730 0.102535 0.268562
H86   H     H_    0.598004 0.773221 0.035169 0.250137
H87   H     H_    0.524027 0.734819 0.019875 0.255506
H88   H     H_    0.631306 0.657771 0.153742 0.193247
H89   H     H_    0.601713 0.704796 0.219797 0.197199
H90   H     H_    0.690885 0.807611 0.286791 0.180376
H91   H     H_    0.716580 0.766485 0.216455 0.180142
C100  C     C_3   0.680351 0.196749 0.262703 -0.424813
C101  C     C_3   0.659440 0.127633 0.296867 -0.285353
C102  C     C_3   0.600613 0.080538 0.195271 -0.916061
H92   H     H_    0.552130 0.115472 0.137912 0.268551
H93   H     H_    0.618236 0.059515 0.149915 0.254651
H94   H     H_    0.587355 0.030435 0.222808 0.256408
H95   H     H_    0.705701 0.089464 0.351406 0.206913
H96   H     H_    0.639487 0.146901 0.339355 0.209838
H97   H     H_    0.630229 0.226411 0.194909 0.186723
H98   H     H_    0.695805 0.174877 0.215404 0.170275
C103  C     C_3   0.200204 0.251955 0.265968 -0.405921
C104  C     C_3   0.126546 0.213724 0.181609 -0.286063
C105  C     C_3   0.076471 0.263731 0.078539 -0.927386
H99   H     H_    0.069241 0.319909 0.102603 0.268537
H100  H     H_    0.097879 0.273104 0.035025 0.250094
H101  H     H_    0.023923 0.235015 0.020049 0.255538
H102  H     H_    0.131225 0.157830 0.153745 0.193216
H103  H     H_    0.101689 0.204905 0.219857 0.197195
H104  H     H_    0.190902 0.307663 0.286823 0.180322
H105  H     H_    0.216540 0.266512 0.216421 0.180165
C106  C     C_3   0.180351 0.696754 0.262699 -0.424815
C107  C     C_3   0.159438 0.627637 0.296859 -0.285346
C108  C     C_3   0.100610 0.580544 0.195260 -0.916077
H106  H     H_    0.052128 0.615479 0.137901 0.268555
H107  H     H_    0.118234 0.559523 0.149904 0.254646
H108  H     H_    0.087351 0.530441 0.222793 0.256411
H109  H     H_    0.205697 0.589467 0.351397 0.206910
H110  H     H_    0.139484 0.646905 0.339345 0.209838
H111  H     H_    0.130230 0.726418 0.194906 0.186723
H112  H     H_    0.195805 0.674883 0.215400 0.170275
C109  C     C_3   0.312840 0.172806 0.355526 -0.464239
C110  C     C_3   0.276100 0.120464 0.252541 -0.285305
C111  C     C_3   0.329735 0.088773 0.243559 -0.835314
H113  H     H_    0.358346 0.136223 0.239625 0.274748
H114  H     H_    0.368604 0.051831 0.316409 0.244237
H115  H     H_    0.301733 0.054199 0.166302 0.269822
H116  H     H_    0.249052 0.071897 0.257788 0.189588
H117  H     H_    0.236042 0.152504 0.174685 0.215490
H118  H     H_    0.338753 0.220352 0.346170 0.194831
H119  H     H_    0.356162 0.139384 0.428820 0.186874
C112  C     C_3   0.265282 0.807904 0.309226 -0.460311
C113  C     C_3   0.212055 0.828313 0.183798 -0.328470
C114  C     C_3   0.243652 0.886512 0.153411 -0.808840
H120  H     H_    0.256196 0.940512 0.199768 0.242572
H121  H     H_    0.292739 0.863782 0.173872 0.282029
H122  H     H_    0.204845 0.898823 0.062620 0.262960
H123  H     H_    0.197892 0.776690 0.132334 0.198964
H124  H     H_    0.162787 0.852376 0.161205 0.196697
H125  H     H_    0.286645 0.863001 0.355039 0.200046
H126  H     H_    0.310987 0.779175 0.325594 0.186780
C115  C     C_3   0.812886 0.672793 0.355598 -0.464246
C116  C     C_3   0.776173 0.620442 0.252630 -0.285232
C117  C     C_3   0.829836 0.588732 0.243721 -0.835395
H127  H     H_    0.858469 0.636173 0.239820 0.274727
H128  H     H_    0.868685 0.551790 0.316586 0.244238
H129  H     H_    0.801854 0.554154 0.166472 0.269825
H130  H     H_    0.749106 0.571884 0.257850 0.189579
H131  H     H_    0.736138 0.652482 0.174761 0.215509
H132  H     H_    0.838800 0.720343 0.346249 0.194829
H133  H     H_    0.856207 0.639382 0.428909 0.186884
C118  C     C_3   0.765278 0.307902 0.309221 -0.460308
C119  C     C_3   0.712049 0.328306 0.183792 -0.328478
C120  C     C_3   0.743640 0.386510 0.153399 -0.808818
H134  H     H_    0.756175 0.440512 0.199746 0.242563
H135  H     H_    0.792732 0.363787 0.173868 0.282027
H136  H     H_    0.704833 0.398812 0.062605 0.262959
H137  H     H_    0.697891 0.276681 0.132332 0.198962
H138  H     H_    0.662779 0.352363 0.161196 0.196697
H139  H     H_    0.786638 0.363001 0.355030 0.200049
H140  H     H_    0.810984 0.279176 0.325591 0.186777
S1    S     S_3+6 0.747193 0.358062 0.846848 -0.087091
O1    O     O_2   0.761954 0.295456 0.799311 -0.404639
O2    O     O_2   0.777358 0.431247 0.844133 -0.267582
O3    O     O_3   0.788108 0.337610 0.980907 -0.537907
H141  H     H_    0.838534 0.330259 0.016671 0.368456
S2    S     S_3+6 0.746306 0.649944 0.838504 -0.094811
O4    O     O_2   0.752635 0.708438 0.774672 -0.400826
O5    O     O_2   0.784668 0.679120 0.954751 -0.302961
O6    O     O_3   0.787603 0.570513 0.851294 -0.500558
H142  H     H_    0.836742 0.586921 0.887471 0.369171
S3    S     S_3+6 0.247193 0.858061 0.846847 -0.087094
O7    O     O_2   0.261954 0.795456 0.799309 -0.404626
O8    O     O_2   0.277358 0.931246 0.844134 -0.267592
O9    O     O_3   0.288107 0.837607 0.980906 -0.537906
H143  H     H_    0.338538 0.830271 0.016675 0.368451
S4    S     S_3+6 0.246306 0.149943 0.838504 -0.094817
O10   O     O_2   0.252635 0.208437 0.774673 -0.400823
O11   O     O_2   0.284669 0.179119 0.954751 -0.302976
O12   O     O_3   0.287602 0.070512 0.851291 -0.500562
H144  H     H_    0.336742 0.086919 0.887469 0.369172

loop_
_geom_bond_atom_site_label_1
_geom_bond_atom_site_label_2
_geom_bond_distance
_ccdc_geom_bond_type
C5    S1    1.771911 S    
C30   C34   1.396058 A    
C31   H27   1.081546 S    
C99   H85   1.111194 S    
C14   N14   1.333628 A    
C54   H44   1.112194 S    
C99   H87   1.110788 S    
C107  H110  1.108210 S    
C6    S2    1.780431 S    
S1    O1    1.501827 D    
C116  C117  1.527224 S    
C78   H58   1.113088 S    
C35   C92   1.472614 S    
C8    N8    1.363041 A    
C62   C66   1.630314 S    
H75   C87   1.082724 S    
C112  C113  1.546955 S    
C114  H122  1.110824 S    
H73   C85   1.082726 S    
C4    C36   1.377684 A    
C119  H138  1.110243 S    
C11   C43   1.358219 A    
N28   Ni8   1.836382 S    
C113  C114  1.525685 S    
C26   H22   1.076072 S    
H76   C88   1.083694 S    
N11   Ni6   1.872193 S    
C112  H125  1.110607 S    
C36   C91   1.472538 S    
C119  H137  1.108317 S    
C82   H82   1.086508 S    
N29   Ni5   1.869330 S    
N8    N28   1.410575 A    
C14   C46   1.398651 A    
C72   C76   1.543612 S    
C103  H104  1.102028 S    
N6    Ni3   1.861870 S    
O9    H143  0.990542 S    
C27   C39   1.375222 A    
C89   C93   1.346084 D    
C64   C118  1.588325 S    
S4    O10   1.503091 D    
C11   N11   1.302736 A    
C12   N12   1.318376 A    
C106  H112  1.101090 S    
C63   C77   1.570377 S    
C64   C68   1.630313 S    
N6    N26   1.410575 A    
C58   C76   1.513391 S    
S2    O4    1.503090 D    
N24   Ni2   1.883833 S    
H51   C75   1.114690 S    
C53   H37   1.113148 S    
C84   H84   1.086509 S    
C16   N16   1.333627 A    
C78   H54   1.113471 S    
S1    O3    1.682338 S    
C111  H114  1.110828 S    
N9    Ni5   1.872193 S    
C113  H124  1.110240 S    
C74   H66   1.113055 S    
C87   C93   1.454688 S    
C32   H28   1.081670 S    
C21   H17   1.062050 S    
C51   H31   1.107913 S    
C31   N31   1.349901 A    
C23   H19   1.062030 S    
C24   H20   1.055342 S    
C46   C66   1.469033 S    
C98   H88   1.110302 S    
C42   C69   1.459624 S    
C64   C78   1.550007 S    
C5    C37   1.392863 A    
C104  H103  1.109070 S    
C15   C47   1.399263 A    
N3    N31   1.410575 A    
C20   H16   1.065960 S    
N16   Ni8   1.863261 S    
C51   C67   1.578340 S    
C52   C68   1.564534 S    
C3    C35   1.378533 A    
C12   C44   1.364582 A    
N25   Ni7   1.849942 S    
C69   C73   1.556290 S    
C107  C108  1.528253 S    
N10   Ni5   1.858088 S    
C61   C103  1.602561 S    
C16   C48   1.398649 A    
C25   N25   1.341230 A    
C3    N3    1.327632 A    
N4    Ni2   1.881861 S    
C7    S3    1.771911 S    
N10   N18   1.358009 A    
C120  H134  1.108803 S    
S4    O12   1.664423 S    
C109  C110  1.543851 S    
C88   C94   1.456587 S    
N2    Ni1   1.881861 S    
C103  C104  1.544998 S    
C50   H30   1.113690 S    
C23   N23   1.312324 A    
C97   H91   1.108884 S    
C82   C86   1.339920 D    
C15   N15   1.331843 A    
C102  H92   1.110964 S    
C109  H118  1.109299 S    
C84   C88   1.339919 D    
C69   C77   1.556112 S    
C54   C70   1.547901 S    
C17   N17   1.336715 A    
C116  H130  1.110063 S    
N8    Ni4   1.861870 S    
C117  H129  1.110400 S    
H79   C91   1.086693 S    
C79   H59   1.098159 S    
N13   Ni7   1.849217 S    
N5    Ni3   1.849245 S    
C77   H57   1.098166 S    
C6    C38   1.396505 A    
C63   C67   1.630634 S    
C37   C81   1.465122 S    
C2    C34   1.377683 A    
C83   H83   1.086234 S    
N26   Ni7   1.836382 S    
C110  H116  1.110059 S    
C8    C40   1.396507 A    
C59   C73   1.513809 S    
C23   C47   1.371422 A    
C100  H98   1.101090 S    
C59   C67   1.552956 S    
C63   C115  1.576127 S    
C97   C98   1.544962 S    
N15   Ni8   1.849217 S    
H70   C94   1.082322 S    
H78   C90   1.086595 S    
N23   Ni2   1.870649 S    
C53   H43   1.112959 S    
C56   H40   1.112749 S    
C105  H101  1.110841 S    
C53   C69   1.549202 S    
C118  H140  1.107188 S    
C24   N24   1.301704 A    
H69   C93   1.082041 S    
C40   C84   1.466291 S    
C1    C33   1.378530 A    
S3    O8    1.488536 D    
C101  H95   1.109001 S    
C72   C80   1.549595 S    
C4    N4    1.326861 A    
C39   C83   1.465123 S    
C9    H5    1.080732 S    
C10   N10   1.318386 A    
N4    N32   1.410575 A    
C12   H8    1.079984 S    
C108  H108  1.110549 S    
C60   C74   1.513389 S    
C99   H86   1.110039 S    
C59   H63   1.110474 S    
C110  C111  1.527222 S    
N31   Ni6   1.869330 S    
C5    N5    1.358231 A    
H48   C60   1.112784 S    
H47   C59   1.114916 S    
C51   C53   1.539913 S    
C49   C55   1.539932 S    
C102  H94   1.110550 S    
C50   C56   1.542188 S    
N15   N23   1.358001 A    
C33   C90   1.472616 S    
C77   H53   1.114210 S    
C32   N32   1.350634 A    
C49   H33   1.106895 S    
C29   H25   1.081545 S    
C80   H56   1.113473 S    
C51   H35   1.106895 S    
C22   H18   1.055341 S    
C57   H61   1.110473 S    
C76   H68   1.113054 S    
C91   C95   1.346085 D    
C57   C75   1.513810 S    
C106  C107  1.533238 S    
C58   H62   1.101698 S    
H49   C73   1.114680 S    
C7    N7    1.358231 A    
C43   C72   1.459022 S    
C1    H1    1.077875 S    
C41   C70   1.459023 S    
C120  H136  1.110825 S    
C3    H3    1.077877 S    
C26   N26   1.339238 A    
C56   H42   1.112195 S    
C105  H99   1.111252 S    
H74   C86   1.083693 S    
S4    O11   1.502662 D    
H71   C95   1.082040 S    
C70   C74   1.543612 S    
C45   C65   1.479765 S    
S2    O5    1.502661 D    
C25   H21   1.076012 S    
C71   C79   1.556120 S    
C24   C48   1.357492 A    
C4    H4    1.078002 S    
C115  H133  1.107400 S    
C29   N29   1.349902 A    
C80   H60   1.113087 S    
C54   H38   1.112750 S    
C83   C87   1.339475 D    
C81   H81   1.086235 S    
C27   N27   1.341230 A    
C107  H109  1.109001 S    
S1    O2    1.488536 D    
N1    Ni1   1.894693 S    
S2    O6    1.664422 S    
C19   C43   1.378345 A    
C1    N1    1.327634 A    
N1    N29   1.410575 A    
C19   H15   1.067835 S    
C30   H26   1.081669 S    
C13   H9    1.074907 S    
C15   H11   1.074904 S    
C56   C72   1.547901 S    
C55   H41   1.112966 S    
C70   C78   1.549595 S    
C55   C71   1.549212 S    
C18   N18   1.333028 A    
N5    N25   1.410575 A    
C104  C105  1.528151 S    
C13   C45   1.399268 A    
N7    Ni4   1.849245 S    
N7    N27   1.410575 A    
N21   Ni1   1.870649 S    
C17   C41   1.378343 A    
C112  H126  1.107190 S    
H52   C76   1.111372 S    
C62   C112  1.588322 S    
C8    S4    1.780430 S    
C58   C66   1.563211 S    
C103  H105  1.108899 S    
C21   N21   1.312257 A    
C52   H36   1.109940 S    
C30   N30   1.350634 A    
C13   N13   1.331855 A    
H46   C58   1.112785 S    
C108  H106  1.110964 S    
C9    N9    1.302736 A    
C101  C102  1.528252 S    
N18   Ni3   1.861709 S    
N22   Ni1   1.883833 S    
C61   C65   1.630634 S    
O12   H144  0.990911 S    
N14   Ni7   1.863261 S    
N2    N30   1.410575 A    
C28   N28   1.339240 A    
C10   H6    1.079985 S    
C97   H90   1.102004 S    
N11   N19   1.358001 A    
C57   C65   1.552971 S    
N12   N20   1.358009 A    
C111  H115  1.110401 S    
C21   C45   1.371460 A    
S3    O7    1.501827 D    
C60   C68   1.563213 S    
C116  H131  1.108734 S    
C113  H123  1.108317 S    
N19   Ni4   1.874837 S    
C117  H128  1.110836 S    
C6    N6    1.363041 A    
C28   H24   1.076072 S    
C44   C71   1.459629 S    
H45   C57   1.114918 S    
O6    H142  0.990911 S    
C18   C42   1.371227 A    
C52   C54   1.542190 S    
C119  C120  1.525684 S    
C55   H39   1.113151 S    
C110  H117  1.108729 S    
C62   C106  1.602164 S    
C20   C44   1.371231 A    
C100  H97   1.113633 S    
C32   C36   1.396057 A    
N30   Ni5   1.883107 S    
C49   H29   1.107917 S    
C85   C95   1.454687 S    
C114  H121  1.110865 S    
C22   N22   1.301702 A    
C92   C96   1.345900 D    
C105  H100  1.110100 S    
C81   C85   1.339472 D    
C11   H7    1.080732 S    
C60   H64   1.101699 S    
C118  H139  1.110608 S    
H80   C92   1.086595 S    
C9    C41   1.358219 A    
C118  C119  1.546955 S    
H50   C74   1.111372 S    
N27   Ni8   1.849942 S    
C101  H96   1.108209 S    
C2    H2    1.078001 S    
C38   C82   1.466290 S    
C49   C65   1.578337 S    
C16   H12   1.076695 S    
C108  H107  1.111147 S    
N13   N21   1.358001 A    
C115  C116  1.543836 S    
C90   C94   1.345898 D    
C79   H55   1.114212 S    
C73   H65   1.110826 S    
C22   C46   1.357492 A    
C71   C75   1.556286 S    
C106  H111  1.113633 S    
C29   C33   1.395108 A    
H77   C89   1.086695 S    
C75   H67   1.110826 S    
C61   C79   1.570365 S    
C17   H13   1.067835 S    
C62   C80   1.550008 S    
C31   C35   1.395108 A    
C102  H93   1.111147 S    
C109  H119  1.107402 S    
O3    H141  0.990509 S    
N16   N24   1.358009 A    
C2    N2    1.326861 A    
C117  H127  1.111105 S    
C61   C109  1.576127 S    
C19   N19   1.336715 A    
C28   C40   1.373559 A    
C20   N20   1.333035 A    
C14   H10   1.076694 S    
C7    C39   1.392864 A    
C47   C67   1.479768 S    
C48   C68   1.469036 S    
C18   H14   1.065960 S    
C104  H102  1.110361 S    
C10   C42   1.364580 A    
C86   C96   1.456587 S    
C111  H113  1.111099 S    
C120  H135  1.110868 S    
C27   H23   1.076011 S    
C64   C100  1.602165 S    
N17   Ni3   1.874837 S    
N9    N17   1.358001 A    
H72   C96   1.082324 S    
C98   C99   1.528151 S    
C50   C66   1.564535 S    
C26   C38   1.373557 A    
C34   C89   1.472538 S    
C98   H89   1.109027 S    
S3    O9    1.682338 S    
C115  H132  1.109301 S    
C100  C101  1.533238 S    
N14   N22   1.358009 A    
C63   C97   1.602552 S    
C50   H34   1.109941 S    
N12   Ni6   1.858088 S    
N32   Ni6   1.883107 S    
N20   Ni4   1.861709 S    
C52   H32   1.113690 S    
C25   C37   1.375221 A    
N3    Ni2   1.894693 S    
C114  H120  1.108800 S    
