data_mof_unit_30447.cif
_audit_creation_date              2012-12-11T14:33:13-0500
_audit_creation_method            fapswitch 2.2
_symmetry_space_group_name_H-M    P1
_symmetry_Int_Tables_number       1
_space_group_crystal_system       triclinic
_cell_length_a                    6.992056
_cell_length_b                    13.889753
_cell_length_c                    18.17656
_cell_angle_alpha                 113.345344
_cell_angle_beta                  94.941891
_cell_angle_gamma                 90.229491
_cell_volume                      1613.32320641

loop_
_atom_site_label
_atom_site_type_symbol
_atom_type_description
_atom_site_fract_x
_atom_site_fract_y
_atom_site_fract_z
_atom_type_partial_charge
O1    O     O_R   0.484560 0.544530 0.414330 -0.552846
O2    O     O_R   0.197040 0.638810 0.585080 -0.548085
O3    O     O_R   0.026800 0.455470 0.585670 -0.499586
C1    C     C_R   0.373315 0.674573 0.614861 0.713501
O4    O     O_R   0.155000 0.556150 0.414940 -0.551292
O5    O     O_R   0.984450 0.372220 0.414320 -0.537708
C2    C     C_R   0.318587 0.564860 0.386814 0.716130
O6    O     O_R   0.526900 0.627780 0.585680 -0.540317
O7    O     O_3   0.339170 0.439750 0.499990 -0.282802
V1    V     V_3+5 0.064350 0.511180 0.500000 1.519658
O8    O     O_R   0.654880 0.361190 0.414920 -0.536716
C3    C     C_R   0.817524 0.324580 0.386835 0.768193
O9    O     O_R   0.696930 0.443850 0.585060 -0.483799
C4    C     C_R   0.871362 0.433590 0.612123 0.785332
V2    V     V_3+5 0.564340 0.488820 0.500000 1.586750
O10   O     O_3   0.839390 0.560250 0.500010 -0.407184
C5    C     C_R   0.040108 0.864489 0.826477 -0.084072
C6    C     C_R   0.898015 0.397050 0.679103 -0.031912
C7    C     C_R   0.902759 0.822313 0.691036 -0.106269
C8    C     C_R   0.966029 0.791066 0.751792 -0.150949
C9    C     C_R   0.048032 0.972988 0.841091 -0.077763
C10   C     C_R   0.977900 0.007989 0.778278 0.050033
C11   C     C_R   0.909660 0.928379 0.703137 0.027204
C12   C     C_R   0.972780 0.115691 0.784665 0.019831
C13   C     C_R   0.929668 0.139876 0.713889 -0.076590
C14   C     C_R   0.882580 0.051521 0.638011 0.410841
C15   C     C_R   0.854435 0.952012 0.637523 -0.248711
C16   C     C_R   0.002806 0.200294 0.860232 -0.144754
C17   C     C_R   0.027864 0.302334 0.868330 -0.192065
C18   C     C_R   0.999422 0.328245 0.802352 0.110972
C19   C     C_R   0.934408 0.250398 0.725248 0.069487
C20   C     C_R   0.025161 0.434171 0.815258 -0.123024
C21   C     C_R   0.979632 0.467602 0.753752 -0.200914
C22   C     C_R   0.870702 0.289763 0.666160 -0.045297
H1    H     H_    0.801320 0.887794 0.581814 0.180146
H2    H     H_    0.802688 0.239915 0.609335 0.220313
H3    H     H_    0.005333 0.549335 0.764925 0.086169
H4    H     H_    0.060436 0.362988 0.928278 0.131767
H5    H     H_    0.848792 0.762221 0.633360 0.131395
H6    H     H_    0.954489 0.708568 0.740649 0.083224
H7    H     H_    0.996128 0.192119 0.915956 0.149341
H8    H     H_    0.080364 0.491875 0.873793 0.141191
H9    H     H_    0.113217 0.223328 0.308723 0.155463
H10   H     H_    0.835553 0.034475 0.194441 0.153440
C23   C     C_2   0.134573 0.037218 0.183793 -0.304238
C24   C     C_2   0.972809 0.077575 0.217350 -0.113995
H11   H     H_    0.677071 0.177656 0.295533 0.126695
C25   C     C_2   0.814008 0.220903 0.319032 -0.311281
C26   C     C_2   0.975906 0.180312 0.285727 -0.087039
H12   H     H_    0.271459 0.080544 0.207217 0.129500
C27   C     C_R   0.407055 0.772964 0.688757 -0.080517
C28   C     C_R   0.552069 0.461000 0.857467 -0.142611
C29   C     C_R   0.543936 0.861315 0.827375 -0.110333
C30   C     C_R   0.489915 0.768870 0.760209 -0.157565
C31   C     C_R   0.380417 0.871305 0.685985 -0.203933
C32   C     C_R   0.445235 0.966773 0.752764 0.098564
C33   C     C_R   0.524205 0.959994 0.824243 0.094498
C34   C     C_R   0.440357 0.067788 0.749548 0.039045
C35   C     C_R   0.497993 0.163439 0.819265 0.081787
C36   C     C_R   0.571197 0.150806 0.889472 -0.153536
C37   C     C_R   0.586498 0.051351 0.891369 -0.184341
C38   C     C_R   0.393537 0.073470 0.675716 -0.213772
C39   C     C_R   0.404894 0.165797 0.667607 -0.051389
C40   C     C_R   0.453044 0.260719 0.733004 -0.034126
C41   C     C_R   0.495776 0.265000 0.812258 0.013418
C42   C     C_R   0.463755 0.351224 0.718048 0.366112
C43   C     C_R   0.529880 0.446309 0.778058 -0.246774
C44   C     C_R   0.531895 0.370348 0.876687 -0.088975
H13   H     H_    0.649910 0.045812 0.946041 0.133022
H14   H     H_    0.555961 0.513649 0.764061 0.137548
H15   H     H_    0.379872 0.158833 0.606515 0.267203
H16   H     H_    0.604577 0.855862 0.881830 0.165580
H17   H     H_    0.514519 0.693946 0.763908 0.104741
H18   H     H_    0.309823 0.869272 0.630398 0.115272
H19   H     H_    0.632021 0.215355 0.942278 0.153021
H20   H     H_    0.359994 0.006494 0.620106 0.168771
H21   H     H_    0.334220 0.666550 0.195674 0.149975
H22   H     H_    0.614978 0.591697 0.306986 0.148988
C45   C     C_2   0.316460 0.601755 0.319579 -0.303171
C46   C     C_2   0.477048 0.611117 0.285206 -0.101107
H23   H     H_    0.770301 0.637624 0.205527 0.128188
C47   C     C_2   0.632781 0.656807 0.183215 -0.273772
C48   C     C_2   0.472197 0.647258 0.217512 -0.087424
H24   H     H_    0.179001 0.621012 0.297268 0.135253
O11   O     O_R   0.421600 0.630430 0.917010 -0.539725
O12   O     O_R   0.793840 0.702190 0.087630 -0.547346
O13   O     O_R   0.964010 0.886170 0.088190 -0.539748
C49   C     C_R   0.630437 0.693711 0.115992 0.735253
O14   O     O_R   0.751460 0.619510 0.917500 -0.538697
O15   O     O_R   0.921330 0.802900 0.916840 -0.550612
C50   C     C_R   0.578969 0.575485 0.914715 0.708109
O16   O     O_R   0.464290 0.713700 0.088350 -0.544739
O17   O     O_3   0.609200 0.818520 0.002630 -0.384489
V3    V     V_3+5 0.884140 0.747190 0.002530 1.389642
O18   O     O_R   0.251150 0.814630 0.917340 -0.538778
C51   C     C_R   0.075214 0.826071 0.891557 0.701986
O19   O     O_R   0.293530 0.897310 0.087470 -0.537798
C52   C     C_R   0.130969 0.933738 0.115761 0.780192
V4    V     V_3+5 0.384070 0.769710 0.002370 1.405505
O20   O     O_3   0.109180 0.698190 0.002460 -0.380898
C53   C     C_1   0.530003 0.390237 0.960654 0.235730
N1    N     N_1   0.527683 0.407199 0.028257 -0.363230
S1    S     S_3+6 0.381275 0.352213 0.625355 -0.001229
O21   O     O_2   0.505412 0.290406 0.560824 -0.337685
O22   O     O_2   0.188553 0.299416 0.596945 -0.327787
O23   O     O_3   0.374468 0.480215 0.641894 -0.490858
H25   H     H_    0.292528 0.512823 0.686423 0.285140
C54   C     C_1   0.137333 0.041295 0.919518 0.248982
N2    N     N_1   0.208753 0.094492 0.982746 -0.361564
S2    S     S_3+6 0.875348 0.046765 0.537953 -0.028822
O24   O     O_2   0.028337 0.117388 0.530943 -0.309937
O25   O     O_2   0.908571 0.937199 0.479432 -0.333418
O26   O     O_3   0.657430 0.079351 0.510605 -0.507742
H26   H     H_    0.670517 0.085262 0.458690 0.379555

loop_
_geom_bond_atom_site_label_1
_geom_bond_atom_site_label_2
_ccdc_geom_bond_type
C34   C38   A    
C31   C32   A    
C13   C19   A    
O17   V3    S    
C4    C6    S    
O2    C1    A    
O18   C51   A    
C1    O6    A    
H22   C46   S    
H23   C47   S    
O11   C50   A    
C23   C24   D    
C54   N2    T    
C24   C26   S    
C14   C15   A    
C38   C39   A    
C16   C17   A    
C23   C52   S    
O5    C3    A    
C45   H24   S    
C8    H6    S    
O18   V4    S    
O23   H25   S    
H21   C48   S    
V2    O10   S    
O13   V3    S    
O19   C52   A    
C16   H7    S    
C5    C8    A    
O12   C49   A    
C32   C33   A    
O14   V3    S    
S2    O24   D    
O12   V3    S    
C31   H18   S    
O8    V2    S    
V4    O20   S    
C17   H4    S    
O1    V2    S    
C11   C15   A    
O14   C50   A    
O7    V1    S    
C14   S2    S    
C22   H2    S    
C28   C44   A    
C3    C25   S    
O13   C52   A    
C42   C43   A    
C35   C36   A    
O9    C4    A    
C38   H20   S    
C46   C48   S    
O19   V4    S    
H10   C24   S    
O15   V3    S    
C1    C27   S    
C53   N1    T    
C49   O16   A    
C12   C13   A    
O4    C2    A    
C29   C33   A    
H9    C26   S    
C15   H1    S    
C13   C14   A    
C29   C30   A    
C21   H3    S    
C45   C46   D    
C36   C37   A    
C40   C42   A    
C7    C11   A    
C17   C18   A    
O11   V4    S    
C30   H17   S    
H11   C25   S    
V3    O20   S    
C41   C44   A    
C19   C22   A    
S1    O22   D    
C5    C51   S    
C44   C53   S    
C33   C37   A    
C6    C22   A    
S2    O26   S    
O3    C4    A    
C7    H5    S    
C25   C26   D    
C39   H15   S    
O6    V2    S    
O9    V2    S    
C10   C12   A    
O2    V1    S    
C2    C45   S    
O26   H26   S    
C37   H13   S    
O17   V4    S    
O1    C2    A    
C42   S1    S    
C12   C16   A    
C28   C43   A    
O5    V1    S    
O8    C3    A    
O15   C51   A    
C36   H19   S    
C43   H14   S    
C20   C21   A    
C27   C30   A    
C7    C8    A    
C34   C35   A    
O4    V1    S    
O3    V1    S    
V1    O10   S    
C35   C41   A    
C18   C20   A    
C18   C19   A    
C23   H12   S    
C47   C49   S    
C40   C41   A    
C32   C34   A    
S1    O23   S    
C27   C31   A    
O7    V2    S    
C6    C21   A    
S2    O25   D    
C9    C54   S    
C39   C40   A    
C47   C48   D    
S1    O21   D    
C20   H8    S    
C10   C11   A    
C28   C50   S    
C9    C10   A    
C29   H16   S    
O16   V4    S    
C5    C9    A    
