data_mof_unit_12873.cif
_audit_creation_date              2013-03-05T16:04:02-0500
_audit_creation_method            fapswitch 2.2
_symmetry_space_group_name_H-M    P1
_symmetry_Int_Tables_number       1
_space_group_crystal_system       triclinic
_cell_length_a                    25.677185
_cell_length_b                    7.263024
_cell_length_c                    23.464006
_cell_angle_alpha                 89.999283
_cell_angle_beta                  104.153758
_cell_angle_gamma                 90.001795
_cell_volume                      4243.05756437

loop_
_atom_site_label
_atom_site_type_symbol
_atom_site_description
_atom_site_fract_x
_atom_site_fract_y
_atom_site_fract_z
_atom_type_partial_charge
O1    O     O_R   0.438720 0.630760 0.439780 -0.570245
O2    O     O_R   0.061280 0.869240 0.060220 -0.581503
O3    O     O_R   0.561280 0.130760 0.560220 -0.570270
O4    O     O_R   0.938720 0.369240 0.939780 -0.581337
O5    O     O_R   0.546380 0.956770 0.446270 -0.550407
O6    O     O_R   0.953620 0.543230 0.053730 -0.537797
O7    O     O_R   0.453620 0.456770 0.553730 -0.550358
O8    O     O_R   0.046380 0.043230 0.946270 -0.538383
C1    C     C_R   0.562136 0.792451 0.433694 1.033160
C2    C     C_R   0.938267 0.708055 0.066110 1.052950
C3    C     C_R   0.437874 0.292440 0.566319 1.033167
C4    C     C_R   0.061753 0.208064 0.933908 1.054739
O9    O     O_R   0.438210 0.960230 0.432810 -0.581258
O10   O     O_R   0.061790 0.539770 0.067190 -0.581738
O11   O     O_R   0.561790 0.460230 0.567190 -0.581261
O12   O     O_R   0.938210 0.039770 0.932810 -0.581784
O13   O     O_R   0.452340 0.134240 0.546660 -0.580096
O14   O     O_R   0.047660 0.365760 0.953340 -0.601029
O15   O     O_R   0.547660 0.634240 0.453340 -0.580055
O16   O     O_R   0.952340 0.865760 0.046660 -0.601095
C5    C     C_R   0.418210 0.791255 0.417279 0.967010
C6    C     C_R   0.081612 0.708155 0.082166 1.023535
C7    C     C_R   0.581783 0.291253 0.582726 0.967065
C8    C     C_R   0.918368 0.208145 0.917858 1.025123
O17   O     O_3   0.504760 0.798440 0.537370 -0.273465
O18   O     O_3   0.995240 0.701560 0.962630 -0.283176
O19   O     O_3   0.495240 0.298440 0.462630 -0.273454
O20   O     O_3   0.004760 0.201560 0.037370 -0.283020
V1    V     V_3+5 0.499120 0.071860 0.493070 1.301842
V2    V     V_3+5 0.000880 0.428140 0.006930 1.288974
V3    V     V_3+5 0.500880 0.571860 0.506930 1.301872
V4    V     V_3+5 0.999120 0.928140 0.993070 1.288490
C9    C     C_R   0.710297 0.111213 0.688344 -0.244930
C10   C     C_R   0.776856 0.335320 0.831196 -0.233255
C11   C     C_R   0.289574 0.611445 0.311777 -0.244814
C12   C     C_R   0.223212 0.834507 0.168764 -0.233263
H1    H     H_    0.734420 0.987298 0.694486 0.160626
H2    H     H_    0.742202 0.409268 0.837754 0.163624
H3    H     H_    0.265377 0.487689 0.305688 0.160718
H4    H     H_    0.257965 0.907744 0.162154 0.163826
C13   C     C_R   0.665712 0.120626 0.639877 0.385762
C14   C     C_R   0.822862 0.321860 0.878343 0.369661
C15   C     C_R   0.334209 0.620766 0.360198 0.385783
C16   C     C_R   0.177225 0.820945 0.121594 0.369565
C17   C     C_R   0.631816 0.278653 0.631544 -0.301950
C18   C     C_R   0.867748 0.218457 0.871152 -0.296235
C19   C     C_R   0.368155 0.778683 0.368479 -0.301944
C20   C     C_R   0.132208 0.718493 0.128901 -0.295664
C21   C     C_R   0.645474 0.424187 0.672084 -0.095714
C22   C     C_R   0.864875 0.129682 0.817457 -0.133969
C23   C     C_R   0.354513 0.924166 0.327912 -0.095722
C24   C     C_R   0.134916 0.630809 0.182739 -0.135623
H5    H     H_    0.620267 0.545326 0.667937 0.173318
H6    H     H_    0.898598 0.050419 0.810920 0.199784
H7    H     H_    0.379745 0.045243 0.332027 0.173142
H8    H     H_    0.101055 0.552480 0.189372 0.199492
C25   C     C_R   0.691514 0.415920 0.718759 -0.103617
C26   C     C_R   0.819296 0.146124 0.770905 -0.101971
C27   C     C_R   0.308464 0.915907 0.281245 -0.103569
C28   C     C_R   0.180505 0.647215 0.229292 -0.101155
H9    H     H_    0.701232 0.533900 0.747566 0.129409
H10   H     H_    0.819879 0.080432 0.729689 0.145887
H11   H     H_    0.298774 0.033774 0.252383 0.129495
H12   H     H_    0.179846 0.582280 0.270603 0.146028
C29   C     C_R   0.724663 0.258954 0.727626 0.078917
C30   C     C_R   0.774314 0.247962 0.777059 0.075495
C31   C     C_R   0.275259 0.759082 0.272449 0.078699
C32   C     C_R   0.225613 0.748107 0.223018 0.075076
C33   C     C_R   0.406148 0.128901 0.645245 -0.183414
C34   C     C_R   0.155030 0.253929 0.926219 -0.147824
C35   C     C_R   0.593920 0.629026 0.354792 -0.183418
C36   C     C_R   0.845063 0.755057 0.073937 -0.147208
H13   H     H_    0.435655 0.023236 0.644234 0.198361
H14   H     H_    0.165700 0.280397 0.973090 0.196971
H15   H     H_    0.564395 0.523367 0.355753 0.198305
H16   H     H_    0.834385 0.782278 0.027110 0.197085
C37   C     C_R   0.374388 0.110843 0.685845 0.631443
C38   C     C_R   0.195667 0.252273 0.895831 0.638328
C39   C     C_R   0.625716 0.611054 0.314227 0.631412
C40   C     C_R   0.804470 0.753486 0.104386 0.637589
C41   C     C_R   0.335291 0.247256 0.688070 -0.050302
C42   C     C_R   0.182090 0.220665 0.834213 -0.057905
C43   C     C_R   0.664850 0.747429 0.312086 -0.050304
C44   C     C_R   0.818069 0.720965 0.165960 -0.057936
C45   C     C_R   0.331973 0.402572 0.651848 -0.256395
C46   C     C_R   0.128225 0.185254 0.805683 -0.252653
C47   C     C_R   0.668155 0.902659 0.348342 -0.256397
C48   C     C_R   0.871903 0.684453 0.194368 -0.251743
H17   H     H_    0.302923 0.509329 0.653699 0.201479
H18   H     H_    0.117663 0.160876 0.758693 0.198640
H19   H     H_    0.697231 0.009395 0.346557 0.201488
H20   H     H_    0.882509 0.659326 0.241319 0.198280
C49   C     C_R   0.365751 0.425504 0.613609 0.414301
C50   C     C_R   0.087808 0.179085 0.836711 0.361401
C51   C     C_R   0.634322 0.925565 0.386519 0.414301
C52   C     C_R   0.912234 0.678009 0.163241 0.361532
C53   C     C_R   0.402588 0.283900 0.608480 -0.406666
C54   C     C_R   0.101503 0.214796 0.897864 -0.371700
C55   C     C_R   0.597460 0.783962 0.391578 -0.406612
C56   C     C_R   0.898540 0.714778 0.102169 -0.371403
C57   C     C_R   0.291679 0.386128 0.762417 -0.439939
C58   C     C_R   0.228064 0.074932 0.762988 -0.429909
C59   C     C_R   0.708611 0.886610 0.237914 -0.440057
C60   C     C_R   0.772047 0.575106 0.237126 -0.430117
H21   H     H_    0.316269 0.507282 0.762207 0.182025
H22   H     H_    0.203263 0.954340 0.763235 0.184570
H23   H     H_    0.684082 0.007874 0.238195 0.182103
H24   H     H_    0.796767 0.454368 0.236783 0.184602
C61   C     C_R   0.254038 0.384947 0.797188 0.553360
C62   C     C_R   0.264653 0.078057 0.726856 0.555671
C63   C     C_R   0.746278 0.885500 0.203178 0.553408
C64   C     C_R   0.735452 0.578184 0.273250 0.555662
C65   C     C_R   0.222609 0.226631 0.798259 0.017564
C66   C     C_R   0.297409 0.234254 0.727228 0.020931
C67   C     C_R   0.777600 0.727005 0.201975 0.017886
C68   C     C_R   0.702770 0.734520 0.272969 0.021109
O21   O     O_3   0.246594 0.537580 0.829445 -0.728949
H25   H     H_    0.271071 0.637152 0.823263 0.322279
O22   O     O_3   0.268094 0.932551 0.690025 -0.714357
H26   H     H_    0.243056 0.833992 0.695570 0.325440
O23   O     O_3   0.753840 0.038351 0.171072 -0.728942
H27   H     H_    0.729422 0.138011 0.177330 0.322168
O24   O     O_3   0.731926 0.432475 0.309977 -0.714438
H28   H     H_    0.756920 0.333847 0.304376 0.325346
N1    N     N_R   0.657518 0.971679 0.598446 0.239425
O25   O     O_R   0.653519 0.005934 0.543214 -0.347171
O26   O     O_R   0.666088 0.803018 0.616951 -0.420113
N2    N     N_R   0.822281 0.408002 0.933459 0.228264
O27   O     O_R   0.844975 0.328519 0.983020 -0.404761
O28   O     O_R   0.793089 0.553953 0.934333 -0.399751
N3    N     N_R   0.342418 0.471820 0.401629 0.239383
O29   O     O_R   0.346471 0.506074 0.456872 -0.347212
O30   O     O_R   0.333835 0.303159 0.383125 -0.419924
N4    N     N_R   0.177947 0.906059 0.066359 0.228173
O31   O     O_R   0.155020 0.826436 0.016898 -0.404853
O32   O     O_R   0.207454 0.051088 0.065282 -0.399224
O33   O     O_3   0.384126 0.960848 0.723097 -0.723032
H29   H     H_    0.368614 0.983866 0.757100 0.314420
O34   O     O_3   0.247737 0.277967 0.928417 -0.689500
H30   H     H_    0.273088 0.237474 0.905270 0.322618
O35   O     O_3   0.615973 0.461199 0.276919 -0.722955
H31   H     H_    0.631482 0.484385 0.242922 0.314440
O36   O     O_3   0.752413 0.780147 0.071895 -0.689710
H32   H     H_    0.727047 0.739304 0.094979 0.322602
N5    N     N_R   0.361355 0.593731 0.580811 0.265097
O37   O     O_R   0.313928 0.653380 0.553870 -0.314626
O38   O     O_R   0.400828 0.710806 0.592740 -0.378411
N6    N     N_R   0.033436 0.140645 0.805093 0.230666
O39   O     O_R   0.002513 0.038172 0.828221 -0.427323
O40   O     O_R   0.016741 0.188906 0.750231 -0.358177
N7    N     N_R   0.638682 0.093785 0.419316 0.265074
O41   O     O_R   0.686094 0.153454 0.446307 -0.314665
O42   O     O_R   0.599211 0.210858 0.407333 -0.378417
N8    N     N_R   0.966549 0.638120 0.194667 0.229646
O43   O     O_R   0.996765 0.531846 0.171769 -0.424687
O44   O     O_R   0.983679 0.687990 0.249328 -0.358859

loop_
_geom_bond_atom_site_label_1
_geom_bond_atom_site_label_2
_geom_bond_distance
_ccdc_geom_bond_type
C26   H10   1.081768 S    
C6    C20   1.482980 S    
C48   C52   1.406402 A    
O1    C5    1.333773 A    
C7    C17   1.500422 S    
C47   H19   1.084140 S    
C34   C38   1.400451 A    
O13   V1    1.991973 S    
C33   C37   1.403458 A    
C10   C14   1.410577 A    
C64   C68   1.410992 A    
C40   C44   1.420682 A    
O15   V3    1.991949 S    
C38   O34   1.380972 S    
C10   C30   1.407104 A    
C35   C39   1.403448 A    
N5    O37   1.301491 A    
C9    C29   1.403841 A    
O24   H28   0.991757 S    
O7    C3    1.316665 A    
C22   H6    1.081524 S    
O2    V4    1.995800 S    
N6    O40   1.301472 A    
O16   V4    1.991951 S    
O4    C8    1.332357 A    
C51   C55   1.422178 A    
O19   V1    1.787017 S    
C50   C54   1.415293 A    
C57   C61   1.409080 A    
O36   H32   0.989004 S    
O1    V3    1.995801 S    
C21   C25   1.402657 A    
C59   C63   1.409016 A    
C14   C18   1.419850 A    
O3    V1    1.995788 S    
C34   H14   1.083595 S    
C46   C50   1.406607 A    
C27   C31   1.407402 A    
O3    C7    1.333721 A    
C26   C30   1.408403 A    
C52   N8    1.438682 S    
C48   H20   1.083685 S    
C2    O16   1.315836 A    
C63   O23   1.381732 S    
C39   C43   1.420547 A    
C47   C51   1.401932 A    
C41   C66   1.495439 S    
O2    C6    1.332325 A    
N7    O41   1.301495 A    
C33   H13   1.082785 S    
O14   V2    1.991977 S    
C11   C31   1.403775 A    
C11   C15   1.404341 A    
C62   C66   1.410978 A    
N8    O44   1.301444 A    
C61   C65   1.408510 A    
O11   C7    1.345789 A    
O12   C8    1.338201 A    
N2    O27   1.301436 A    
C57   H21   1.083742 S    
C57   C66   1.406962 A    
C45   C49   1.402001 A    
O10   V2    2.005278 S    
N5    O38   1.299964 A    
C1    O15   1.324689 A    
O5    V1    2.007225 S    
C16   N4    1.440108 S    
O7    V3    2.007184 S    
C61   O21   1.381717 S    
C31   C32   1.501190 S    
O8    V4    2.007184 S    
C13   N1    1.435140 S    
C12   H4    1.082118 S    
C16   C20   1.419890 A    
N6    O39   1.299843 A    
C64   O24   1.381628 S    
C46   H18   1.083656 S    
C25   C29   1.407456 A    
C60   C64   1.411189 A    
C45   H17   1.084144 S    
O18   V4    1.787029 S    
C2    C56   1.476810 S    
N4    O32   1.301366 A    
C50   N6    1.439090 S    
C42   C46   1.405155 A    
C35   C55   1.407558 A    
O11   V3    2.005300 S    
C9    H1    1.082037 S    
C22   C26   1.397104 A    
C62   O22   1.381623 S    
C11   H3    1.082100 S    
O5    C1    1.316620 A    
C1    C55   1.497164 S    
C60   C67   1.405433 A    
C38   C42   1.420579 A    
C37   C41   1.420529 A    
O8    C4    1.314979 A    
C40   O36   1.380966 S    
C17   C21   1.407829 A    
O23   H27   0.991795 S    
O9    C5    1.345795 A    
C36   H16   1.083608 S    
O22   H26   0.991752 S    
C49   N5    1.433649 S    
N8    O43   1.300130 A    
O6    V2    2.007225 S    
C44   C67   1.491751 S    
N1    O25   1.298807 A    
C58   C62   1.411204 A    
C51   N7    1.433667 S    
N3    O29   1.298813 A    
C49   C53   1.422186 A    
C60   H24   1.083739 S    
O17   V3    1.787028 S    
C36   C56   1.401809 A    
O9    V1    2.005276 S    
C3    O13   1.324689 A    
C10   H2    1.082083 S    
C4    C54   1.477026 S    
C43   C68   1.495437 S    
C44   C48   1.405270 A    
C42   C65   1.491751 S    
C37   O33   1.380746 S    
N3    O30   1.300340 A    
N2    O28   1.301357 A    
C43   C47   1.402394 A    
O6    C2    1.314886 A    
C19   C23   1.407886 A    
O34   H30   0.989000 S    
C12   C32   1.407037 A    
C25   H9    1.082079 S    
N4    O31   1.301437 A    
C14   N2    1.440014 S    
O12   V4    2.005300 S    
O33   H29   0.989239 S    
C18   C22   1.401110 A    
C27   H11   1.082113 S    
C28   H12   1.081819 S    
C3    C53   1.497262 S    
C59   H23   1.083744 S    
C9    C13   1.404240 A    
O10   C6    1.338181 A    
C15   N3    1.435111 S    
C59   C68   1.406972 A    
C8    C18   1.483056 S    
C36   C40   1.400429 A    
C58   C65   1.405417 A    
O21   H25   0.991786 S    
C35   H15   1.082796 S    
C39   O35   1.380736 S    
C21   H5    1.082462 S    
C52   C56   1.414929 A    
O20   V2    1.787017 S    
C58   H22   1.083739 S    
C23   H7    1.082478 S    
N7    O42   1.299973 A    
O4    V2    1.995785 S    
C12   C16   1.410625 A    
C34   C54   1.401866 A    
C20   C24   1.401162 A    
C23   C27   1.402703 A    
C28   C32   1.408368 A    
C24   C28   1.397253 A    
C29   C30   1.501307 S    
C4    O14   1.315824 A    
N1    O26   1.300321 A    
C13   C17   1.424758 A    
C63   C67   1.408529 A    
O35   H31   0.989241 S    
C15   C19   1.424818 A    
C41   C45   1.402394 A    
C24   H8    1.081639 S    
C5    C19   1.500554 S    
C33   C53   1.407579 A    
