data_mof_unit_27364.cif
_audit_creation_date              2012-12-11T18:13:33-0500
_audit_creation_method            fapswitch 2.2
_symmetry_space_group_name_H-M    P1
_symmetry_Int_Tables_number       1
_space_group_crystal_system       triclinic
_cell_length_a                    8.19834
_cell_length_b                    12.778473
_cell_length_c                    18.677655
_cell_angle_alpha                 99.308755
_cell_angle_beta                  90.341558
_cell_angle_gamma                 99.178113
_cell_volume                      1905.21076235

loop_
_atom_site_label
_atom_site_type_symbol
_atom_type_description
_atom_site_fract_x
_atom_site_fract_y
_atom_site_fract_z
_atom_type_partial_charge
Ba1   Ba    Ba6+2 0.852780 0.548340 0.465070 1.650603
Ba2   Ba    Ba6+2 0.337060 0.451750 0.534940 1.642971
C1    C     C_3   0.693634 0.895592 0.211701 -0.378252
C2    C     C_R   0.901369 0.387115 0.096110 0.037707
C3    C     C_R   0.745708 0.329666 0.072403 -0.088633
C4    C     C_3   0.124889 0.756884 0.263837 0.405283
C5    C     C_R   0.680758 0.336150 0.004597 -0.097049
C6    C     C_R   0.771081 0.399232 0.958225 0.050031
C7    C     C_R   0.932821 0.450282 0.979134 -0.002661
C8    C     C_R   0.698588 0.416848 0.893534 0.002981
C9    C     C_R   0.801398 0.456869 0.838961 -0.047117
C10   C     C_R   0.966717 0.507372 0.859819 -0.009641
C11   C     C_R   0.027613 0.508641 0.931526 -0.010759
C12   C     C_3   0.642265 0.813403 0.261338 0.315167
C13   C     C_R   0.749530 0.446962 0.764564 -0.030362
C14   C     C_R   0.861869 0.486751 0.714614 -0.288079
C15   C     C_R   0.018828 0.545604 0.735647 0.035086
C16   C     C_3   0.130143 0.789576 0.188953 -0.378457
C17   C     C_R   0.070348 0.559061 0.810182 -0.036040
C18   C     C_R   0.152803 0.504702 0.073246 -0.006024
C19   C     C_R   0.212518 0.505522 0.144915 -0.003240
C20   C     C_R   0.111780 0.450263 0.193376 -0.049986
C21   C     C_R   0.960913 0.386871 0.166424 -0.048597
C22   C     C_R   0.222327 0.622391 0.837015 -0.065606
C23   C     C_3   0.422562 0.254330 0.308645 0.325343
C24   C     C_R   0.279505 0.626283 0.908752 0.019522
C25   C     C_R   0.184863 0.566052 0.955329 0.014190
C26   C     C_R   0.247579 0.563815 0.026032 0.009071
C27   C     C_R   0.434227 0.685818 0.933784 -0.105879
C28   C     C_3   0.234312 0.783375 0.616778 0.291610
C29   C     C_R   0.497935 0.681261 0.002745 -0.088555
C30   C     C_R   0.406042 0.619888 0.049129 0.031915
C31   C     C_R   0.373256 0.560572 0.167615 -0.044202
C32   C     C_R   0.470186 0.614125 0.118083 -0.120124
C33   C     C_R   0.429593 0.561900 0.239723 -0.011995
C34   C     C_3   0.415749 0.197358 0.229562 -0.226920
C35   C     C_R   0.322833 0.516206 0.288633 -0.275832
C36   C     C_R   0.166196 0.459164 0.266912 0.031886
C37   C     C_R   0.769368 0.179372 0.523520 -0.273800
C38   C     C_R   0.430594 0.805705 0.469754 -0.294132
C39   C     C_R   0.428332 0.971677 0.425568 -0.009494
C40   C     C_3   0.274638 0.904687 0.633263 -0.394588
C41   C     C_R   0.348097 0.870256 0.434287 0.003330
C42   C     C_R   0.580879 0.846938 0.507441 0.069606
C43   C     C_R   0.648377 0.957993 0.511523 -0.056006
C44   C     C_R   0.567054 0.022865 0.471813 -0.041653
C45   C     C_3   0.037315 0.243575 0.733455 0.443358
C46   C     C_R   0.626011 0.136012 0.481233 0.039294
C47   C     C_R   0.860731 0.114398 0.554540 -0.016704
C48   C     C_R   0.796842 0.005380 0.551707 -0.086715
C49   C     C_3   0.962845 0.212062 0.378703 0.270712
C50   C     C_3   0.928179 0.090323 0.359301 -0.382607
C51   C     C_3   0.719326 0.704278 0.682870 0.332212
C52   C     C_3   0.713134 0.734725 0.765313 -0.229252
C53   C     C_3   0.862919 0.816572 0.796465 -0.414386
C54   C     C_3   0.314324 0.245700 0.179158 -0.513125
C55   C     C_3   0.980883 0.112116 0.822346 -0.396800
C56   C     C_3   0.044902 0.227493 0.812819 -0.188855
C57   C     C_3   0.588035 0.136285 0.684060 -0.305192
C58   C     C_3   0.543373 0.034479 0.829269 -0.513456
C59   C     C_3   0.516726 0.423118 0.895301 -0.371221
C60   C     C_3   0.401335 0.001509 0.352730 -0.363442
C61   C     C_3   0.538595 0.191235 0.757623 0.363800
C62   C     C_3   0.441137 0.109322 0.800354 -0.172021
C63   C     C_R   0.996159 0.447107 0.049393 0.011669
H1    H     H_    0.657937 0.853291 0.318971 0.040146
H2    H     H_    0.624013 0.632330 0.665944 0.062772
H3    H     H_    0.614672 0.959090 0.219555 0.068668
H4    H     H_    0.708499 0.662049 0.791134 0.065520
H5    H     H_    0.598478 0.768797 0.778941 0.117381
H6    H     H_    0.510198 0.780846 0.248421 -0.044886
H7    H     H_    0.679635 0.855743 0.154091 0.105348
H8    H     H_    0.298609 0.239078 0.331500 0.021452
H9    H     H_    0.362284 0.111190 0.227061 0.109574
H10   H     H_    0.824786 0.932987 0.223214 0.137912
H11   H     H_    0.168314 0.725345 0.148600 0.079344
H12   H     H_    0.386236 0.927272 0.669683 0.109653
H13   H     H_    0.116498 0.321384 0.729391 0.069117
H14   H     H_    0.908099 0.248855 0.718949 -0.136780
H15   H     H_    0.968817 0.281019 0.845093 0.060034
H16   H     H_    0.650649 0.232519 0.790551 -0.001145
H17   H     H_    0.336987 0.060500 0.765891 0.133565
H18   H     H_    0.034532 0.681917 0.262147 0.101175
H19   H     H_    0.387382 0.153715 0.848094 0.100730
H20   H     H_    0.558839 0.291495 0.988556 0.070418
H21   H     H_    0.823033 0.476423 0.658124 0.068235
H22   H     H_    0.886369 0.337714 0.199839 0.104427
H23   H     H_    0.299291 0.938169 0.582601 0.088578
H24   H     H_    0.299093 0.668154 0.802347 0.093496
H25   H     H_    0.508625 0.733195 0.899142 0.064074
H26   H     H_    0.619522 0.725683 0.019738 0.066931
H27   H     H_    0.594602 0.653960 0.132886 0.100046
H28   H     H_    0.248814 0.739919 0.277477 -0.113149
H29   H     H_    0.365696 0.520493 0.344084 0.075934
H30   H     H_    0.865160 0.959327 0.580925 0.101455
H31   H     H_    0.814517 0.264815 0.529876 0.056797
H32   H     H_    0.373739 0.723392 0.470241 0.065964
H33   H     H_    0.006313 0.803019 0.172053 0.142420
H34   H     H_    0.169338 0.938381 0.660008 0.142775
H35   H     H_    0.220209 0.864505 0.189556 0.098999
H36   H     H_    0.344845 0.750855 0.596259 0.007777
H37   H     H_    0.132253 0.760593 0.575305 0.082940
H38   H     H_    0.853082 0.241951 0.402120 0.032919
H39   H     H_    0.977007 0.779947 0.790008 0.134220
H40   H     H_    0.876149 0.887236 0.768225 0.153628
H41   H     H_    0.847109 0.843639 0.855189 0.117683
H42   H     H_    0.465247 0.341847 0.311757 0.021260
H43   H     H_    0.185579 0.242060 0.197527 0.152054
H44   H     H_    0.372244 0.329631 0.177232 0.134541
H45   H     H_    0.067365 0.235059 0.418776 0.069783
H46   H     H_    0.311618 0.199182 0.123426 0.141042
H47   H     H_    0.543534 0.201295 0.209349 0.127577
H48   H     H_    0.173349 0.250995 0.834985 0.107436
H49   H     H_    0.072460 0.059366 0.804026 0.141363
H50   H     H_    0.957400 0.108502 0.880445 0.110997
H51   H     H_    0.865436 0.081707 0.789572 0.128126
H52   H     H_    0.662559 0.197185 0.656917 0.059701
H53   H     H_    0.662916 0.073059 0.689819 0.056950
H54   H     H_    0.477211 0.102068 0.648686 0.138535
H55   H     H_    0.642908 0.081999 0.867098 0.138071
H56   H     H_    0.808898 0.065548 0.328528 0.107640
H57   H     H_    0.462553 0.980387 0.860012 0.140546
H58   H     H_    0.595368 0.983203 0.784416 0.150197
H59   H     H_    0.671926 0.281938 0.107092 0.064465
H60   H     H_    0.493929 0.492186 0.870980 0.150226
H61   H     H_    0.440878 0.346976 0.870360 0.125792
H62   H     H_    0.475121 0.441234 0.951628 0.104010
H63   H     H_    0.358316 0.930784 0.311134 0.085866
H64   H     H_    0.309377 0.056447 0.355268 0.124406
H65   H     H_    0.521929 0.031303 0.331709 0.118759
H66   H     H_    0.921653 0.053159 0.408945 0.105018
H67   H     H_    0.027586 0.061013 0.325458 0.136666
H68   H     H_    0.842255 0.684499 0.667473 -0.001416
O1    O     O_2   0.873090 0.425890 0.325140 -0.438258
O2    O     O_2   0.205276 0.124743 0.557385 -0.470694
O3    O     O_3   0.092835 0.158516 0.687535 -0.593692
O4    O     O_3   0.122420 0.434370 0.414380 -0.502224
O5    O     O_3   0.578370 0.633800 0.536380 -0.489034
O6    O     O_2   0.341510 0.231850 0.465510 -0.480208
O7    O     O_3   0.538473 0.210819 0.344632 -0.658084
O8    O     O_2   0.418003 0.462269 0.750047 -0.488509
O9    O     O_3   0.432099 0.263427 0.746135 -0.581756
O10   O     O_3   0.659500 0.627100 0.368810 -0.463730
O11   O     O_2   0.753804 0.532060 0.243717 -0.483735
O12   O     O_3   0.688039 0.791138 0.650664 -0.649063
O13   O     O_3   0.999199 0.254614 0.315528 -0.648348
O14   O     O_3   0.743478 0.733941 0.248645 -0.588451
O15   O     O_2   0.848200 0.768190 0.534530 -0.472373
O16   O     O_3   0.081160 0.685950 0.404810 -0.485333
O17   O     O_2   0.011984 0.878925 0.451689 -0.478218
O18   O     O_3   0.077612 0.840046 0.314370 -0.589462
O19   O     O_2   0.316610 0.574140 0.674900 -0.459089
O20   O     O_3   0.067290 0.565720 0.585630 -0.500938
O21   O     O_3   0.530210 0.372990 0.631200 -0.448259
O22   O     O_3   0.189688 0.745542 0.680950 -0.645742
O23   O     O_3   0.611340 0.366290 0.463630 -0.451645
O24   O     O_3   0.108550 0.314140 0.595200 -0.480134
P1    P     P_3+3 0.041040 0.394770 0.336330 0.966773
P2    P     P_3+3 0.672880 0.754030 0.556100 0.969732
P3    P     P_3+3 0.131391 0.821548 0.401770 0.964076
P4    P     P_3+3 0.148670 0.605320 0.663680 0.967607
P5    P     P_3+3 0.065485 0.176032 0.597406 0.972089
P6    P     P_3+3 0.643741 0.614841 0.274359 0.955836
P7    P     P_3+3 0.524369 0.232250 0.439228 0.953784
P8    P     P_3+3 0.539097 0.384411 0.725334 0.941433

loop_
_geom_bond_atom_site_label_1
_geom_bond_atom_site_label_2
_ccdc_geom_bond_type
O23   P7    S    
C45   O3    S    
Ba1   O23   S    
C12   H6    S    
C60   H65   S    
C1    H3    S    
C45   H14   S    
C22   H24   S    
C5    C6    A    
C55   H50   S    
O3    P5    S    
C51   C52   S    
O22   P4    S    
C3    H59   S    
C24   C25   A    
C17   C22   A    
O17   P3    D    
O4    P1    S    
C61   H16   S    
Ba1   O10   S    
Ba2   O6    S    
C57   H54   S    
O6    P7    D    
C33   C35   A    
C22   C24   A    
C2    C63   A    
O12   P2    S    
C48   H30   S    
C19   C31   A    
C49   H38   S    
C13   C14   A    
C20   C36   A    
C28   H36   S    
Ba1   Ba2   S    
C7    C11   A    
C62   H19   S    
C31   C33   A    
C9    C13   A    
O5    P2    S    
C38   C41   A    
C54   H43   S    
C6    C7    A    
C34   H47   S    
C56   H48   S    
C16   H11   S    
C39   C44   A    
O21   P8    S    
Ba1   O16   S    
C59   H61   S    
C1    H10   S    
C54   H46   S    
O19   P4    D    
C56   H15   S    
C57   H52   S    
C21   H22   S    
C19   C20   A    
C14   H21   S    
C39   C41   A    
C60   H64   S    
C16   H35   S    
C39   C60   S    
C28   C40   S    
Ba2   P4    S    
O10   P6    S    
C27   H25   S    
C55   H51   S    
C32   H27   S    
Ba2   O19   S    
C4    C16   S    
C44   C46   A    
C53   H41   S    
C49   C50   S    
Ba2   O5    S    
C18   C63   A    
Ba1   P2    S    
C23   O7    S    
C51   H68   S    
C36   P1    S    
C41   P3    S    
C38   H32   S    
C3    C5    A    
C2    C21   A    
C14   C15   A    
C18   C26   A    
C49   O13   S    
C43   C44   A    
C53   H39   S    
C33   P6    S    
O20   P4    S    
O15   P2    D    
C50   H67   S    
C58   H58   S    
C58   H57   S    
C35   C36   A    
C34   C54   S    
C50   H56   S    
C29   C30   A    
C52   H5    S    
C26   C30   A    
C4    H28   S    
C28   H37   S    
C51   O12   S    
C31   C32   A    
C12   H1    S    
C59   H62   S    
C18   C19   A    
Ba1   O20   S    
C62   H17   S    
C47   P5    S    
C1    C12   S    
C15   P4    S    
C40   H12   S    
C46   P7    S    
C4    O18   S    
C28   O22   S    
C37   C47   A    
C53   H40   S    
Ba2   O20   S    
C29   H26   S    
O11   P6    D    
O2    P5    D    
C50   H66   S    
C8    C59   S    
C40   H23   S    
Ba1   O1    S    
C54   H44   S    
Ba1   O4    S    
C42   C43   A    
C23   H42   S    
C52   C53   S    
C34   H9    S    
Ba2   O23   S    
C4    H18   S    
O1    P1    D    
Ba2   O4    S    
C57   C61   S    
C13   P8    S    
C2    C3    A    
C9    C10   A    
C55   H49   S    
O13   P1    S    
C49   H45   S    
O8    P8    D    
C58   C62   S    
O18   P3    S    
C1    H7    S    
C27   C29   A    
O14   P6    S    
C40   H34   S    
C45   C56   S    
C60   H63   S    
Ba1   P1    S    
C55   C56   S    
C5    H20   S    
C52   H4    S    
C43   C48   A    
Ba2   O24   S    
C12   O14   S    
C10   C17   A    
C15   C17   A    
C61   O9    S    
C35   H29   S    
C58   H55   S    
C23   H8    S    
C51   H2    S    
O16   P3    S    
C7    C63   A    
C37   H31   S    
C8    C9    A    
C23   C34   S    
C61   C62   S    
C38   C42   A    
C10   C11   A    
C57   H53   S    
C24   C27   A    
C6    C8    A    
C47   C48   A    
Ba2   O21   S    
C25   C26   A    
C42   P2    S    
C20   C21   A    
C11   C25   A    
Ba1   O15   S    
C59   H60   S    
C16   H33   S    
C45   H13   S    
O24   P5    S    
O7    P7    S    
Ba1   O5    S    
C30   C32   A    
C37   C46   A    
O9    P8    S    
