data_mof_unit_40681.cif
_audit_creation_date              2012-12-10T19:28:30-0500
_audit_creation_method            fapswitch 2.2
_symmetry_space_group_name_H-M    P1
_symmetry_Int_Tables_number       1
_space_group_crystal_system       triclinic
_cell_length_a                    27.622137
_cell_length_b                    10.486822
_cell_length_c                    9.792651
_cell_angle_alpha                 90.494726
_cell_angle_beta                  89.076518
_cell_angle_gamma                 90.143747
_cell_volume                      2836.13973845

loop_
_atom_site_label
_atom_site_type_symbol
_atom_type_description
_atom_site_fract_x
_atom_site_fract_y
_atom_site_fract_z
_atom_type_partial_charge
C1    C     C_R   0.500801 0.258068 0.499352 0.869002
C2    C     C_R   0.499441 0.741969 0.500620 0.865843
C3    C     C_R   0.101674 0.538049 0.527203 -0.059315
C4    C     C_R   0.898219 0.531945 0.520529 -0.060864
C5    C     C_R   0.127034 0.449986 0.606502 -0.113032
C6    C     C_R   0.872367 0.635934 0.468995 -0.121884
C7    C     C_R   0.101633 0.368614 0.694318 -0.209689
C8    C     C_R   0.897105 0.746431 0.429950 -0.210864
C9    C     C_R   0.127431 0.622258 0.441267 -0.015140
C10   C     C_R   0.873118 0.421669 0.562848 -0.003510
C11   C     C_R   0.353756 0.511303 0.503227 -0.199506
C12   C     C_R   0.646274 0.503443 0.498510 -0.189077
C13   C     C_R   0.974453 0.436136 0.590157 0.081739
C14   C     C_R   0.025476 0.635925 0.459789 0.076703
C15   C     C_R   0.974463 0.643953 0.474123 -0.092765
C16   C     C_R   0.024974 0.447432 0.608646 -0.091264
C17   C     C_R   0.949163 0.537643 0.528727 0.014897
C18   C     C_R   0.050580 0.540881 0.532482 0.015888
C19   C     C_R   0.948686 0.324333 0.624843 -0.170551
C20   C     C_R   0.052088 0.715275 0.370119 -0.166006
C21   C     C_R   0.898797 0.317590 0.612169 -0.168449
C22   C     C_R   0.102244 0.708999 0.361695 -0.173704
C23   C     C_R   0.406279 0.502019 0.500971 0.922974
C24   C     C_R   0.593703 0.499874 0.499180 0.921353
C25   C     C_R   0.051215 0.369099 0.699482 0.483864
C26   C     C_R   0.947431 0.753134 0.435887 0.491295
C27   C     C_3   0.535174 0.041517 0.581661 0.000027
C28   C     C_3   0.465322 0.958609 0.418168 -0.004363
C29   C     C_3   0.542972 0.956499 0.455306 -0.022440
C30   C     C_3   0.457521 0.043562 0.544551 -0.024969
C31   C     C_3   0.499474 0.876644 0.501583 -0.080869
C32   C     C_3   0.501003 0.123428 0.498290 -0.079427
C33   C     C_3   0.491529 0.960514 0.629986 -0.230333
C34   C     C_3   0.508971 0.039596 0.369885 -0.225935
C35   C     C_3   0.476339 0.403835 0.047908 -0.082045
C36   C     C_3   0.523678 0.596159 0.952102 -0.077829
C37   C     C_3   0.519805 0.395919 0.948647 -0.323446
C38   C     C_3   0.480204 0.604078 0.051360 -0.324223
C39   C     C_3   0.456856 0.506306 0.955167 0.606213
C40   C     C_3   0.543155 0.493671 0.044869 0.606384
C41   C     C_R   0.177584 0.447457 0.598092 0.560562
C42   C     C_R   0.821929 0.627992 0.461320 0.605568
C43   C     C_R   0.177983 0.615649 0.435206 0.573209
C44   C     C_R   0.822703 0.417845 0.553321 0.546758
C45   C     C_R   0.279401 0.590407 0.605744 -0.293806
C46   C     C_R   0.723887 0.442214 0.402270 -0.290742
C47   C     C_R   0.329733 0.585939 0.603592 0.526065
C48   C     C_R   0.673576 0.433769 0.401109 0.521785
C49   C     C_R   0.327317 0.447804 0.402309 -0.403711
C50   C     C_R   0.669405 0.576639 0.598532 -0.422016
C51   C     C_R   0.276752 0.451996 0.405246 0.591723
C52   C     C_R   0.719977 0.586164 0.599026 0.593286
C53   C     C_R   0.253153 0.524794 0.506762 0.155684
C54   C     C_R   0.746846 0.516517 0.501374 0.161648
H1    H     H_    0.345857 0.393536 0.322759 0.190054
H2    H     H_    0.647959 0.626395 0.675499 0.187149
H3    H     H_    0.484261 0.925314 0.734990 0.168536
H4    H     H_    0.516249 0.074838 0.264900 0.169215
H5    H     H_    0.535866 0.309218 0.900641 0.169977
H6    H     H_    0.464145 0.690780 0.099365 0.169769
H7    H     H_    0.120708 0.305086 0.761470 0.212838
H8    H     H_    0.877522 0.829714 0.396691 0.211571
H9    H     H_    0.745260 0.389675 0.327185 0.182228
H10   H     H_    0.260593 0.645488 0.684120 0.179503
H11   H     H_    0.880479 0.230068 0.640684 0.189992
H12   H     H_    0.121164 0.771788 0.291498 0.193354
H13   H     H_    0.966640 0.238360 0.655903 0.195236
H14   H     H_    0.034766 0.778439 0.299766 0.207751
N1    N     N_R   0.201686 0.529004 0.512805 -0.324725
N2    N     N_R   0.798388 0.520364 0.503873 -0.324132
N3    N     N_3   0.499960 0.500030 0.863290 -0.130250
N4    N     N_3   0.500040 0.499970 0.136710 -0.130897
O1    O     O_R   0.500000 0.313960 0.616610 -0.617286
O2    O     O_R   0.500000 0.686040 0.383390 -0.617652
O3    O     O_R   0.500020 0.313950 0.383350 -0.619300
O4    O     O_R   0.499980 0.686050 0.616650 -0.618680
O5    O     O_R   0.428750 0.500030 0.616610 -0.517342
O6    O     O_R   0.571250 0.499970 0.383390 -0.520240
O7    O     O_R   0.428770 0.500020 0.383360 -0.643643
O8    O     O_R   0.571230 0.499980 0.616640 -0.644619
O9    O     O_2   0.202580 0.364140 0.673952 -0.563007
O10   O     O_2   0.796497 0.726680 0.411857 -0.559815
O11   O     O_2   0.798015 0.313371 0.594465 -0.562853
O12   O     O_2   0.203351 0.695030 0.353024 -0.553147
Zn1   Zn    Zn3+2 0.499990 0.500010 0.655740 1.007171
Zn2   Zn    Zn3+2 0.500010 0.499990 0.344260 1.006367
C55   C     C_1   0.573467 0.090428 0.670457 0.157709
N5    N     N_1   0.603632 0.129094 0.740327 -0.217790
C56   C     C_1   0.427092 0.909896 0.329025 0.160230
N6    N     N_1   0.396980 0.871352 0.258900 -0.210672
C57   C     C_1   0.449168 0.296321 0.106052 0.237524
N7    N     N_1   0.427639 0.211663 0.151877 -0.211151
C58   C     C_1   0.550851 0.703699 0.893995 0.233265
N8    N     N_1   0.572381 0.788382 0.848222 -0.222834
O13   O     O_3   0.410199 0.506774 0.898843 -0.557578
C59   C     C_3   0.376168 0.547531 0.998599 -0.170395
H15   H     H_    0.380336 0.651239 0.019821 0.164635
H16   H     H_    0.378764 0.492329 0.094700 0.132686
H17   H     H_    0.339275 0.532103 0.958434 0.221376
O14   O     O_3   0.589796 0.492882 0.101358 -0.558196
C60   C     C_3   0.623870 0.452654 0.001471 -0.187641
H18   H     H_    0.621273 0.508208 0.905586 0.134127
H19   H     H_    0.619769 0.349008 0.979799 0.165021
H20   H     H_    0.660747 0.468120 0.041713 0.219612
O15   O     O_3   0.250002 0.391667 0.305373 -0.597420
C61   C     C_3   0.252183 0.258718 0.324832 -0.256303
H21   H     H_    0.240500 0.232083 0.430222 0.186643
H22   H     H_    0.289054 0.221243 0.301620 0.168001
H23   H     H_    0.226927 0.211879 0.253037 0.203399
O16   O     O_3   0.744550 0.653556 0.699271 -0.606806
C62   C     C_3   0.725887 0.778176 0.714983 -0.223828
H24   H     H_    0.693422 0.778130 0.783385 0.164237
H25   H     H_    0.717565 0.823045 0.615286 0.182621
H26   H     H_    0.753711 0.838417 0.764617 0.201320
O17   O     O_3   0.651466 0.359730 0.302633 -0.574677
C63   C     C_3   0.643750 0.236632 0.355615 -0.247555
H27   H     H_    0.619133 0.239077 0.446621 0.135323
H28   H     H_    0.678583 0.190005 0.381099 0.174119
H29   H     H_    0.626001 0.177231 0.276513 0.193464
O18   O     O_3   0.355041 0.651624 0.702471 -0.569066
C64   C     C_3   0.365489 0.774899 0.653844 -0.248739
H30   H     H_    0.331744 0.829574 0.635665 0.166718
H31   H     H_    0.388327 0.771093 0.559359 0.134569
H32   H     H_    0.386335 0.827073 0.732565 0.192735
O19   O     O_3   0.028647 0.295702 0.798369 -0.628835
C65   C     C_3   0.017889 0.374333 0.912367 -0.287021
H33   H     H_    0.992087 0.451342 0.886032 0.168801
H34   H     H_    0.051410 0.415948 0.956262 0.170072
H35   H     H_    0.000315 0.315222 0.992505 0.202709
O20   O     O_3   0.969047 0.869348 0.408647 -0.625923
C66   C     C_3   0.975553 0.934977 0.533337 -0.288448
H36   H     H_    0.999822 0.881627 0.602148 0.172819
H37   H     H_    0.940210 0.954696 0.585498 0.164682
H38   H     H_    0.993028 0.028132 0.511578 0.198615
C67   C     C_1   0.589656 0.904278 0.407937 0.147202
N9    N     N_1   0.626418 0.862943 0.370814 -0.182861
C68   C     C_1   0.410879 0.095929 0.592065 0.148021
N10   N     N_1   0.374157 0.137388 0.629346 -0.182334

loop_
_geom_bond_atom_site_label_1
_geom_bond_atom_site_label_2
_ccdc_geom_bond_type
C55   N5    T    
C58   N8    T    
C27   C29   S    
C8    C26   A    
C14   C18   A    
C11   C47   A    
C62   H24   S    
C42   O10   S    
C12   C48   A    
C66   H38   S    
C53   N1    S    
C67   N9    T    
C27   C33   S    
C65   H33   S    
C11   C49   A    
C35   C37   S    
C37   C40   S    
C38   C39   S    
C9    C22   A    
C61   H21   S    
O17   C63   S    
C59   H17   S    
C42   N2    A    
C63   H27   S    
C3    C18   A    
C11   C23   S    
C25   O19   S    
O16   C62   S    
C22   H12   S    
C64   H32   S    
N3    Zn1   S    
C36   C58   S    
C24   O8    A    
C7    H7    S    
O13   C59   S    
C49   C51   A    
C59   H16   S    
C50   C52   A    
C31   C33   S    
C19   H13   S    
C28   C56   S    
C2    O2    A    
C36   N3    S    
C44   O11   S    
C28   C34   S    
C60   H19   S    
C30   C68   S    
C43   O12   S    
C52   C54   A    
C46   C48   A    
C45   C47   A    
C10   C21   A    
C38   N4    S    
C9    C43   A    
C13   C19   A    
C10   C44   A    
C1    O3    A    
C60   H18   S    
C14   C20   A    
C36   C40   S    
C4    C6    A    
C57   N7    T    
C5    C7    A    
C15   C26   A    
C6    C8    A    
C65   H35   S    
C3    C5    A    
C49   H1    S    
C29   C34   S    
C45   C53   A    
C1    C32   S    
O2    Zn2   S    
C2    C31   S    
C51   C53   A    
C32   C34   S    
C35   C39   S    
O8    Zn1   S    
C3    C9    A    
O3    Zn2   S    
N4    Zn2   S    
C54   N2    S    
C52   O16   S    
C51   O15   S    
C41   O9    S    
C59   H15   S    
C46   C54   A    
C62   H25   S    
C23   O5    A    
C27   C55   S    
O1    Zn1   S    
C64   H30   S    
C37   H5    S    
C48   O17   S    
C38   H6    S    
C4    C17   A    
C24   O6    A    
C47   O18   S    
C29   C67   S    
C20   C22   A    
C35   N4    S    
C60   H20   S    
C37   N3    S    
O19   C65   S    
C4    C10   A    
C66   H36   S    
C2    O4    A    
O18   C64   S    
C41   N1    A    
C68   N10   T    
C16   C25   A    
C15   C17   A    
C5    C41   A    
C65   H34   S    
C40   N4    S    
C30   C33   S    
C21   H11   S    
C27   C32   S    
C20   H14   S    
C28   C31   S    
C66   H37   S    
C26   O20   S    
C40   O14   S    
C12   C50   A    
C33   H3    S    
O15   C61   S    
C12   C24   S    
C45   H10   S    
C7    C25   A    
C63   H29   S    
C13   C17   A    
C46   H9    S    
C44   N2    A    
C1    O1    A    
C28   C30   S    
O20   C66   S    
C39   O13   S    
C29   C31   S    
C30   C32   S    
O6    Zn2   S    
C61   H22   S    
C36   C38   S    
O14   C60   S    
C63   H28   S    
C62   H26   S    
C50   H2    S    
C64   H31   S    
O5    Zn1   S    
C16   C18   A    
C6    C42   A    
C13   C16   A    
C34   H4    S    
C39   N3    S    
C14   C15   A    
C23   O7    A    
C56   N6    T    
C43   N1    A    
O4    Zn1   S    
O7    Zn2   S    
C8    H8    S    
C19   C21   A    
C61   H23   S    
C35   C57   S    
