data_mof_unit_36359.cif
_audit_creation_date              2012-12-10T17:33:42-0500
_audit_creation_method            fapswitch 2.2
_symmetry_space_group_name_H-M    P1
_symmetry_Int_Tables_number       1
_space_group_crystal_system       triclinic
_cell_length_a                    11.653533
_cell_length_b                    12.41833
_cell_length_c                    13.140254
_cell_angle_alpha                 117.306379
_cell_angle_beta                  75.892548
_cell_angle_gamma                 100.765906
_cell_volume                      1632.54221593

loop_
_atom_site_label
_atom_site_type_symbol
_atom_type_description
_atom_site_fract_x
_atom_site_fract_y
_atom_site_fract_z
_atom_type_partial_charge
C1    C     C_R   0.511290 0.854665 0.285264 0.975704
C2    C     C_R   0.443969 0.228570 0.837784 -0.311880
C3    C     C_R   0.582203 0.810487 0.074769 0.246933
C4    C     C_R   0.596800 0.728712 0.955394 0.224528
C5    C     C_R   0.550862 0.605646 0.920299 0.494375
C6    C     C_R   0.484921 0.566454 0.006082 -0.111804
C7    C     C_R   0.450059 0.655293 0.121155 -0.147804
C8    C     C_R   0.444784 0.442038 0.978762 -0.088137
C9    C     C_R   0.344148 0.412747 0.051155 -0.151879
C10   C     C_R   0.293897 0.506640 0.156244 0.363877
C11   C     C_R   0.348367 0.626867 0.192592 0.349443
C12   C     C_R   0.715265 0.001388 0.501909 0.848250
C13   C     C_R   0.503411 0.344800 0.882178 0.492808
C14   C     C_R   0.338740 0.200989 0.903746 0.362894
C15   C     C_R   0.513637 0.772458 0.158974 -0.170405
C16   C     C_R   0.653636 0.314701 0.291983 0.276336
C17   C     C_R   0.342730 0.766258 0.651114 -0.110373
C18   C     C_R   0.289580 0.665777 0.671968 0.263682
C19   C     C_R   0.334648 0.552319 0.601846 0.614122
C20   C     C_R   0.442575 0.542248 0.520239 -0.199576
C21   C     C_R   0.485419 0.643934 0.493658 0.055700
C22   C     C_R   0.507253 0.434236 0.459301 -0.153829
C23   C     C_R   0.480299 0.145286 0.714376 0.873282
C24   C     C_R   0.583473 0.415096 0.351550 -0.185059
C25   C     C_R   0.592965 0.501383 0.309558 0.315627
C26   C     C_R   0.574755 0.621641 0.391600 0.418851
C27   C     C_R   0.501111 0.345737 0.500927 0.480060
C28   C     C_R   0.645930 0.233404 0.339709 0.567438
C29   C     C_R   0.284406 0.000510 0.500596 0.813855
C30   C     C_1   0.836847 0.003866 0.504663 -0.196023
C31   C     C_1   0.939523 0.004439 0.505161 -0.019130
C32   C     C_1   0.059567 0.003452 0.504007 -0.002693
C33   C     C_1   0.162403 0.002011 0.502357 -0.149053
C34   C     C_R   0.293447 0.290147 0.013323 0.373362
Cu1   Cu    Cu3+1 0.526510 0.098270 0.475420 1.015011
Cu2   Cu    Cu3+1 0.473490 0.901730 0.524580 1.006655
H1    H     H_    0.305282 0.852760 0.701375 0.191365
N1    N     N_R   0.566700 0.246290 0.438210 -0.317776
N2    N     N_R   0.434010 0.754320 0.561170 -0.193556
O1    O     O_R   0.533340 0.972510 0.318140 -0.498115
O2    O     O_R   0.488570 0.806530 0.359650 -0.527691
O3    O     O_R   0.685190 0.083000 0.479260 -0.562648
O4    O     O_R   0.640410 0.917020 0.520770 -0.514909
O5    O     O_R   0.511430 0.193470 0.640350 -0.551809
O6    O     O_R   0.466660 0.027490 0.681860 -0.552104
O7    O     O_R   0.359590 0.082980 0.479230 -0.613205
O8    O     O_R   0.314810 0.917000 0.520740 -0.578029
O9    O     O_3   0.279692 0.085920 0.861376 -0.538924
C35   C     C_3   0.185762 0.088140 0.811968 -0.265798
H2    H     H_    0.149082 0.993342 0.763739 0.172505
H3    H     H_    0.216175 0.128733 0.748899 0.116929
H4    H     H_    0.112500 0.137891 0.880430 0.174913
O10   O     O_3   0.636727 0.473241 0.193421 -0.728326
H5    H     H_    0.627617 0.542454 0.178736 0.331264
O11   O     O_3   0.734139 0.296289 0.190615 -0.669968
H6    H     H_    0.784915 0.373527 0.204876 0.338259
O12   O     O_3   0.439365 0.366573 0.610281 -0.625813
H7    H     H_    0.386401 0.292495 0.602701 0.365759
O13   O     O_3   0.264793 0.451466 0.607576 -0.524702
C36   C     C_3   0.204141 0.394938 0.512595 -0.272653
H8    H     H_    0.266779 0.358106 0.428156 0.173437
H9    H     H_    0.147797 0.458469 0.513092 0.163993
H10   H     H_    0.144599 0.317101 0.520287 0.187734
O14   O     O_3   0.189025 0.673900 0.755635 -0.684577
H11   H     H_    0.167866 0.759276 0.796729 0.327107
O15   O     O_3   0.648253 0.712250 0.370032 -0.550339
C37   C     C_3   0.767742 0.701684 0.368878 -0.319676
H12   H     H_    0.825654 0.770235 0.343647 0.188132
H13   H     H_    0.800049 0.612518 0.303123 0.162177
H14   H     H_    0.779714 0.719330 0.456840 0.168852
O16   O     O_3   0.191543 0.480205 0.222940 -0.737162
H15   H     H_    0.139568 0.547259 0.254395 0.319734
O17   O     O_3   0.196176 0.255513 0.078688 -0.643644
H16   H     H_    0.127864 0.289990 0.075043 0.337549
O18   O     O_3   0.619467 0.359924 0.829263 -0.572897
C38   C     C_3   0.696966 0.374873 0.902954 -0.300424
H17   H     H_    0.674779 0.306154 0.938757 0.205996
H18   H     H_    0.697844 0.468515 0.974224 0.176018
H19   H     H_    0.788305 0.362499 0.851348 0.186081
O19   O     O_3   0.630404 0.929523 0.110398 -0.655233
H20   H     H_    0.623678 0.958580 0.053528 0.359045
O20   O     O_3   0.547896 0.528841 0.803163 -0.501102
C39   C     C_3   0.660308 0.525774 0.730139 -0.029393
H21   H     H_    0.736657 0.551449 0.776432 0.126849
H22   H     H_    0.664777 0.583773 0.685164 0.166243
H23   H     H_    0.670025 0.431547 0.661148 0.175364
O21   O     O_3   0.654197 0.767634 0.871502 -0.742801
H24   H     H_    0.722012 0.826696 0.900492 0.336876
O22   O     O_3   0.293837 0.719962 0.290305 -0.743085
H25   H     H_    0.260528 0.690342 0.350815 0.334997
O23   O     O_3   0.716008 0.137042 0.285280 -0.483180
C40   C     C_3   0.831269 0.179785 0.311423 -0.204840
H26   H     H_    0.880684 0.100161 0.285101 0.190355
H27   H     H_    0.829857 0.237057 0.406370 0.116489
H28   H     H_    0.881009 0.231061 0.261431 0.175206

loop_
_geom_bond_atom_site_label_1
_geom_bond_atom_site_label_2
_ccdc_geom_bond_type
C16   C28   A    
O21   H24   S    
C8    C13   A    
C23   O6    A    
O17   H16   S    
C19   C20   A    
C38   H19   S    
C21   C26   A    
C4    O21   S    
C31   C32   S    
O10   H5    S    
C7    C11   A    
C29   O8    A    
C36   H10   S    
C38   H18   S    
C12   O4    A    
C30   C31   T    
C27   N1    A    
C29   C33   S    
Cu2   O8    S    
C36   H9    S    
C18   C19   A    
C17   N2    A    
C2    C13   A    
Cu1   O3    S    
C12   O3    A    
C1    O1    A    
C13   O18   S    
C8    C9    A    
C35   H3    S    
C1    C15   S    
C9    C10   A    
C10   O16   S    
C7    C15   A    
O15   C37   S    
O13   C36   S    
C16   C24   A    
Cu2   O2    S    
C3    O19   S    
C37   H12   S    
C26   O15   S    
Cu1   N1    S    
C24   C25   A    
C27   O12   S    
O23   C40   S    
C4    C5    A    
C14   O9    S    
C19   O13   S    
C25   C26   A    
C40   H28   S    
C23   O5    A    
C36   H8    S    
C37   H13   S    
Cu1   Cu2   S    
O18   C38   S    
C11   O22   S    
C39   H21   S    
C21   N2    A    
C28   N1    A    
C35   H4    S    
O11   H6    S    
C40   H27   S    
C17   C18   A    
Cu2   O6    S    
C17   H1    S    
C38   H17   S    
Cu1   O5    S    
C1    O2    A    
O9    C35   S    
C39   H22   S    
C20   C22   A    
C35   H2    S    
C22   C27   A    
C9    C34   A    
C22   C24   A    
C3    C4    A    
C3    C15   A    
C12   C30   S    
Cu2   N2    S    
C25   O10   S    
O19   H20   S    
C14   C34   A    
C6    C8    A    
C6    C7    A    
C29   O7    A    
C37   H14   S    
C32   C33   T    
Cu1   O1    S    
C16   O11   S    
O16   H15   S    
O14   H11   S    
C5    O20   S    
C18   O14   S    
O12   H7    S    
C5    C6    A    
C40   H26   S    
C28   O23   S    
C2    C14   A    
C10   C11   A    
C34   O17   S    
C39   H23   S    
C20   C21   A    
O20   C39   S    
C2    C23   S    
Cu2   O4    S    
O22   H25   S    
Cu1   O7    S    
