data_mof_unit_65677.cif
_audit_creation_date              2012-12-10T19:25:23-0500
_audit_creation_method            fapswitch 2.2
_symmetry_space_group_name_H-M    P1
_symmetry_Int_Tables_number       1
_space_group_crystal_system       triclinic
_cell_length_a                    18.739171
_cell_length_b                    18.735831
_cell_length_c                    18.7245
_cell_angle_alpha                 109.39745
_cell_angle_beta                  109.156295
_cell_angle_gamma                 109.553292
_cell_volume                      5079.72642352

loop_
_atom_site_label
_atom_site_type_symbol
_atom_type_description
_atom_site_fract_x
_atom_site_fract_y
_atom_site_fract_z
_atom_type_partial_charge
C1    C     C_R   0.880351 0.380127 0.000381 0.874533
C2    C     C_R   0.185946 0.501583 0.184036 -0.085378
C3    C     C_R   0.258217 0.502171 0.176051 -0.209250
C4    C     C_R   0.882353 0.501724 0.879966 0.922346
C5    C     C_R   0.322913 0.502579 0.240697 -0.210242
C6    C     C_R   0.313391 0.499639 0.311339 -0.087745
C7    C     C_R   0.240681 0.497858 0.315653 0.120854
C8    C     C_3   0.195539 0.495372 0.367805 -0.467373
C9    C     C_3   0.125608 0.497533 0.297936 -0.455356
C10   C     C_R   0.173404 0.749637 0.986712 0.120404
C11   C     C_R   0.185815 0.684233 0.998138 -0.091624
C12   C     C_R   0.815026 0.313780 0.999863 -0.020286
C13   C     C_R   0.257227 0.675781 0.997415 -0.201759
C14   C     C_R   0.321911 0.740392 0.997958 -0.158190
C15   C     C_R   0.313084 0.811314 0.996481 -0.086625
C16   C     C_R   0.120829 0.619887 0.000522 0.870072
C17   C     C_R   0.236067 0.812070 0.984791 0.162909
C18   C     C_3   0.223687 0.882999 0.035368 -0.513410
C19   C     C_3   0.154606 0.813963 0.037733 -0.470412
C20   C     C_R   0.498696 0.379866 0.378439 0.874840
C21   C     C_R   0.616151 0.501680 0.618649 0.927086
C22   C     C_R   0.495544 0.619831 0.615915 0.901434
C23   C     C_R   0.834151 0.257174 0.025392 -0.191735
C24   C     C_R   0.377762 0.499927 0.377449 0.873180
C25   C     C_R   0.500094 0.879644 0.880712 0.986476
C26   C     C_R   0.620191 0.119562 0.999038 0.898250
C27   C     C_R   0.499117 0.119942 0.119342 0.860271
C28   C     C_R   0.119325 0.500224 0.119205 0.865257
C29   C     C_R   0.379818 0.879892 0.000096 0.898664
C30   C     C_R   0.493988 0.317526 0.238672 -0.017497
C31   C     C_R   0.498381 0.313318 0.312782 -0.027473
C32   C     C_R   0.491304 0.238253 0.317623 -0.186690
C33   C     C_R   0.491572 0.173753 0.253738 -0.208556
C34   C     C_R   0.769494 0.191323 0.023616 -0.124618
C35   C     C_R   0.495252 0.183218 0.183703 -0.035003
C36   C     C_R   0.489435 0.251655 0.173428 0.047061
C37   C     C_3   0.543315 0.312698 0.153448 -0.502382
C38   C     C_3   0.550075 0.386240 0.226821 0.279977
C39   C     C_R   0.567377 0.766349 0.739447 0.064817
C40   C     C_2   0.756202 0.577524 0.750573 -0.144564
C41   C     C_R   0.494499 0.684537 0.681751 -0.143135
C42   C     C_R   0.419927 0.665726 0.691481 -0.243864
C43   C     C_R   0.420640 0.729606 0.757805 0.366112
C44   C     C_R   0.497089 0.811771 0.815212 -0.180723
C45   C     C_R   0.685495 0.180970 0.993524 -0.043460
C46   C     C_R   0.568954 0.826787 0.804177 0.011614
C47   C     C_3   0.660055 0.893288 0.837644 0.220010
C48   C     C_3   0.658678 0.823505 0.763644 -0.461134
C49   C     C_2   0.679674 0.505000 0.690635 -0.322011
C50   C     C_2   0.817534 0.577517 0.823332 -0.146890
C51   C     C_2   0.822016 0.505014 0.811341 -0.322589
C52   C     C_R   0.729411 0.296018 0.960405 0.001330
C53   C     C_R   0.664964 0.229095 0.955588 0.094062
C54   C     C_3   0.616946 0.277439 0.968233 -0.508896
C55   C     C_3   0.688985 0.352427 0.974895 0.227579
C56   C     C_R   0.180404 0.500612 0.255470 0.112973
Cl1   Cl    Cl    0.751406 0.446499 0.081255 -0.546454
Cl2   Cl    Cl    0.659206 0.456609 0.316119 -0.530854
Cl3   Cl    Cl    0.326586 0.704184 0.768440 -0.611522
Cl4   Cl    Cl    0.664807 0.983930 0.823172 -0.615178
H1    H     H_    0.772288 0.637832 0.748372 0.165667
H2    H     H_    0.504750 0.302988 0.088125 0.177164
H3    H     H_    0.517605 0.420623 0.204425 0.103551
H4    H     H_    0.361470 0.602411 0.647688 0.195817
H5    H     H_    0.705635 0.910634 0.904209 0.114350
H6    H     H_    0.661968 0.839384 0.712234 0.244816
H7    H     H_    0.702469 0.798778 0.787236 0.163047
H8    H     H_    0.785375 0.447822 0.746881 0.162825
H9    H     H_    0.899483 0.266513 0.050243 0.140208
H10   H     H_    0.785693 0.150742 0.048024 0.166787
H11   H     H_    0.553121 0.246376 0.908934 0.185063
H12   H     H_    0.378948 0.503797 0.234968 0.159463
H13   H     H_    0.666610 0.366065 0.920706 0.112483
H14   H     H_    0.264926 0.503274 0.121054 0.157801
H15   H     H_    0.061803 0.435972 0.257787 0.203338
H16   H     H_    0.122534 0.558591 0.322475 0.225680
H17   H     H_    0.379115 0.736155 0.001464 0.170378
H18   H     H_    0.282027 0.932503 0.100500 0.197088
H19   H     H_    0.196700 0.910077 0.995871 0.218331
H20   H     H_    0.172886 0.823250 0.104296 0.219449
H21   H     H_    0.489797 0.231633 0.372517 0.155502
H22   H     H_    0.861421 0.637822 0.885308 0.164837
H23   H     H_    0.171935 0.432812 0.368446 0.215455
H24   H     H_    0.613982 0.291491 0.029371 0.223320
H25   H     H_    0.233347 0.555449 0.432607 0.211632
H26   H     H_    0.264958 0.622041 0.000916 0.157066
H27   H     H_    0.659429 0.447799 0.698394 0.157322
H28   H     H_    0.087761 0.801309 0.999739 0.204038
H29   H     H_    0.490535 0.117860 0.259648 0.152408
H30   H     H_    0.605825 0.313237 0.165940 0.234852
O1    O     O_R   0.908050 0.460100 0.051390 -0.564543
O2    O     O_R   0.551950 0.908320 0.960240 -0.637879
O3    O     O_R   0.540220 0.091590 0.948580 -0.615207
O4    O     O_R   0.908730 0.356680 0.948620 -0.622085
O5    O     O_R   0.643000 0.091540 0.051310 -0.629726
O6    O     O_R   0.448050 0.091580 0.039660 -0.628678
O7    O     O_R   0.550830 0.091520 0.142390 -0.617386
O8    O     O_R   0.357000 0.908370 0.948590 -0.597812
O9    O     O_R   0.459780 0.908310 0.051320 -0.633387
O10   O     O_R   0.908630 0.551710 0.960350 -0.606618
O11   O     O_R   0.909310 0.448290 0.857570 -0.616930
O12   O     O_R   0.445680 0.356610 0.405790 -0.635573
O13   O     O_R   0.091270 0.643320 0.051380 -0.629966
O14   O     O_R   0.091950 0.539900 0.948610 -0.617127
O15   O     O_R   0.090690 0.551710 0.142430 -0.617845
O16   O     O_R   0.091370 0.448290 0.039650 -0.626952
O17   O     O_R   0.549120 0.460050 0.405790 -0.569902
O18   O     O_R   0.639540 0.551640 0.587850 -0.603778
O19   O     O_R   0.536110 0.448210 0.587860 -0.625350
O20   O     O_R   0.547900 0.643240 0.587840 -0.619901
O21   O     O_R   0.444470 0.539800 0.587850 -0.628419
O22   O     O_R   0.457480 0.551640 0.405780 -0.620005
O23   O     O_R   0.354050 0.448210 0.405780 -0.623613
O24   O     O_R   0.449170 0.908380 0.857510 -0.574424
Zn1   Zn    Zn3+2 0.999540 0.569060 0.068630 1.017508
Zn2   Zn    Zn3+2 0.000460 0.430940 0.931370 0.988562
Zn3   Zn    Zn3+2 0.565860 0.568990 0.496810 1.025098
Zn4   Zn    Zn3+2 0.427730 0.430860 0.496820 0.966717
Zn5   Zn    Zn3+2 0.431370 0.999990 0.931350 1.018028
Zn6   Zn    Zn3+2 0.568630 0.999910 0.068550 0.978220

loop_
_geom_bond_atom_site_label_1
_geom_bond_atom_site_label_2
_ccdc_geom_bond_type
C8    H23   S    
C41   C42   A    
C49   H27   S    
O6    Zn5   S    
C35   C36   A    
C24   O22   A    
C21   C49   S    
C37   H2    S    
C7    C8    S    
C39   C41   A    
C53   C54   S    
C32   H21   S    
C1    C12   S    
C12   C23   A    
C30   C38   S    
C37   H30   S    
O21   Zn4   S    
C5    C6    A    
C36   C37   S    
C18   C19   S    
C5    H12   S    
C30   C31   A    
C22   C41   S    
C20   O12   A    
C10   C17   A    
C40   C49   D    
C25   C44   S    
C8    H25   S    
C46   C47   S    
C14   H17   S    
C3    H14   S    
C23   H9    S    
C26   C45   S    
O9    Zn6   S    
C38   Cl2   S    
C16   O14   A    
C54   H11   S    
C31   C32   A    
C28   O16   A    
C18   H19   S    
C22   O20   A    
C13   H26   S    
C9    H16   S    
C34   H10   S    
O24   Zn5   S    
O12   Zn4   S    
C52   C55   S    
C43   Cl3   S    
C20   O17   A    
C26   O3    A    
C47   Cl4   S    
C45   C53   A    
C24   O23   A    
C1    O1    A    
O14   Zn2   S    
C13   C14   A    
O17   Zn3   S    
C27   O6    A    
O10   Zn1   S    
C7    C56   A    
O20   Zn3   S    
C54   H24   S    
C12   C52   A    
C44   C46   A    
O19   Zn4   S    
C15   C29   S    
C29   O9    A    
C4    C51   S    
O8    Zn5   S    
C19   H28   S    
C9    C56   S    
O4    Zn2   S    
C8    C9    S    
C27   C35   S    
C40   H1    S    
O16   Zn2   S    
O13   Zn1   S    
C43   C44   A    
C37   C38   S    
C33   H29   S    
C11   C16   S    
C16   O13   A    
C47   C48   S    
C10   C19   S    
C18   H18   S    
C23   C34   A    
C6    C24   S    
C4    O11   A    
C17   C18   S    
C50   C51   D    
C34   C45   A    
C39   C46   A    
C29   O8    A    
C28   O15   A    
C4    O10   A    
C42   C43   A    
C42   H4    S    
C52   C53   A    
C50   H22   S    
C38   H3    S    
C26   O5    A    
C15   C17   A    
C54   C55   S    
C27   O7    A    
C25   O2    A    
O18   Zn3   S    
O15   Zn1   S    
C3    C5    A    
C1    O4    A    
C21   O19   A    
C6    C7    A    
O5    Zn6   S    
O3    Zn5   S    
C30   C36   A    
C32   C33   A    
O7    Zn6   S    
C55   Cl1   S    
C2    C3    A    
O2    Zn6   S    
C2    C56   A    
C25   O24   A    
C11   C13   A    
O22   Zn3   S    
C40   C50   S    
C33   C35   A    
O1    Zn1   S    
C51   H8    S    
C48   H7    S    
C19   H20   S    
C21   O18   A    
C10   C11   A    
O23   Zn4   S    
C55   H13   S    
C22   O21   A    
O11   Zn2   S    
C14   C15   A    
C2    C28   S    
C9    H15   S    
C48   H6    S    
C47   H5    S    
C39   C48   S    
C20   C31   S    
