data_mof_unit_41205.cif
_audit_creation_date              2012-10-26T20:01:51-0400
_audit_creation_method            fapswitch 2.2
_symmetry_space_group_name_H-M    P1
_symmetry_Int_Tables_number       1
_space_group_crystal_system       triclinic
_cell_length_a                    11.706059
_cell_length_b                    10.784321
_cell_length_c                    9.616335
_cell_angle_alpha                 90.035499
_cell_angle_beta                  90.020355
_cell_angle_gamma                 92.555039
_cell_volume                      1212.77718817

loop_
_atom_site_label
_atom_site_type_symbol
_atom_type_description
_atom_site_fract_x
_atom_site_fract_y
_atom_site_fract_z
_atom_type_partial_charge
C1    C     C_R   0.495957 0.262604 0.500007 0.539289
C2    C     C_R   0.488461 0.870502 0.500166 0.013472
C3    C     C_R   0.651174 0.665627 0.143854 -0.120202
C4    C     C_R   0.284161 0.499680 0.499994 0.532724
C5    C     C_R   0.724702 0.747282 0.072237 -0.166390
C6    C     C_R   0.725235 0.747942 0.927775 0.216623
C7    C     C_R   0.651219 0.665924 0.856464 -0.021030
C8    C     C_R   0.574208 0.581633 0.925417 0.106178
C9    C     C_R   0.574190 0.581529 0.074762 0.145874
C10   C     C_R   0.429417 0.422335 0.073733 0.007525
C11   C     C_R   0.429443 0.422365 0.925971 0.010007
C12   C     C_R   0.231745 0.051520 0.721971 -0.121486
C13   C     C_R   0.496493 0.737077 0.500067 0.529224
C14   C     C_R   0.715837 0.500359 0.500028 0.543485
C15   C     C_1   0.162432 0.500081 0.500038 -0.027084
C16   C     C_1   0.059939 0.500421 0.500112 -0.037341
C17   C     C_1   0.940100 0.500649 0.500136 -0.030378
C18   C     C_1   0.837592 0.500617 0.500099 -0.010826
C19   C     C_R   0.315558 0.120443 0.649065 -0.109111
C20   C     C_R   0.231959 0.922600 0.722263 -0.114604
C21   C     C_R   0.316006 0.861774 0.649674 -0.099182
C22   C     C_R   0.403238 0.929712 0.577000 0.029889
C23   C     C_R   0.403019 0.060916 0.576770 0.027103
C24   C     C_R   0.488069 0.128393 0.499878 0.004021
C25   C     C_R   0.567675 0.067286 0.420036 -0.140858
C26   C     C_R   0.567878 0.939357 0.420184 -0.140041
Cu1   Cu    Cu3+1 0.499990 0.499990 0.640660 0.926675
Cu2   Cu    Cu3+1 0.500010 0.500010 0.359340 0.933863
H1    H     H_    0.631796 0.119154 0.359774 0.132452
H2    H     H_    0.658907 0.672653 0.253439 0.184956
H3    H     H_    0.781764 0.810043 0.130214 0.103941
H4    H     H_    0.844286 0.879222 0.918103 0.325817
H5    H     H_    0.658339 0.672480 0.746813 0.207088
H6    H     H_    0.371559 0.358629 0.870879 0.111551
H7    H     H_    0.309288 0.220103 0.647871 0.126670
H8    H     H_    0.165377 0.098336 0.776846 0.117303
H9    H     H_    0.165743 0.869375 0.777362 0.128188
H10   H     H_    0.310087 0.761544 0.649146 0.145518
H11   H     H_    0.632164 0.893828 0.360031 0.114218
H12   H     H_    0.371522 0.358578 0.128650 0.117951
N1    N     N_R   0.501070 0.501210 0.147910 -0.234613
N2    N     N_R   0.501110 0.501290 0.852040 -0.244015
O1    O     O_R   0.499990 0.319640 0.618810 -0.497731
O2    O     O_R   0.500000 0.319660 0.381240 -0.498983
O3    O     O_R   0.337190 0.500000 0.618790 -0.510776
O4    O     O_R   0.337200 0.500030 0.381210 -0.489471
O5    O     O_R   0.500000 0.680340 0.618760 -0.527408
O6    O     O_R   0.500010 0.680360 0.381190 -0.515765
O7    O     O_R   0.662800 0.499970 0.618790 -0.508117
O8    O     O_R   0.662810 0.500000 0.381210 -0.512751
O9    O     O_3   0.797351 0.827336 0.852572 -0.703443

loop_
_geom_bond_atom_site_label_1
_geom_bond_atom_site_label_2
_ccdc_geom_bond_type
C2    C22   A    
C13   O6    A    
C19   C23   A    
C23   C24   A    
H4    O9    S    
C6    C7    A    
C3    C9    A    
C6    O9    S    
C12   H8    S    
C1    O1    A    
C14   C18   S    
C1    O2    A    
C9    N1    A    
C12   C20   A    
C4    C15   S    
C17   C18   T    
C7    C8    A    
C2    C26   A    
C4    O4    A    
C21   C22   A    
C20   C21   A    
C10   N1    A    
C20   H9    S    
C7    H5    S    
Cu1   N2    S    
Cu2   O4    S    
C14   O8    A    
C1    C24   S    
C3    H2    S    
C8    N2    A    
C4    O3    A    
C25   H1    S    
C5    C6    A    
C26   H11   S    
C14   O7    A    
C16   C17   S    
Cu1   O3    S    
C15   C16   T    
Cu1   O1    S    
Cu2   N1    S    
C24   C25   A    
C12   C19   A    
C11   N2    A    
C10   H12   S    
C10   C11   A    
Cu1   O5    S    
Cu1   Cu2   S    
C13   O5    A    
C2    C13   S    
C22   C23   A    
Cu2   O6    S    
C19   H7    S    
C3    C5    A    
C25   C26   A    
Cu2   O8    S    
Cu2   O2    S    
C11   H6    S    
C21   H10   S    
Cu1   O7    S    
C8    C9    A    
C5    H3    S    
