data_mof_unit_55200.cif
_audit_creation_date              2012-12-10T18:54:28-0500
_audit_creation_method            fapswitch 2.2
_symmetry_space_group_name_H-M    P1
_symmetry_Int_Tables_number       1
_space_group_crystal_system       triclinic
_cell_length_a                    19.438157
_cell_length_b                    18.221522
_cell_length_c                    9.062417
_cell_angle_alpha                 89.990975
_cell_angle_beta                  91.803322
_cell_angle_gamma                 90.006806
_cell_volume                      3208.25312563

loop_
_atom_site_label
_atom_site_type_symbol
_atom_type_description
_atom_site_fract_x
_atom_site_fract_y
_atom_site_fract_z
_atom_type_partial_charge
C1    C     C_R   0.367570 0.499996 0.499537 0.805478
C2    C     C_R   0.632430 0.500004 0.500464 0.805471
C3    C     C_R   0.455903 0.721513 0.406333 0.108320
C4    C     C_R   0.544101 0.278482 0.593651 0.108335
C5    C     C_R   0.544079 0.721520 0.593687 0.108786
C6    C     C_R   0.455921 0.278485 0.406303 0.108831
C7    C     C_R   0.454278 0.799689 0.404961 -0.048991
C8    C     C_R   0.545730 0.200306 0.594995 -0.048989
C9    C     C_R   0.545685 0.799696 0.595063 -0.048929
C10   C     C_R   0.454323 0.200309 0.404892 -0.048935
C11   C     C_R   0.499985 0.839381 0.499994 0.024929
C12   C     C_R   0.500023 0.160619 0.499952 0.024893
C13   C     C_R   0.457861 0.961398 0.595258 -0.191281
C14   C     C_R   0.542141 0.038602 0.404668 -0.191214
C15   C     C_R   0.542129 0.961404 0.404676 -0.191321
C16   C     C_R   0.457874 0.038596 0.595252 -0.191284
C17   C     C_R   0.500018 0.078055 0.499965 0.126357
C18   C     C_R   0.499988 0.921946 0.499970 0.126380
C19   C     C_R   0.499886 0.500003 0.220545 0.870289
C20   C     C_R   0.500114 0.499996 0.779455 0.870286
C21   C     C_1   0.499957 0.500005 0.065543 -0.155374
C22   C     C_1   0.500043 0.499995 0.934457 -0.155369
C23   C     C_R   0.744434 0.433408 0.499736 -0.162456
C24   C     C_R   0.255565 0.566593 0.500260 -0.162460
C25   C     C_R   0.255527 0.433365 0.497040 -0.161620
C26   C     C_R   0.744472 0.566635 0.502973 -0.161634
C27   C     C_R   0.816076 0.433493 0.499867 -0.139735
C28   C     C_R   0.183924 0.566507 0.500131 -0.139736
C29   C     C_R   0.183885 0.433421 0.496700 -0.138850
C30   C     C_R   0.816115 0.566580 0.503314 -0.138851
C31   C     C_R   0.852026 0.500045 0.501551 0.119949
C32   C     C_R   0.147974 0.499956 0.498456 0.119947
C33   C     C_R   0.708011 0.500015 0.501102 -0.027906
C34   C     C_R   0.291989 0.499985 0.498901 -0.027904
C35   C     C_R   0.961713 0.522524 0.373096 -0.065501
C36   C     C_R   0.038287 0.477478 0.626912 -0.065502
C37   C     C_R   0.033983 0.522461 0.372282 -0.065075
C38   C     C_R   0.966016 0.477540 0.627725 -0.065075
C39   C     C_R   0.072230 0.499939 0.499190 -0.039642
C40   C     C_R   0.927769 0.500062 0.500817 -0.039644
Cu1   Cu    Cu3+1 0.500000 0.573360 0.500000 0.964586
Cu2   Cu    Cu3+1 0.500000 0.426640 0.500000 0.964586
H1    H     H_    0.717678 0.381267 0.498210 0.154168
H2    H     H_    0.282322 0.618734 0.501779 0.154167
H3    H     H_    0.282248 0.381232 0.495939 0.154624
H4    H     H_    0.717751 0.618768 0.504080 0.154618
H5    H     H_    0.843592 0.381816 0.498240 0.134224
H6    H     H_    0.156409 0.618185 0.501753 0.134224
H7    H     H_    0.156332 0.381730 0.495157 0.134355
H8    H     H_    0.843668 0.618270 0.504864 0.134354
H9    H     H_    0.424715 0.932306 0.669147 0.128011
H10   H     H_    0.575285 0.067695 0.330776 0.128002
H11   H     H_    0.575267 0.932316 0.330798 0.128105
H12   H     H_    0.424735 0.067684 0.669130 0.128104
N1    N     N_R   0.500000 0.683620 0.500000 -0.233279
N2    N     N_R   0.500000 0.316380 0.500000 -0.233279
O1    O     O_R   0.400190 0.561980 0.499980 -0.588408
O2    O     O_R   0.599810 0.438020 0.500020 -0.588400
O3    O     O_R   0.599810 0.561980 0.500020 -0.588244
O4    O     O_R   0.400190 0.438020 0.499980 -0.588241
O5    O     O_R   0.500000 0.561940 0.288400 -0.578406
O6    O     O_R   0.500000 0.438060 0.711600 -0.578406
O7    O     O_R   0.500000 0.561940 0.711600 -0.578523
O8    O     O_R   0.500000 0.438060 0.288400 -0.578530
C41   C     C_1   0.922207 0.544467 0.241831 0.259796
N3    N     N_1   0.890667 0.562004 0.137264 -0.251082
C42   C     C_1   0.077793 0.455535 0.758177 0.259794
N4    N     N_1   0.109332 0.437998 0.862744 -0.251077
C43   C     C_1   0.069028 0.544330 0.240185 0.262943
N5    N     N_1   0.096999 0.561808 0.134934 -0.249994
C44   C     C_1   0.930972 0.455671 0.759821 0.262943
N6    N     N_1   0.903001 0.438193 0.865072 -0.249993
C45   C     C_1   0.410093 0.681441 0.307079 0.298850
N7    N     N_1   0.373104 0.650050 0.226793 -0.299799
C46   C     C_1   0.589909 0.318550 0.692915 0.298795
N8    N     N_1   0.626897 0.349938 0.773208 -0.299802
C47   C     C_1   0.589863 0.681455 0.693013 0.298212
N9    N     N_1   0.626823 0.650071 0.773376 -0.300734
C48   C     C_1   0.410125 0.318555 0.307010 0.298166
N10   N     N_1   0.373155 0.349942 0.226673 -0.300738
C49   C     C_3   0.403667 0.839973 0.301696 -0.405272
C50   C     C_3   0.432016 0.846767 0.146233 -0.331551
C51   C     C_3   0.378193 0.878789 0.038359 -0.842508
H13   H     H_    0.332846 0.841814 0.028513 0.261156
H14   H     H_    0.361343 0.933550 0.076664 0.250452
H15   H     H_    0.400448 0.884797 0.927777 0.229059
H16   H     H_    0.477853 0.883154 0.149793 0.222457
H17   H     H_    0.447933 0.792111 0.104966 0.220942
H18   H     H_    0.353477 0.810705 0.297258 0.196678
H19   H     H_    0.391582 0.895576 0.343542 0.209928
C52   C     C_3   0.596347 0.160014 0.698233 -0.405309
C53   C     C_3   0.567996 0.153183 0.853685 -0.331538
C54   C     C_3   0.621778 0.121013 0.961475 -0.842448
H20   H     H_    0.638532 0.066239 0.923041 0.250497
H21   H     H_    0.667185 0.157900 0.971376 0.261110
H22   H     H_    0.599527 0.114990 0.072055 0.229036
H23   H     H_    0.552160 0.207845 0.895071 0.220926
H24   H     H_    0.522107 0.116873 0.850050 0.222489
H25   H     H_    0.608441 0.104423 0.656336 0.209973
H26   H     H_    0.646532 0.189290 0.702712 0.196658
C55   C     C_3   0.596233 0.839991 0.698446 -0.405243
C56   C     C_3   0.567821 0.846674 0.853869 -0.331632
C57   C     C_3   0.621509 0.878915 0.961773 -0.842098
H27   H     H_    0.667019 0.842174 0.971561 0.261258
H28   H     H_    0.638110 0.933787 0.923528 0.250465
H29   H     H_    0.599233 0.884744 0.072369 0.229074
H30   H     H_    0.521861 0.882873 0.850231 0.222389
H31   H     H_    0.552078 0.791953 0.895166 0.221025
H32   H     H_    0.646444 0.810777 0.702931 0.196519
H33   H     H_    0.608287 0.895627 0.656687 0.210041
C58   C     C_3   0.403785 0.160020 0.301476 -0.405279
C59   C     C_3   0.432175 0.153429 0.146020 -0.331639
C60   C     C_3   0.378553 0.121015 0.038180 -0.842097
H34   H     H_    0.362228 0.066025 0.076298 0.250470
H35   H     H_    0.332877 0.157531 0.028661 0.261251
H36   H     H_    0.400773 0.115400 0.927487 0.229069
H37   H     H_    0.447756 0.208200 0.104703 0.221044
H38   H     H_    0.478236 0.117377 0.149610 0.222377
H39   H     H_    0.391775 0.104354 0.343140 0.210141
H40   H     H_    0.353555 0.189198 0.297072 0.196468

loop_
_geom_bond_atom_site_label_1
_geom_bond_atom_site_label_2
_ccdc_geom_bond_type
C15   C18   A    
C38   C40   A    
C11   C18   S    
C54   H20   S    
C37   C43   S    
Cu1   Cu2   S    
C58   C59   S    
Cu1   O5    S    
C4    C8    A    
Cu2   O2    S    
C49   C50   S    
C36   C42   S    
C53   H24   S    
C29   H7    S    
C47   N9    T    
C7    C11   A    
C55   C56   S    
C13   C18   A    
C15   H11   S    
C35   C37   A    
C29   C32   A    
C3    C7    A    
C30   C31   A    
C35   C41   S    
C55   H32   S    
C50   H16   S    
C23   H1    S    
C31   C40   S    
C58   H39   S    
C45   N7    T    
C32   C39   S    
Cu1   N1    S    
C4    C46   S    
Cu2   N2    S    
C13   H9    S    
C3    N1    A    
C14   H10   S    
C16   C17   A    
C23   C33   A    
C12   C17   S    
C53   H23   S    
C56   H31   S    
C23   C27   A    
C52   H26   S    
Cu2   O6    S    
C25   C34   A    
C60   H36   S    
C49   H18   S    
C30   H8    S    
C54   H21   S    
C21   C22   T    
C4    N2    A    
C14   C17   A    
C43   N5    T    
C59   C60   S    
C1    C34   S    
C7    C49   S    
C25   C29   A    
C27   C31   A    
C42   N4    T    
C28   C32   A    
Cu1   O3    S    
C1    O4    A    
Cu2   O4    S    
C52   C53   S    
C2    O3    A    
C55   H33   S    
C50   C51   S    
C24   C34   A    
C58   H40   S    
C46   N8    T    
C5    C9    A    
C1    O1    A    
C26   C33   A    
C51   H13   S    
C19   O8    A    
C8    C12   A    
C56   H30   S    
C57   H28   S    
C8    C52   S    
C9    C11   A    
C10   C12   A    
C49   H19   S    
C2    C33   S    
C51   H14   S    
C20   C22   S    
C26   C30   A    
C54   H22   S    
C24   H2    S    
Cu1   O7    S    
C5    C47   S    
C25   H3    S    
C60   H34   S    
C27   H5    S    
C38   C44   S    
C28   H6    S    
C19   C21   S    
C5    N1    A    
C36   C39   A    
C24   C28   A    
C6    N2    A    
C6    C10   A    
Cu2   O8    S    
C2    O2    A    
C10   C58   S    
C20   O7    A    
C36   C38   A    
C35   C40   A    
Cu1   O1    S    
C44   N6    T    
C37   C39   A    
C59   H38   S    
C6    C48   S    
C59   H37   S    
C19   O5    A    
C50   H17   S    
C53   C54   S    
C57   H29   S    
C20   O6    A    
C56   C57   S    
C3    C45   S    
C16   H12   S    
C26   H4    S    
C48   N10   T    
C51   H15   S    
C9    C55   S    
C41   N3    T    
C13   C16   A    
C57   H27   S    
C14   C15   A    
C52   H25   S    
C60   H35   S    
