data_mof_unit_34306.cif
_audit_creation_date              2013-03-05T16:01:46-0500
_audit_creation_method            fapswitch 2.2
_symmetry_space_group_name_H-M    P1
_symmetry_Int_Tables_number       1
_space_group_crystal_system       triclinic
_cell_length_a                    14.741538
_cell_length_b                    14.194875
_cell_length_c                    11.546916
_cell_angle_alpha                 90.107862
_cell_angle_beta                  88.492873
_cell_angle_gamma                 89.78108
_cell_volume                      2415.38344436

loop_
_atom_site_label
_atom_site_type_symbol
_atom_site_description
_atom_site_fract_x
_atom_site_fract_y
_atom_site_fract_z
_atom_type_partial_charge
O1    O     O_R   0.367850 0.580280 0.500030 -0.575504
O2    O     O_R   0.632150 0.419720 0.499970 -0.592857
O3    O     O_R   0.632150 0.580280 0.499970 -0.562507
O4    O     O_R   0.367850 0.419720 0.500030 -0.584476
C1    C     C_R   0.326703 0.500321 0.500187 0.892030
C2    C     C_R   0.673229 0.500267 0.498232 0.888938
O5    O     O_R   0.500010 0.580270 0.334450 -0.577105
O6    O     O_R   0.499990 0.419730 0.665550 -0.582309
O7    O     O_R   0.499990 0.580270 0.665550 -0.569978
O8    O     O_R   0.500010 0.419730 0.334450 -0.579751
C3    C     C_R   0.500066 0.499923 0.282092 0.877579
C4    C     C_R   0.499787 0.500085 0.717911 0.887150
Zn1   Zn    Zn3+2 0.500000 0.607200 0.500000 1.073403
Zn2   Zn    Zn3+2 0.500000 0.392800 0.500000 1.050039
C5    C     C_1   0.500052 0.499811 0.161575 -0.094298
C6    C     C_1   0.499779 0.500220 0.838431 -0.091878
C7    C     C_1   0.499974 0.499920 0.059371 0.053819
C8    C     C_1   0.499846 0.500135 0.940638 0.055266
C9    C     C_R   0.814680 0.519949 0.385910 0.136128
C10   C     C_R   0.182001 0.521630 0.602213 0.118305
C11   C     C_R   0.770344 0.504401 0.493976 -0.032473
C12   C     C_R   0.229555 0.503747 0.497598 -0.034220
C13   C     C_R   0.813678 0.517029 0.599612 0.100717
C14   C     C_R   0.188395 0.508972 0.389277 0.086396
C15   C     C_R   0.903710 0.548725 0.597497 -0.005184
C16   C     C_R   0.096888 0.537972 0.385434 -0.017173
C17   C     C_R   0.952463 0.549571 0.490664 -0.065768
C18   C     C_R   0.047311 0.548713 0.491088 -0.067433
C19   C     C_R   0.907251 0.545806 0.384347 0.076687
C20   C     C_R   0.091417 0.551936 0.598163 0.081361
C21   C     C_R   0.947130 0.582144 0.697311 0.309006
C22   C     C_R   0.052833 0.559608 0.281035 0.317298
C23   C     C_R   0.042418 0.587283 0.696117 0.020786
C24   C     C_R   0.957587 0.568864 0.281815 0.019479
C25   C     C_R   0.559038 0.797613 0.427830 0.351652
C26   C     C_R   0.441659 0.202297 0.573060 0.350038
C27   C     C_R   0.442139 0.798265 0.573775 0.352599
C28   C     C_R   0.558174 0.201652 0.426587 0.346855
N1    N     N_R   0.500000 0.750030 0.500000 -0.205070
N2    N     N_R   0.500000 0.249970 0.500000 -0.207008
C29   C     C_R   0.437671 0.899179 0.572097 -0.108519
C30   C     C_R   0.562296 0.100596 0.427596 -0.109307
C31   C     C_R   0.557122 0.898378 0.421548 -0.106343
C32   C     C_R   0.442880 0.101382 0.578612 -0.109656
C33   C     C_R   0.499123 0.949339 0.498956 -0.021909
C34   C     C_R   0.500616 0.050495 0.500648 -0.024928
C35   C     C_R   0.374924 0.951722 0.642545 0.189000
C36   C     C_R   0.624854 0.047695 0.356809 0.183852
C37   C     C_R   0.612500 0.949860 0.341581 0.182694
C38   C     C_R   0.387243 0.049502 0.658299 0.184080
C39   C     C_3   0.765830 0.497120 0.274837 -0.770847
H1    H     H_    0.809755 0.452806 0.217129 0.248584
H2    H     H_    0.703018 0.456264 0.289706 0.259365
H3    H     H_    0.744556 0.562168 0.230353 0.263204
C40   C     C_3   0.224812 0.492844 0.715128 -0.788326
H4    H     H_    0.259874 0.424250 0.703677 0.285546
H5    H     H_    0.275137 0.545736 0.742324 0.265661
H6    H     H_    0.173750 0.481045 0.785625 0.257961
C41   C     C_3   0.765414 0.486817 0.711411 -0.789994
H7    H     H_    0.813648 0.469040 0.780162 0.262258
H8    H     H_    0.717602 0.542701 0.741961 0.263564
H9    H     H_    0.726494 0.421139 0.697343 0.217996
C42   C     C_3   0.239982 0.472373 0.282551 -0.769507
H10   H     H_    0.289409 0.416695 0.305058 0.225502
H11   H     H_    0.193825 0.437296 0.221810 0.265771
H12   H     H_    0.277676 0.530417 0.239074 0.262341
N3    N     N_R   0.895065 0.622701 0.792008 0.205637
O9    O     O_R   0.832136 0.684686 0.772058 -0.354712
O10   O     O_R   0.912576 0.600607 0.898349 -0.404157
N4    N     N_R   0.104184 0.582005 0.177467 0.196516
O11   O     O_R   0.159672 0.653078 0.176622 -0.380406
O12   O     O_R   0.087871 0.538443 0.081038 -0.400527
C43   C     C_3   0.088570 0.644873 0.787936 -0.692652
H13   H     H_    0.051715 0.712442 0.802314 0.254652
H14   H     H_    0.089713 0.605608 0.870655 0.297365
H15   H     H_    0.158686 0.664512 0.761159 0.261163
C44   C     C_3   0.913727 0.619414 0.182292 -0.661970
H16   H     H_    0.961325 0.668873 0.138169 0.274995
H17   H     H_    0.890312 0.568015 0.117423 0.275056
H18   H     H_    0.857000 0.664715 0.214668 0.242147
N5    N     N_R   0.633665 0.746414 0.376548 0.221688
O13   O     O_R   0.624614 0.700559 0.280047 -0.420455
O14   O     O_R   0.713596 0.753225 0.420974 -0.389992
N6    N     N_R   0.369266 0.254139 0.628176 0.219193
O15   O     O_R   0.380956 0.295871 0.726934 -0.422354
O16   O     O_R   0.288399 0.250476 0.585891 -0.403437
N7    N     N_R   0.399297 0.747140 0.666474 0.223647
O17   O     O_R   0.433054 0.750557 0.769389 -0.384480
O18   O     O_R   0.321882 0.705881 0.652058 -0.437679
N8    N     N_R   0.603359 0.253294 0.336264 0.223079
O19   O     O_R   0.570753 0.252895 0.232648 -0.396419
O20   O     O_R   0.682289 0.290575 0.353029 -0.425261
C45   C     C_3   0.287080 0.908942 0.688732 -0.769177
H19   H     H_    0.234529 0.963616 0.706987 0.230392
H20   H     H_    0.257207 0.863197 0.621858 0.261720
H21   H     H_    0.297999 0.870016 0.770368 0.281950
C46   C     C_3   0.712723 0.089798 0.309852 -0.753683
H22   H     H_    0.764414 0.034853 0.288916 0.227776
H23   H     H_    0.701411 0.130268 0.229498 0.281180
H24   H     H_    0.744182 0.133463 0.377494 0.263302
C47   C     C_3   0.648655 0.905585 0.229862 -0.755381
H25   H     H_    0.660776 0.959360 0.161507 0.231487
H26   H     H_    0.713682 0.868282 0.243755 0.276677
H27   H     H_    0.597267 0.857700 0.193666 0.264242
C48   C     C_3   0.350938 0.092811 0.770473 -0.753491
H28   H     H_    0.336670 0.038432 0.837448 0.229633
H29   H     H_    0.403251 0.138374 0.808782 0.263336
H30   H     H_    0.286959 0.131967 0.756560 0.280817

loop_
_geom_bond_atom_site_label_1
_geom_bond_atom_site_label_2
_geom_bond_distance
_ccdc_geom_bond_type
C15   C21   1.414978 A    
C40   H4    1.106684 S    
C42   H11   1.108685 S    
C16   C22   1.417865 A    
C45   H19   1.110453 S    
C17   C19   1.413236 A    
C43   H13   1.110558 S    
N7    O17   1.301251 A    
O3    C2    1.284962 A    
C46   H22   1.110162 S    
C25   N5    1.430760 S    
C10   C20   1.403346 A    
C44   H16   1.109551 S    
O5    C3    1.289830 A    
C36   C46   1.516312 S    
C48   H29   1.108760 S    
C47   H25   1.110621 S    
O1    C1    1.288946 A    
C9    C11   1.411451 A    
N6    O16   1.301243 A    
C28   C30   1.435611 A    
C24   C44   1.513997 S    
C37   C47   1.517040 S    
C14   C42   1.520580 S    
C30   C34   1.418070 A    
O7    Zn1   1.950141 S    
C46   H23   1.108209 S    
C3    C5    1.391597 S    
C1    C12   1.433839 S    
C4    C6    1.391638 S    
C38   C48   1.516595 S    
C21   C23   1.406570 A    
N4    O11   1.301119 A    
C25   C31   1.432526 A    
O3    Zn1   1.983776 S    
C42   H12   1.109077 S    
C41   H7    1.108408 S    
C45   H20   1.109064 S    
C27   C29   1.433917 A    
C43   H14   1.107257 S    
O2    C2    1.295801 A    
C10   C40   1.519381 S    
N5    O14   1.301292 A    
C32   C34   1.417441 A    
N5    O13   1.299575 A    
C35   C38   1.412543 A    
C44   H17   1.107245 S    
C35   C45   1.516897 S    
C48   H30   1.108415 S    
C41   H8    1.109990 S    
C39   H1    1.109771 S    
C26   N2    1.370301 A    
N6    O15   1.299829 A    
O8    Zn2   1.950142 S    
C31   C37   1.421460 A    
C22   N4    1.435240 S    
C33   C34   1.436254 A    
C2    C11   1.432614 S    
C19   C24   1.420052 A    
N3    O9    1.301372 A    
C39   H2    1.104228 S    
C22   C24   1.409499 A    
C25   N1    1.369877 A    
N8    O20   1.299058 A    
O6    C4    1.289907 A    
C7    C8    1.371056 S    
C29   C35   1.423540 A    
C30   C36   1.426599 A    
C31   C33   1.416296 A    
C23   C43   1.514654 S    
C36   C37   1.412596 A    
C10   C12   1.402862 A    
C45   H21   1.108631 S    
C40   H5    1.108287 S    
C43   H15   1.107882 S    
C12   C14   1.406424 A    
C26   C32   1.434100 A    
O1    Zn1   1.986643 S    
C9    C19   1.414145 A    
C46   H24   1.108471 S    
C47   H26   1.108856 S    
C44   H18   1.109551 S    
C32   C38   1.424478 A    
C5    C7    1.180178 T    
C41   H9    1.110471 S    
O6    Zn2   1.948729 S    
C20   C23   1.415946 A    
C27   N7    1.429025 S    
C14   C16   1.410714 A    
O4    C1    1.292902 A    
C15   C17   1.411351 A    
C48   H28   1.110441 S    
C28   N8    1.427889 S    
C16   C18   1.413246 A    
C39   H3    1.105814 S    
C13   C41   1.520773 S    
C11   C13   1.403241 A    
C27   N1    1.370087 A    
C28   N2    1.370950 A    
N8    O19   1.301069 A    
C26   N6    1.428966 S    
C18   C20   1.412725 A    
C13   C15   1.402639 A    
O4    Zn2   1.983777 S    
O2    Zn2   1.986641 S    
O7    C4    1.289813 A    
Zn1   N1    2.027454 S    
O8    C3    1.289914 A    
C21   N3    1.437460 S    
Zn2   N2    2.027455 S    
C42   H10   1.108788 S    
C9    C39   1.522277 S    
O5    Zn1   1.948731 S    
C6    C8    1.180204 T    
C40   H6    1.107489 S    
C17   C18   1.398346 A    
N7    O18   1.299163 A    
C29   C33   1.416979 A    
N4    O12   1.301003 A    
C47   H27   1.109099 S    
N3    O10   1.300104 A    
