data_mof_unit_49201.cif
_audit_creation_date              2013-03-05T16:16:19-0500
_audit_creation_method            fapswitch 2.2
_symmetry_space_group_name_H-M    P1
_symmetry_Int_Tables_number       1
_space_group_crystal_system       triclinic
_cell_length_a                    8.445837
_cell_length_b                    19.127247
_cell_length_c                    27.14451
_cell_angle_alpha                 98.514047
_cell_angle_beta                  91.482925
_cell_angle_gamma                 86.586752
_cell_volume                      4328.41134256

loop_
_atom_site_label
_atom_site_type_symbol
_atom_site_description
_atom_site_fract_x
_atom_site_fract_y
_atom_site_fract_z
_atom_type_partial_charge
P1    P     P_3+3 0.084800 0.558370 0.611580 0.551806
O1    O     O_2   0.914730 0.537460 0.618690 -0.345932
O2    O     O_3   0.146720 0.537410 0.558510 -0.346972
O3    O     O_3   0.666360 0.409390 0.586570 -0.382137
O4    O     O_2   0.829880 0.438878 0.670869 -0.352321
O5    O     O_3   0.048815 0.650237 0.615147 -0.624906
O6    O     O_3   0.600632 0.356089 0.675511 -0.556275
H1    H     H_    0.784052 0.295183 0.639628 0.181997
C1    C     C_3   0.616122 0.229723 0.666417 -0.505459
H2    H     H_    0.659972 0.235320 0.705706 0.226912
P2    P     P_3+3 0.628800 0.338360 0.458800 0.421622
P3    P     P_3+3 0.113095 0.280493 0.550721 0.472068
O7    O     O_2   0.806150 0.327840 0.473120 -0.348777
O8    O     O_3   0.073640 0.373350 0.561550 -0.392079
O9    O     O_2   0.030489 0.252316 0.500897 -0.334400
O10   O     O_3   0.613003 0.317381 0.392565 -0.588926
O11   O     O_3   0.017960 0.240682 0.595059 -0.575041
C2    C     C_3   0.109572 0.247046 0.639518 1.206778
H3    H     H_    0.238004 0.236805 0.631488 -0.207040
C3    C     C_3   0.066886 0.189293 0.669404 -1.038544
H4    H     H_    0.950729 0.202943 0.687408 0.270366
H5    H     H_    0.062281 0.137664 0.644671 0.242460
C4    C     C_3   0.216298 0.314140 0.399193 0.186133
H6    H     H_    0.323761 0.343834 0.409086 0.129419
H7    H     H_    0.149970 0.309522 0.433054 0.123610
C5    C     C_3   0.269785 0.239131 0.373003 -0.014021
H8    H     H_    0.384220 0.224911 0.391019 0.140160
Ba1   Ba    Ba6+2 0.852670 0.466460 0.522850 1.589574
C6    C     C_3   0.181818 0.687971 0.633576 1.091296
H9    H     H_    0.291876 0.653353 0.630222 0.032524
C7    C     C_3   0.164317 0.717311 0.689079 -1.061610
H10   H     H_    0.040133 0.737089 0.697387 0.256677
H11   H     H_    0.244808 0.761118 0.699723 0.257270
H12   H     H_    0.198034 0.675827 0.712339 0.270725
C8    C     C_3   0.752879 0.320539 0.365458 0.516099
H13   H     H_    0.847969 0.343064 0.389640 0.072599
C9    C     C_3   0.824015 0.246938 0.343401 -0.404347
H14   H     H_    0.846572 0.215483 0.374139 0.223043
H15   H     H_    0.939598 0.254699 0.327190 0.154008
P4    P     P_3+3 0.104900 0.441570 0.388420 0.471935
O12   O     O_2   0.274960 0.462520 0.381280 -0.378107
O13   O     O_3   0.042980 0.462530 0.441480 -0.374663
O14   O     O_3   0.523340 0.590550 0.413420 -0.393798
O15   O     O_3   0.115640 0.349724 0.368497 -0.631818
P5    P     P_3+3 0.093100 0.720291 0.445163 0.495097
O16   O     O_3   0.635780 0.584660 0.526290 -0.417905
O17   O     O_3   0.116060 0.626590 0.438450 -0.312811
O18   O     O_2   0.233721 0.749862 0.477508 -0.356375
O19   O     O_3   0.133134 0.746330 0.387633 -0.531161
Ba2   Ba    Ba6+2 0.337150 0.533490 0.477140 1.590790
P6    P     P_3+3 0.656544 0.431286 0.651877 0.501671
C10   C     C_3   0.654451 0.295175 0.643841 0.354260
H16   H     H_    0.594374 0.292578 0.606779 0.038527
H17   H     H_    0.485643 0.225744 0.666207 0.192801
O20   O     O_3   0.553920 0.415280 0.473710 -0.475435
C11   C     C_3   0.662641 0.657712 0.633832 0.372356
H18   H     H_    0.653394 0.599742 0.624023 0.148250
H19   H     H_    0.777443 0.674585 0.622917 0.123618
C12   C     C_3   0.648546 0.677325 0.689967 -1.012985
H20   H     H_    0.532365 0.662368 0.702211 0.252585
H21   H     H_    0.745119 0.648985 0.708904 0.260614
H22   H     H_    0.658476 0.735233 0.700763 0.268285
P7    P     P_3+3 0.561559 0.672951 0.545941 0.488593
O21   O     O_2   0.383540 0.672140 0.526840 -0.271678
O22   O     O_3   0.540626 0.693214 0.610432 -0.561123
H23   H     H_    0.157644 0.183486 0.699070 0.215793
C13   C     C_3   0.992057 0.757933 0.360367 0.586858
H24   H     H_    0.891350 0.780286 0.384298 0.048514
C14   C     C_3   0.943958 0.688224 0.330769 -0.900447
H25   H     H_    0.906666 0.653424 0.356875 0.225993
H26   H     H_    0.842555 0.697658 0.305295 0.253951
H27   H     H_    0.045435 0.661422 0.308904 0.285683
P8    P     P_3+3 0.537363 0.583343 0.347618 0.484181
C15   C     C_3   0.536295 0.718984 0.373117 0.328726
H28   H     H_    0.650862 0.711807 0.393363 0.034771
O23   O     O_2   0.380145 0.552607 0.326271 -0.368937
O24   O     O_3   0.527189 0.668167 0.330237 -0.567036
H29   H     H_    0.436579 0.715151 0.398271 0.177459
H30   H     H_    0.412607 0.797773 0.335363 0.127357
C16   C     C_3   0.524415 0.792498 0.357546 0.093480
H31   H     H_    0.627720 0.797365 0.333802 0.087869
C17   C     C_R   0.019589 0.455780 0.175456 0.524165
O25   O     O_2   0.017235 0.399635 0.191773 -0.601856
N1    N     N_R   0.978096 0.518558 0.206020 -0.160005
C18   C     C_R   0.979053 0.582091 0.187107 0.534290
C19   C     C_2   0.773391 0.538219 0.269965 -0.249306
C20   C     C_3   0.713604 0.525193 0.319834 0.065554
C21   C     C_1   0.988036 0.488548 0.342263 0.214327
C22   C     C_2   0.035429 0.489293 0.295610 -0.287102
C23   C     C_2   0.925344 0.517112 0.256932 0.161701
C24   C     C_R   0.064734 0.520153 0.105756 -0.077285
C25   C     C_R   0.061936 0.455784 0.125094 -0.047581
C26   C     C_R   0.095785 0.392475 0.093091 -0.134358
C27   C     C_R   0.022772 0.583659 0.137103 -0.057269
C28   C     C_2   0.849542 0.519814 0.356965 0.225241
H32   H     H_    0.154026 0.468840 0.284811 0.193955
H33   H     H_    0.087554 0.341829 0.105929 0.170581
C29   C     C_2   0.372443 0.508086 0.642569 0.183203
C30   C     C_R   0.206678 0.457875 0.974331 -0.142450
C31   C     C_R   0.134155 0.585803 0.983450 0.026194
C32   C     C_R   0.187107 0.521958 0.953275 0.038445
C33   C     C_R   0.284530 0.398243 0.944934 0.575586
C34   C     C_R   0.312858 0.398911 0.894480 -0.238048
C35   C     C_R   0.281446 0.459863 0.872173 -0.086085
C36   C     C_R   0.223641 0.522405 0.901831 -0.122871
C37   C     C_R   0.204643 0.585356 0.880166 -0.255502
C38   C     C_R   0.243205 0.583839 0.829003 0.591115
N2    N     N_R   0.287441 0.520659 0.799345 -0.161948
C39   C     C_R   0.312349 0.459656 0.821058 0.537858
C40   C     C_2   0.470230 0.505687 0.730284 -0.280260
C41   C     C_3   0.515715 0.508034 0.676859 0.085238
C42   C     C_1   0.227106 0.529173 0.659786 -0.060521
C43   C     C_2   0.188002 0.532624 0.707919 0.409554
C44   C     C_2   0.318733 0.518885 0.746119 -0.010659
O26   O     O_2   0.362667 0.404933 0.795927 -0.607112
C45   C     C_R   0.153174 0.456567 0.024051 0.056261
C46   C     C_R   0.107526 0.520922 0.054878 0.080766
C47   C     C_R   0.102118 0.585892 0.035176 0.082759
C48   C     C_R   0.136799 0.392788 0.043634 -0.172194
H34   H     H_    0.564316 0.497233 0.757133 0.171480
H35   H     H_    0.366421 0.351345 0.873205 0.195720
H36   H     H_    0.147731 0.341708 0.020870 0.194026
O27   O     O_2   0.941769 0.637504 0.213751 -0.608244
C49   C     C_R   0.024454 0.647593 0.117731 -0.090829
H37   H     H_    0.690149 0.556435 0.242833 0.171526
H38   H     H_    0.994897 0.697547 0.140957 0.164419
C50   C     C_R   0.114390 0.647687 0.960627 -0.377074
C51   C     C_R   0.145654 0.647799 0.910119 0.677914
O28   O     O_2   0.236155 0.638592 0.810726 -0.528015
C52   C     C_R   0.062975 0.648819 0.068162 -0.216287
H39   H     H_    0.071027 0.697605 0.980738 0.153217
H40   H     H_    0.062976 0.700598 0.057119 0.131178
N3    N     N_R   0.521335 0.959064 0.526755 -0.072870
N4    N     N_R   0.472494 0.027198 0.529023 -0.082319
C53   C     C_2   0.393776 0.286987 0.502985 -0.549768
C54   C     C_3   0.331007 0.256428 0.545460 0.141205
C55   C     C_2   0.379222 0.178191 0.541528 -0.290568
C56   C     C_2   0.512522 0.151904 0.516680 -0.156515
C57   C     C_2   0.595928 0.201130 0.487559 0.536578
C58   C     C_1   0.536016 0.267689 0.486385 0.180886
N5    N     N_R   0.722173 0.052912 0.504302 -0.040496
N6    N     N_R   0.770803 0.984692 0.501727 -0.086509
C59   C     C_R   0.671140 0.935928 0.512512 0.129465
C60   C     C_R   0.571098 0.075776 0.517269 0.170605
C61   C     C_R   0.625546 0.809992 0.524734 -0.211644
C62   C     C_R   0.670252 0.737332 0.518113 0.206494
C63   C     C_R   0.907648 0.758694 0.475958 0.201322
C64   C     C_R   0.865521 0.832013 0.483134 -0.305428
C65   C     C_R   0.722046 0.858589 0.506968 0.110040
C66   C     C_R   0.808895 0.712352 0.493149 -0.401825
H41   H     H_    0.315444 0.145495 0.562810 0.167519
H42   H     H_    0.517293 0.828370 0.544269 0.160569
H43   H     H_    0.942924 0.867646 0.469395 0.153040
H44   H     H_    0.328054 0.331089 0.490445 0.122921
H45   H     H_    0.843262 0.656371 0.488467 0.190498
N7    N     N_2   0.298345 0.239043 0.320197 -0.084782
H46   H     H_    0.207877 0.261670 0.300580 0.217922
C67   C     C_3   0.364106 0.173396 0.292867 -0.917674
H47   H     H_    0.268874 0.136436 0.281461 0.236903
H48   H     H_    0.454016 0.147412 0.315679 0.269518
H49   H     H_    0.420885 0.184619 0.258684 0.255661
N8    N     N_2   0.153818 0.187915 0.379830 -0.105187
H50   H     H_    0.099848 0.164054 0.347770 0.194662
C68   C     C_3   0.199995 0.137492 0.413022 -0.868139
H51   H     H_    0.096053 0.107601 0.419936 0.268940
H52   H     H_    0.242430 0.165278 0.449094 0.274873
H53   H     H_    0.295219 0.099654 0.396064 0.220969
O29   O     O_3   0.205318 0.743041 0.605107 -0.588083
C69   C     C_3   0.069068 0.789371 0.603159 -0.135449
H54   H     H_    0.962963 0.761050 0.588399 0.124089
H55   H     H_    0.092188 0.827245 0.577295 0.160535
H56   H     H_    0.044532 0.821020 0.640126 0.118375
N9    N     N_2   0.723737 0.364357 0.326158 -0.171325
H57   H     H_    0.814333 0.362661 0.301148 0.147884
C70   C     C_3   0.565393 0.370386 0.304566 -0.847450
H58   H     H_    0.482346 0.396568 0.333064 0.289930
H59   H     H_    0.521299 0.318192 0.289382 0.257010
H60   H     H_    0.565549 0.402993 0.273956 0.233439
N10   N     N_2   0.690684 0.166342 0.638539 -0.091638
H61   H     H_    0.689498 0.165270 0.600522 0.213305
C71   C     C_3   0.648030 0.100600 0.653452 -0.831585
H62   H     H_    0.720827 0.055953 0.632875 0.242908
H63   H     H_    0.520695 0.092174 0.644665 0.242041
H64   H     H_    0.670938 0.101266 0.694003 0.255587
N11   N     N_2   0.727934 0.209497 0.304204 -0.071086
H65   H     H_    0.708742 0.236747 0.274440 0.219841
C72   C     C_3   0.788857 0.138150 0.286282 -0.953378
H66   H     H_    0.705208 0.112243 0.258062 0.258951
H67   H     H_    0.801955 0.106084 0.317048 0.249087
H68   H     H_    0.905902 0.139207 0.268656 0.253103
N12   N     N_2   0.019911 0.807456 0.326318 -0.106359
H69   H     H_    0.107076 0.789878 0.300724 0.200510
C73   C     C_3   0.035732 0.879905 0.349548 -0.970227
H70   H     H_    0.048973 0.914070 0.320386 0.252187
H71   H     H_    0.141875 0.883574 0.374635 0.281562
H72   H     H_    0.928487 0.899685 0.371320 0.246247
O30   O     O_3   0.073448 0.314382 0.667440 -0.632102
C74   C     C_3   0.206235 0.338298 0.696002 -0.163150
H73   H     H_    0.300531 0.350704 0.671606 0.133977
H74   H     H_    0.252566 0.299515 0.720320 0.156232
H75   H     H_    0.169390 0.387569 0.720349 0.184024
O31   O     O_3   0.523086 0.844354 0.400356 -0.589876
C75   C     C_3   0.519812 0.912136 0.385609 -0.194046
H76   H     H_    0.416463 0.921108 0.360596 0.127728
H77   H     H_    0.632167 0.920209 0.367297 0.127378
H78   H     H_    0.507814 0.952666 0.419181 0.168160
O32   O     O_3   0.342805 0.339360 0.964944 -0.634656
C76   C     C_3   0.494445 0.352998 0.985904 -0.233307
H79   H     H_    0.488912 0.398542 0.016649 0.143062
H80   H     H_    0.578833 0.362492 0.957071 0.141412
H81   H     H_    0.541485 0.305753 0.001991 0.178993
O33   O     O_3   0.124436 0.710895 0.890969 -0.580329
C77   C     C_3   0.962090 0.722024 0.879198 -0.123413
H82   H     H_    0.888933 0.730489 0.913291 0.102818
H83   H     H_    0.918469 0.677387 0.852200 0.121409
H84   H     H_    0.946434 0.770575 0.861336 0.173972
O34   O     O_3   0.044894 0.568585 0.722851 -0.599676
C78   C     C_3   0.960517 0.533049 0.754955 -0.042159
H85   H     H_    0.000107 0.476587 0.754839 0.106007
H86   H     H_    0.833755 0.535215 0.743571 0.145169
H87   H     H_    0.963874 0.561828 0.793355 0.095015
O35   O     O_3   0.821407 0.539016 0.406602 -0.652517
C79   C     C_3   0.725197 0.488201 0.420542 0.172334
H88   H     H_    0.792395 0.441367 0.427815 0.102226
H89   H     H_    0.628109 0.470252 0.394262 0.077442
H90   H     H_    0.670323 0.511669 0.454955 0.233836
O36   O     O_3   0.404852 0.498383 0.592269 -0.607805
C80   C     C_3   0.356751 0.431143 0.570751 0.284468
H91   H     H_    0.327895 0.395100 0.597509 -0.037235
H92   H     H_    0.447593 0.404357 0.547640 0.123347
H93   H     H_    0.270903 0.434588 0.540289 0.135324
O37   O     O_3   0.725032 0.175515 0.458593 -0.569171
C81   C     C_3   0.672297 0.130482 0.416065 -0.292758
H94   H     H_    0.620605 0.162202 0.388176 0.173179
H95   H     H_    0.583190 0.093201 0.423658 0.118010
H96   H     H_    0.776041 0.097769 0.399798 0.172290

loop_
_geom_bond_atom_site_label_1
_geom_bond_atom_site_label_2
_geom_bond_distance
_ccdc_geom_bond_type
O14   P8    1.777487 S    
C75   H76   1.112790 S    
P7    O22   1.747273 S    
C31   C50   1.414565 A    
Ba2   O21   2.836118 S    
C69   H54   1.109947 S    
C5    N7    1.459405 S    
C79   H88   1.072183 S    
C40   C44   1.357764 D    
C31   C32   1.421246 A    
C38   O28   1.221204 D    
C80   H92   1.061912 S    
C61   C62   1.404775 A    
C78   H85   1.110934 S    
C79   H90   1.078139 S    
C53   C54   1.490005 S    
C70   H59   1.104414 S    
C7    H10   1.110744 S    
N9    H57   1.031884 S    
C11   H18   1.108277 S    
C75   H77   1.111751 S    
Ba1   O16   2.815826 S    
C5    H8    1.109459 S    
C6    H9    1.106343 S    
C53   H44   1.074731 S    
C6    O29   1.421264 S    
C3    H23   1.110291 S    
N7    H46   1.030768 S    
C8    C9    1.539356 S    
O6    C10   1.401322 S    
C2    H3    1.112106 S    
O10   C8    1.416815 S    
C35   C39   1.417849 A    
C13   N12   1.450478 S    
P5    O18   1.542814 D    
C37   C38   1.430404 A    
C11   O22   1.391780 S    
C37   C51   1.413635 A    
C17   C25   1.422002 A    
N2    C39   1.386034 Am   
P1    O1    1.538187 D    
C18   C27   1.420878 A    
C4    C5    1.550900 S    
N2    C44   1.470575 S    
C14   H26   1.109989 S    
C40   C41   1.517501 S    
C42   C43   1.347084 D    
C72   H68   1.111869 S    
C34   C35   1.400045 A    
C67   H49   1.109612 S    
C62   C66   1.391846 A    
C29   O36   1.382690 S    
Ba1   Ba2   4.613563 S    
O2    Ba2   2.755254 S    
C16   O31   1.411496 S    
C63   C64   1.412279 A    
C27   C49   1.401791 A    
C76   H79   1.113306 S    
C73   H71   1.110884 S    
C15   O24   1.405242 S    
C20   C28   1.517035 S    
P3    O11   1.751644 S    
P1    Ba1   3.412841 S    
C4    H6    1.105466 S    
C7    H11   1.110714 S    
O7    Ba1   2.836091 S    
C74   H73   1.106998 S    
P5    O19   1.754635 S    
C70   H60   1.110386 S    
C1    H2    1.111967 S    
H1    C10   1.103495 S    
P7    C62   1.837299 S    
C1    N10   1.449500 S    
C55   C56   1.358930 D    
C21   C22   1.340286 D    
P4    O13   1.533525 S    
C21   C28   1.324884 D    
C12   H20   1.110683 S    
P7    O21   1.577871 D    
C15   C16   1.524102 S    
C19   H37   1.085386 S    
C67   H48   1.108574 S    
C69   H55   1.109208 S    
O30   C74   1.406840 S    
C1    C10   1.527521 S    
N1    C23   1.467582 S    
C74   H75   1.101400 S    
C6    C7    1.535550 S    
C43   O34   1.393585 S    
C35   C36   1.408231 A    
O3    Ba1   2.750226 S    
Ba1   O20   2.972764 S    
O17   Ba2   2.795910 S    
N8    C68   1.445129 S    
O32   C76   1.410724 S    
C71   H63   1.111508 S    
C32   C36   1.439252 A    
C53   C58   1.307081 D    
C9    H15   1.107902 S    
C75   H78   1.108133 S    
C9    N11   1.449945 S    
C12   H21   1.109732 S    
C28   O35   1.366172 S    
C29   C42   1.342667 D    
O31   C75   1.410922 S    
O3    P6    1.763098 S    
C33   C34   1.398406 A    
C8    N9    1.458644 S    
C45   C48   1.416264 A    
O29   C69   1.414777 S    
C63   C66   1.389146 A    
N1    C18   1.387969 Am   
C43   C44   1.533060 S    
C19   C23   1.361873 D    
N5    C60   1.361774 A    
C40   H34   1.085522 S    
C30   C45   1.438476 A    
C19   C20   1.516478 S    
C16   H31   1.114394 S    
C80   H91   1.113397 S    
O34   C78   1.412256 S    
C71   H62   1.110538 S    
C5    N8    1.459699 S    
C4    O15   1.393789 S    
C13   H24   1.109627 S    
P1    O2    1.533770 S    
C8    H13   1.091633 S    
C14   H27   1.110648 S    
C52   H40   1.076401 S    
P2    C58   1.859625 S    
N12   C73   1.447305 S    
C9    H14   1.105087 S    
C47   C52   1.417227 A    
P2    O10   1.786521 S    
C78   H86   1.106706 S    
O36   C80   1.409882 S    
P3    O9    1.544811 D    
C77   H82   1.112522 S    
C38   N2    1.386285 Am   
C73   H72   1.110643 S    
O5    C6    1.411943 S    
C2    O30   1.415076 S    
C24   C46   1.438981 A    
O11   C2    1.410420 S    
C7    H12   1.105208 S    
C49   C52   1.396342 A    
C64   C65   1.419580 A    
C81   H95   1.110311 S    
C57   O37   1.383432 S    
N9    C70   1.451343 S    
O13   Ba2   2.973213 S    
P4    O12   1.538514 D    
C30   C32   1.426481 A    
C3    H5    1.111015 S    
C73   H70   1.110236 S    
C17   N1    1.386700 Am   
C66   H45   1.082369 S    
P3    C54   1.874248 S    
C67   H47   1.110210 S    
C69   H56   1.110089 S    
C31   C47   1.436524 A    
C64   H43   1.082543 S    
C50   C51   1.403224 A    
P8    C20   1.906346 S    
C26   H33   1.083489 S    
O12   Ba2   2.803146 S    
C24   C25   1.409758 A    
C59   C65   1.502497 S    
P2    O20   1.566694 S    
C10   H16   1.110766 S    
C78   H87   1.104874 S    
C49   H38   1.083569 S    
N8    H50   1.029591 S    
C33   O32   1.380968 S    
C48   H36   1.076276 S    
N12   H69   1.032229 S    
C77   H84   1.109212 S    
C68   H51   1.110329 S    
C12   H22   1.110591 S    
P6    C41   1.889079 S    
C29   C41   1.507460 S    
O19   C13   1.410055 S    
C3    H4    1.107247 S    
P5    C63   1.854864 S    
C68   H53   1.110728 S    
C55   H41   1.085433 S    
P3    O8    1.769735 S    
C54   C55   1.516252 S    
C74   H74   1.111835 S    
C57   C58   1.346203 D    
C79   H89   1.108990 S    
O14   Ba2   2.749510 S    
N10   H61   1.028913 S    
C36   C37   1.415328 A    
O16   Ba2   2.971938 S    
Ba2   O20   2.815378 S    
C11   C12   1.520359 S    
O16   P7    1.775938 S    
O8    Ba1   2.795528 S    
P4    C21   1.874872 S    
C22   H32   1.084827 S    
N7    C67   1.448427 S    
C77   H83   1.113534 S    
O6    P6    1.753019 S    
C72   H66   1.110274 S    
P1    C42   1.877169 S    
C70   H58   1.101218 S    
C56   C60   1.511958 S    
N5    N6    1.336750 A    
C51   O33   1.383468 S    
C24   C27   1.408336 A    
P2    O7    1.546716 D    
N11   H65   1.028861 S    
N3    N4    1.336355 A    
N3    C59   1.361654 A    
P2    Ba1   3.423646 S    
C76   H81   1.109175 S    
P4    Ba2   3.413354 S    
C71   H64   1.110981 S    
C68   H52   1.104561 S    
C25   C26   1.401042 A    
P8    O23   1.548162 D    
C11   H19   1.101141 S    
C45   C46   1.421001 A    
C18   O27   1.220943 D    
C2    C3    1.528477 S    
C4    H7    1.105882 S    
C14   H25   1.104804 S    
C81   H96   1.107772 S    
C50   H39   1.076174 S    
C72   H67   1.106651 S    
C61   H42   1.082736 S    
N11   C72   1.447932 S    
C56   C57   1.528341 S    
C39   O26   1.221538 D    
N4    C60   1.361011 A    
H30   C16   1.114329 S    
P4    O15   1.757593 S    
C30   C33   1.427723 A    
P5    O17   1.773885 S    
O33   C77   1.410727 S    
O2    Ba1   2.972259 S    
C76   H80   1.113488 S    
C17   O25   1.222155 D    
C15   H29   1.110315 S    
P1    O5    1.754114 S    
P8    O24   1.752216 S    
N6    C59   1.360614 A    
O4    P6    1.547295 D    
O1    Ba1   2.802676 S    
C1    H17   1.108948 S    
C26   C48   1.396057 A    
C13   C14   1.522729 S    
C22   C23   1.518508 S    
C46   C47   1.421649 A    
O35   C79   1.402487 S    
C80   H93   1.092348 S    
C61   C65   1.415671 A    
C15   H28   1.111821 S    
C81   H94   1.104162 S    
O37   C81   1.413369 S    
N10   C71   1.444682 S    
Ba1   O13   2.754619 S    
C34   H35   1.083903 S    
