data_mof_unit_67901.cif
_audit_creation_date              2012-12-10T17:47:47-0500
_audit_creation_method            fapswitch 2.2
_symmetry_space_group_name_H-M    P1
_symmetry_Int_Tables_number       1
_space_group_crystal_system       triclinic
_cell_length_a                    11.092176
_cell_length_b                    10.978809
_cell_length_c                    10.024235
_cell_angle_alpha                 93.800895
_cell_angle_beta                  92.108743
_cell_angle_gamma                 96.448868
_cell_volume                      1209.14221953

loop_
_atom_site_label
_atom_site_type_symbol
_atom_type_description
_atom_site_fract_x
_atom_site_fract_y
_atom_site_fract_z
_atom_type_partial_charge
C1    C     C_R   0.512174 0.262538 0.497613 0.977735
C2    C     C_R   0.599508 0.091558 0.609998 0.104127
C3    C     C_R   0.542094 0.135417 0.497387 -0.080114
C4    C     C_R   0.264018 0.526183 0.499654 0.924311
C5    C     C_R   0.517889 0.056948 0.384175 0.146305
C6    C     C_R   0.497087 0.932419 0.397099 -0.144629
C7    C     C_R   0.533397 0.880202 0.514379 -0.087513
C8    C     C_R   0.371001 0.299009 0.119601 -0.008541
C9    C     C_R   0.365676 0.181848 0.051298 0.045843
C10   C     C_R   0.405918 0.171529 0.921406 -0.274866
C11   C     C_R   0.406377 0.278839 0.850331 0.212112
C12   C     C_3   0.882450 0.517885 0.503748 -0.179396
C13   C     C_R   0.438749 0.398684 0.918867 0.111196
C14   C     C_R   0.433223 0.403124 0.063363 0.009522
C15   C     C_R   0.579619 0.575665 0.078009 0.035204
C16   C     C_R   0.512356 0.742217 0.505574 0.857272
C17   C     C_R   0.586841 0.563133 0.937907 -0.008865
C18   C     C_R   0.743354 0.505016 0.502094 0.959610
C19   C     C_3   0.074243 0.461784 0.611832 -0.338061
C20   C     C_3   0.936195 0.416477 0.588228 -0.222331
C21   C     C_3   0.087511 0.676153 0.531090 0.201718
C22   C     C_3   0.064739 0.498602 0.353760 -0.300933
C23   C     C_3   0.943450 0.655396 0.552300 -0.072768
C24   C     C_3   0.127838 0.544215 0.497643 -0.225962
C25   C     C_2   0.108962 0.516401 0.758949 1.028572
C26   C     C_2   0.660912 0.808189 0.776288 0.946023
C27   C     C_2   0.665791 0.670959 0.148508 0.991758
C28   C     C_2   0.260373 0.309772 0.190770 1.006888
C29   C     C_2   0.407391 0.045348 0.851438 1.026556
C30   C     C_2   0.914012 0.289618 0.510252 0.959718
C31   C     C_2   0.888041 0.389707 0.726214 0.892325
C32   C     C_2   0.109287 0.561657 0.226176 1.010006
C33   C     C_3   0.925989 0.502391 0.356743 -0.031438
C34   C     C_R   0.658531 0.175106 0.712122 -0.184103
C35   C     C_R   0.715342 0.136676 0.822485 -0.163730
C36   C     C_R   0.729706 0.015541 0.828207 0.182175
C37   C     C_R   0.668178 0.928365 0.732754 -0.055202
C38   C     C_R   0.599666 0.962403 0.619773 0.039688
H1    H     H_    0.902172 0.586005 0.312565 0.261331
H2    H     H_    0.805853 0.727956 0.833110 0.356552
H3    H     H_    0.695265 0.845410 0.227528 0.371157
H4    H     H_    0.079642 0.284163 0.151844 0.359299
H5    H     H_    0.472496 0.964488 0.010930 0.351542
H6    H     H_    0.792765 0.151540 0.434363 0.379157
H7    H     H_    0.932345 0.308305 0.893443 0.374699
H8    H     H_    0.068010 0.653404 0.065036 0.395612
H9    H     H_    0.669483 0.272601 0.706738 0.208016
H10   H     H_    0.752125 0.202480 0.902442 0.200474
H11   H     H_    0.461437 0.875978 0.308868 0.239861
H12   H     H_    0.117800 0.379659 0.601265 0.226759
H13   H     H_    0.666967 0.600182 0.894639 0.200606
H14   H     H_    0.930055 0.669054 0.659498 0.254035
H15   H     H_    0.079625 0.401508 0.339357 0.209432
H16   H     H_    0.218554 0.524359 0.925299 0.370641
I1    I     I_    0.149516 0.810902 0.391752 -0.135058
I2    I     I_    0.846825 0.798509 0.472103 -0.251447
I3    I     I_    0.603286 0.107813 0.210108 -0.335391
I4    I     I_    0.846058 0.972405 0.988797 -0.176648
I5    I     I_    0.252103 0.026961 0.121369 -0.134028
I6    I     I_    0.256949 0.239365 0.709700 -0.063732
I7    I     I_    0.186220 0.788215 0.694637 -0.088515
I8    I     I_    0.839747 0.365352 0.205521 -0.234183
N1    N     N_R   0.498810 0.498800 0.142780 -0.147445
N2    N     N_R   0.498760 0.498720 0.857170 -0.105507
O1    O     O_R   0.500000 0.316780 0.614690 -0.660899
O2    O     O_R   0.208243 0.483237 0.831366 -0.737646
O3    O     O_2   0.582633 0.779761 0.853804 -0.559195
O4    O     O_R   0.753706 0.736576 0.749950 -0.807881
O5    O     O_2   0.774138 0.661025 0.148196 -0.588428
O6    O     O_R   0.626111 0.781789 0.192864 -0.774875
O7    O     O_2   0.252247 0.276241 0.304371 -0.578534
O8    O     O_R   0.156185 0.323342 0.113056 -0.790059
O9    O     O_2   0.382506 0.027280 0.732143 -0.557538
O10   O     O_R   0.436301 0.944267 0.917990 -0.698923
O11   O     O_2   0.997514 0.231610 0.477226 -0.548787
O12   O     O_R   0.499990 0.316750 0.385360 -0.584029
O13   O     O_R   0.795552 0.237435 0.479054 -0.834656
O14   O     O_2   0.827775 0.458400 0.788744 -0.576570
O15   O     O_R   0.937994 0.297544 0.792767 -0.771918
O16   O     O_2   0.215748 0.573195 0.198056 -0.595069
O17   O     O_R   0.026825 0.606712 0.137873 -0.711406
O18   O     O_R   0.314800 0.499990 0.614670 -0.570493
O19   O     O_R   0.314790 0.499970 0.385330 -0.568172
O20   O     O_R   0.500010 0.683250 0.614640 -0.584641
O21   O     O_R   0.500000 0.683220 0.385310 -0.595830
O22   O     O_R   0.685210 0.500030 0.614670 -0.582623
O23   O     O_R   0.685200 0.500010 0.385330 -0.610348
O24   O     O_2   0.044693 0.583889 0.817421 -0.614483
Zn1   Zn    Zn3+2 0.500010 0.500020 0.653130 1.065826
Zn2   Zn    Zn3+2 0.499990 0.499980 0.346870 1.059745

loop_
_geom_bond_atom_site_label_1
_geom_bond_atom_site_label_2
_ccdc_geom_bond_type
C35   C36   A    
C19   H12   S    
C17   H13   S    
C23   I2    S    
C20   C30   S    
O1    Zn1   S    
C32   O17   S    
C13   N2    A    
C12   C23   S    
C18   O22   A    
O18   Zn1   S    
C22   C32   S    
C26   O3    D    
H6    O13   S    
C36   I4    S    
C17   N2    A    
C5    C6    A    
C4    C24   S    
C29   O9    D    
C16   O20   A    
C34   C35   A    
C22   C33   S    
C30   O13   S    
C19   C20   S    
C8    C9    A    
C1    O1    A    
C9    C10   A    
C21   I7    S    
C27   O5    D    
C2    C34   A    
H5    O10   S    
C13   C14   A    
C28   O8    S    
N2    Zn1   S    
C35   H10   S    
C22   H15   S    
C21   I1    S    
C33   I8    S    
C29   O10   S    
C25   O24   D    
C1    C3    S    
C37   C38   A    
C32   O16   D    
H8    O17   S    
C2    C38   A    
C15   C27   S    
C12   C20   S    
H4    O8    S    
H7    O15   S    
C33   H1    S    
C27   O6    S    
C7    C16   S    
C21   C23   S    
C16   O21   A    
C8    C28   S    
C22   C24   S    
C21   C24   S    
C28   O7    D    
O20   Zn1   S    
C11   I6    S    
C31   O14   D    
C15   C17   A    
O19   Zn2   S    
C36   C37   A    
C8    C14   A    
C1    O12   A    
C25   O2    S    
C3    C5    A    
O22   Zn1   S    
O21   Zn2   S    
C26   C37   S    
C31   O15   S    
C6    C7    A    
H16   O2    S    
C18   O23   A    
C5    I3    S    
C26   O4    S    
C2    C3    A    
C30   O11   D    
C11   C13   A    
C10   C29   S    
C23   H14   S    
C4    O19   A    
C14   N1    A    
N1    Zn2   S    
C7    C38   A    
C19   C24   S    
C6    H11   S    
C19   C25   S    
C10   C11   A    
C4    O18   A    
H2    O4    S    
O23   Zn2   S    
C12   C18   S    
C15   N1    A    
C34   H9    S    
C9    I5    S    
C12   C33   S    
O12   Zn2   S    
H3    O6    S    
C20   C31   S    
