data_mof_unit_27345.cif
_audit_creation_date              2012-12-11T16:58:13-0500
_audit_creation_method            fapswitch 2.2
_symmetry_space_group_name_H-M    P1
_symmetry_Int_Tables_number       1
_space_group_crystal_system       triclinic
_cell_length_a                    16.950872
_cell_length_b                    7.271257
_cell_length_c                    16.810907
_cell_angle_alpha                 89.999942
_cell_angle_beta                  100.312361
_cell_angle_gamma                 90.000086
_cell_volume                      2038.54359533

loop_
_atom_site_label
_atom_site_type_symbol
_atom_type_description
_atom_site_fract_x
_atom_site_fract_y
_atom_site_fract_z
_atom_type_partial_charge
O1    O     O_R   0.413450 0.494370 0.415710 -0.543057
O2    O     O_R   0.586550 0.994370 0.584290 -0.543057
O3    O     O_R   0.578420 0.819350 0.429360 -0.547667
O4    O     O_R   0.421580 0.319350 0.570640 -0.547667
C1    C     C_R   0.604555 0.656639 0.413521 0.742822
C2    C     C_R   0.395445 0.156639 0.586479 0.742823
O5    O     O_R   0.413570 0.823780 0.406240 -0.542653
O6    O     O_R   0.586430 0.323780 0.593760 -0.542653
O7    O     O_R   0.420530 0.998740 0.561000 -0.513019
O8    O     O_R   0.579470 0.498740 0.439000 -0.513019
C3    C     C_R   0.386629 0.655050 0.383194 0.686240
C4    C     C_R   0.613371 0.155050 0.616806 0.686241
O9    O     O_3   0.502480 0.662320 0.550800 -0.377205
O10   O     O_3   0.497520 0.162320 0.449200 -0.377205
V1    V     V_3+5 0.499540 0.935370 0.490580 1.432154
V2    V     V_3+5 0.500460 0.435370 0.509420 1.432154
C5    C     C_R   0.730105 0.985667 0.699203 0.057977
C6    C     C_R   0.269894 0.485667 0.300797 0.057977
C7    C     C_R   0.683297 0.145190 0.684254 -0.113801
C8    C     C_R   0.316703 0.645190 0.315746 -0.113801
C9    C     C_R   0.708577 0.299003 0.733042 -0.184091
C10   C     C_R   0.291422 0.799003 0.266958 -0.184091
H1    H     H_    0.674491 0.424679 0.724556 0.177756
H2    H     H_    0.325509 0.924679 0.275444 0.177757
C11   C     C_R   0.775045 0.288610 0.796738 -0.174965
C12   C     C_R   0.224955 0.788610 0.203262 -0.174965
H3    H     H_    0.789647 0.407771 0.835015 0.142023
H4    H     H_    0.210353 0.907771 0.164985 0.142022
C13   C     C_R   0.818886 0.123553 0.813735 -0.096399
C14   C     C_R   0.181114 0.623553 0.186265 -0.096399
C15   C     C_R   0.797011 0.976093 0.760825 0.058529
C16   C     C_R   0.202989 0.476093 0.239175 0.058530
C17   C     C_3   0.782315 0.779647 0.778760 -0.388321
C18   C     C_3   0.217685 0.279647 0.221240 -0.388319
C19   C     C_3   0.707552 0.790537 0.713459 0.017309
C20   C     C_3   0.292447 0.290537 0.286542 0.017308
H5    H     H_    0.770223 0.758983 0.841060 0.182065
H6    H     H_    0.229777 0.258983 0.158940 0.182065
H7    H     H_    0.829333 0.688403 0.761994 0.144900
H8    H     H_    0.170666 0.188404 0.238006 0.144899
H9    H     H_    0.709104 0.699264 0.660665 0.124142
H10   H     H_    0.290895 0.199264 0.339335 0.124141
C21   C     C_R   0.333126 0.159377 0.638826 -0.086754
C22   C     C_R   0.666874 0.659379 0.361174 -0.086759
C23   C     C_R   0.168367 0.108426 0.864422 -0.059208
C24   C     C_R   0.831633 0.608424 0.135578 -0.059209
C25   C     C_R   0.276992 0.934625 0.821910 -0.181344
C26   C     C_R   0.723012 0.434615 0.178095 -0.181345
C27   C     C_R   0.223251 0.961563 0.874780 -0.151171
C28   C     C_R   0.776752 0.461555 0.125223 -0.151171
C29   C     C_R   0.170528 0.233492 0.801390 -0.214860
C30   C     C_R   0.829469 0.733497 0.198608 -0.214860
C31   C     C_R   0.224288 0.206615 0.747135 0.124188
C32   C     C_R   0.775711 0.706619 0.252864 0.124189
C33   C     C_R   0.276924 0.052654 0.755529 0.060296
C34   C     C_R   0.723078 0.552651 0.244473 0.060297
C35   C     C_R   0.329758 0.025608 0.698968 0.275097
C36   C     C_R   0.670245 0.525604 0.301034 0.275097
C37   C     C_R   0.280103 0.309958 0.631961 -0.242852
C38   C     C_R   0.719894 0.809967 0.368036 -0.242849
C39   C     C_R   0.225894 0.331982 0.684484 -0.196712
C40   C     C_R   0.774102 0.831991 0.315512 -0.196715
H11   H     H_    0.280976 0.413092 0.585597 0.144406
H12   H     H_    0.719020 0.913105 0.414398 0.144408
H13   H     H_    0.318351 0.820779 0.834356 0.130467
H14   H     H_    0.681655 0.320763 0.165651 0.130470
H15   H     H_    0.186249 0.450095 0.677070 0.128076
H16   H     H_    0.813745 0.950110 0.322923 0.128074
H17   H     H_    0.223868 0.864574 0.923838 0.124589
H18   H     H_    0.776136 0.364561 0.076167 0.124591
H19   H     H_    0.128615 0.347460 0.792818 0.118208
H20   H     H_    0.871381 0.847470 0.207177 0.118209
O11   O     O_R   0.920630 0.775410 0.061150 -0.533447
O12   O     O_R   0.079370 0.275410 0.938850 -0.533447
O13   O     O_R   0.086500 0.441450 0.093690 -0.536902
O14   O     O_R   0.913500 0.941450 0.906310 -0.536902
C41   C     C_R   0.113963 0.610272 0.116157 0.685513
C42   C     C_R   0.886037 0.110272 0.883843 0.685512
O15   O     O_R   0.921670 0.445960 0.070740 -0.539828
O16   O     O_R   0.078330 0.945960 0.929260 -0.539827
O17   O     O_R   0.913380 0.271130 0.915780 -0.540470
O18   O     O_R   0.086620 0.771130 0.084220 -0.540470
C43   C     C_R   0.895574 0.612848 0.085567 0.683530
C44   C     C_R   0.104425 0.112849 0.914433 0.683529
O19   O     O_3   0.997500 0.603030 0.949220 -0.376613
O20   O     O_3   0.002500 0.103030 0.050780 -0.376613
V3    V     V_3+5 0.000470 0.329940 0.009420 1.394892
V4    V     V_3+5 0.999530 0.829940 0.990580 1.394892
N1    N     N_3   0.634081 0.772419 0.747633 -0.654331
H21   H     H_    0.629329 0.880734 0.787529 0.249829
H22   H     H_    0.584688 0.779627 0.700742 0.270443
N2    N     N_3   0.365918 0.272418 0.252367 -0.654332
H23   H     H_    0.370672 0.380734 0.212473 0.249828
H24   H     H_    0.415312 0.279623 0.299259 0.270442
O21   O     O_3   0.380726 0.876510 0.702947 -0.643631
H25   H     H_    0.352955 0.767569 0.719918 0.283852
O22   O     O_3   0.619280 0.376499 0.297059 -0.643627
H26   H     H_    0.647056 0.267557 0.280093 0.283849

loop_
_geom_bond_atom_site_label_1
_geom_bond_atom_site_label_2
_ccdc_geom_bond_type
C14   C16   A    
C20   H10   S    
O21   H25   S    
O1    C3    A    
O16   C44   A    
O2    C4    A    
C2    O7    A    
O15   V3    S    
O22   H26   S    
C25   C27   A    
O5    C3    A    
C17   H7    S    
C18   H8    S    
C25   H13   S    
C7    C9    A    
O14   C42   A    
C23   C29   A    
C24   C30   A    
C38   C40   A    
C17   C19   S    
C14   C41   S    
C31   C39   A    
C13   C42   S    
C22   C36   A    
C15   C17   S    
O12   V3    S    
N1    H22   S    
O14   V4    S    
C18   C20   S    
C21   C37   A    
C20   N2    S    
C26   C28   A    
O6    V2    S    
C27   H17   S    
C36   O22   S    
C29   H19   S    
C30   C32   A    
C31   C33   A    
C11   C13   A    
C32   C34   A    
C3    C8    S    
C37   C39   A    
O4    C2    A    
O20   V3    S    
C32   C40   A    
C17   H5    S    
C29   C31   A    
C16   C18   S    
O4    V2    S    
O11   V4    S    
C30   H20   S    
C39   H15   S    
C23   C27   A    
O6    C4    A    
N2    H24   S    
O1    V2    S    
O2    V1    S    
O13   C41   A    
O17   V3    S    
C19   N1    S    
O13   V3    S    
C1    C22   S    
C8    C10   A    
C12   C14   A    
C2    C21   S    
C33   C35   A    
C10   C12   A    
C5    C15   A    
C10   H2    S    
C23   C44   S    
C6    C16   A    
O3    V1    S    
C25   C33   A    
O19   V4    S    
C26   C34   A    
C9    C11   A    
C18   H6    S    
C37   H11   S    
O12   C44   A    
O3    C1    A    
C11   H3    S    
C24   C28   A    
C12   H4    S    
C40   H16   S    
C38   H12   S    
C9    H1    S    
C28   H18   S    
C1    O8    A    
C13   C15   A    
O8    V2    S    
O15   C43   A    
C42   O17   A    
C41   O18   A    
C22   C38   A    
O18   V4    S    
C4    C7    S    
O5    V1    S    
N2    H23   S    
C5    C7    A    
C34   C36   A    
C6    C8    A    
O7    V1    S    
C19   H9    S    
C21   C35   A    
C24   C43   S    
O16   V4    S    
C35   O21   S    
O9    V2    S    
O10   V1    S    
C5    C19   S    
C26   H14   S    
N1    H21   S    
C6    C20   S    
O11   C43   A    
