data_mof_unit_13529.cif
_audit_creation_date              2013-03-05T15:51:40-0500
_audit_creation_method            fapswitch 2.2
_symmetry_space_group_name_H-M    P1
_symmetry_Int_Tables_number       1
_space_group_crystal_system       triclinic
_cell_length_a                    10.68873
_cell_length_b                    10.8638
_cell_length_c                    9.670654
_cell_angle_alpha                 92.165025
_cell_angle_beta                  88.46319
_cell_angle_gamma                 93.538495
_cell_volume                      1119.67995986

loop_
_atom_site_label
_atom_site_type_symbol
_atom_site_description
_atom_site_fract_x
_atom_site_fract_y
_atom_site_fract_z
_atom_type_partial_charge
O1    O     O_R   0.499990 0.319640 0.618810 -0.595073
O2    O     O_R   0.500000 0.319660 0.381240 -0.561180
C1    C     C_R   0.504392 0.262409 0.498146 0.768389
O3    O     O_R   0.316850 0.499960 0.618770 -0.557191
O4    O     O_R   0.316860 0.499980 0.381190 -0.610173
C2    C     C_R   0.260053 0.500710 0.501439 0.833402
Cu1   Cu    Cu3+1 0.499990 0.499990 0.640660 0.980963
Cu2   Cu    Cu3+1 0.500010 0.500010 0.359340 1.027481
O5    O     O_R   0.500000 0.680340 0.618760 -0.616191
O6    O     O_R   0.500010 0.680360 0.381190 -0.580657
O7    O     O_R   0.683140 0.500020 0.618810 -0.613088
O8    O     O_R   0.683150 0.500040 0.381230 -0.503136
C3    C     C_R   0.488082 0.736461 0.503210 0.864438
C4    C     C_R   0.740751 0.501847 0.499172 0.873632
C5    C     C_3   0.033678 0.398547 0.555365 -0.204439
C6    C     C_3   0.955814 0.407557 0.423497 -0.101493
H1    H     H_    0.916487 0.328551 0.358916 0.187694
H2    H     H_    0.062770 0.311958 0.598970 0.180139
C7    C     C_3   0.878548 0.505114 0.499491 -0.032089
C8    C     C_3   0.954104 0.495947 0.632146 -0.167577
C9    C     C_3   0.045185 0.598264 0.578200 0.315318
C10   C     C_3   0.969014 0.610533 0.448465 -0.124687
C11   C     C_3   0.047951 0.512713 0.372127 -0.151136
C12   C     C_3   0.123900 0.503313 0.503742 -0.117307
H3    H     H_    0.915781 0.492290 0.739892 0.202024
H4    H     H_    0.952645 0.702326 0.409318 0.228828
H5    H     H_    0.087282 0.519317 0.265039 0.190745
H6    H     H_    0.427663 0.101359 0.294135 0.183717
C13   C     C_R   0.598427 0.125515 0.731739 -0.118313
C14   C     C_R   0.570957 0.087464 0.867201 0.324516
C15   C     C_R   0.496577 0.977598 0.883579 -0.249981
H7    H     H_    0.470765 0.945730 0.985771 0.178909
C16   C     C_R   0.465209 0.901579 0.767988 -0.175426
H8    H     H_    0.415306 0.814157 0.786368 0.225357
C17   C     C_R   0.490855 0.943203 0.633028 0.085004
C18   C     C_R   0.534355 0.066567 0.619532 -0.011563
C19   C     C_R   0.506882 0.127201 0.497432 -0.077345
C20   C     C_R   0.458457 0.057277 0.384489 -0.086586
H9    H     H_    0.424938 0.876705 0.293492 0.149286
C21   C     C_R   0.449941 0.929264 0.387205 -0.119710
C22   C     C_R   0.471668 0.870126 0.510119 -0.057770
H10   H     H_    0.377696 0.341988 0.125257 0.127025
C23   C     C_R   0.644274 0.695887 0.137626 0.269806
C24   C     C_R   0.683914 0.800141 0.061072 0.239879
C25   C     C_R   0.693508 0.785658 0.919015 -0.287357
H11   H     H_    0.741697 0.856074 0.857445 0.228541
C26   C     C_R   0.644923 0.679675 0.853855 -0.199313
H12   H     H_    0.667436 0.673354 0.746651 0.235509
C27   C     C_R   0.570129 0.590696 0.925072 0.183221
C28   C     C_R   0.569703 0.594173 0.074088 0.061523
N1    N     N_R   0.501210 0.501210 0.147910 -0.188704
C29   C     C_R   0.432715 0.413475 0.072163 0.039698
H13   H     H_    0.376306 0.343005 0.869264 0.129028
C30   C     C_R   0.432092 0.414055 0.924912 0.009855
N2    N     N_R   0.501250 0.501290 0.852040 -0.189177
N3    N     N_R   0.734134 0.672093 0.236164 0.155804
O9    O     O_R   0.743493 0.740676 0.349100 -0.377250
O10   O     O_R   0.829891 0.611631 0.192557 -0.369311
N4    N     N_R   0.745673 0.907914 0.126706 0.188308
O11   O     O_R   0.706350 0.949511 0.246918 -0.287943
O12   O     O_R   0.834573 0.971478 0.061658 -0.298284
N5    N     N_R   0.089962 0.704406 0.663508 0.128545
O13   O     O_R   0.009730 0.774249 0.725689 -0.334725
O14   O     O_R   0.209122 0.734234 0.671639 -0.395824
C31   C     C_1   0.709852 0.202512 0.703361 0.404600
N6    N     N_1   0.800792 0.261991 0.681213 -0.284154
N7    N     N_R   0.616010 0.158965 0.986729 0.136468
O15   O     O_R   0.676074 0.266079 0.974637 -0.342319
O16   O     O_R   0.586820 0.122716 0.110384 -0.351179

loop_
_geom_bond_atom_site_label_1
_geom_bond_atom_site_label_2
_geom_bond_distance
_ccdc_geom_bond_type
O1    C1    1.302413 A    
C5    H2    1.110184 S    
C20   C21   1.389270 A    
C11   C12   1.537840 S    
C15   C16   1.400064 A    
C23   C28   1.449196 A    
C21   C22   1.403750 A    
C13   C14   1.406597 A    
C11   H5    1.110363 S    
O4    Cu2   1.963351 S    
C15   H7    1.082627 S    
C7    C8    1.543708 S    
Cu2   N1    2.044892 S    
Cu1   N2    2.044099 S    
C14   C15   1.404328 A    
Cu2   O8    1.974562 S    
C2    C12   1.456881 S    
C8    C9    1.529215 S    
N5    O13   1.300368 A    
C3    C22   1.472202 S    
C16   H8    1.078540 S    
O8    C4    1.309525 A    
N4    O11   1.299961 A    
C26   C27   1.404719 A    
C27   N2    1.368228 A    
H13   C30   1.081651 S    
C24   C25   1.378644 A    
Cu1   O7    1.963350 S    
C13   C18   1.410613 A    
C9    N5    1.456187 S    
C19   C20   1.398933 A    
C25   C26   1.371622 A    
C6    C7    1.536899 S    
C13   C31   1.438859 S    
C5    C6    1.550780 S    
C9    C10   1.528243 S    
C5    C12   1.535007 S    
C16   C17   1.411790 A    
N3    O10   1.302222 A    
O2    C1    1.314071 A    
C6    C11   1.549030 S    
Cu1   O5    1.978630 S    
O3    Cu1   1.974563 S    
C23   C24   1.413391 A    
O4    C2    1.297334 A    
C17   C22   1.416612 A    
O7    C4    1.296225 A    
N4    O12   1.302024 A    
O3    C2    1.301670 A    
C6    H1    1.110175 S    
C8    H3    1.110535 S    
C24   N4    1.442353 S    
N7    O15   1.301535 A    
C26   H12   1.058640 S    
C25   H11   1.083679 S    
C23   N3    1.412726 S    
Cu1   Cu2   2.720551 S    
C7    C10   1.539647 S    
N1    C29   1.367822 A    
N3    O9    1.301203 A    
C1    C19   1.470510 S    
Cu2   O6    1.962695 S    
C31   N6    1.153267 T    
C10   H4    1.105445 S    
C9    C12   1.519526 S    
H10   C29   1.081745 S    
H9    C21   1.083435 S    
C27   C28   1.440041 A    
O5    C3    1.305878 A    
C30   N2    1.370123 A    
C18   C19   1.419736 A    
N5    O14   1.298431 A    
C28   N1    1.414483 A    
H6    C20   1.080596 S    
O1    Cu1   1.962695 S    
C4    C7    1.471194 S    
O6    C3    1.314278 A    
C10   C11   1.550539 S    
O2    Cu2   1.978632 S    
C14   N7    1.444740 S    
C29   C30   1.424462 A    
C5    C8    1.553153 S    
N7    O16   1.297235 A    
C17   C18   1.400861 A    
