data_mof_unit_43783.cif
_audit_creation_date              2013-03-05T15:55:17-0500
_audit_creation_method            fapswitch 2.2
_symmetry_space_group_name_H-M    P1
_symmetry_Int_Tables_number       1
_space_group_crystal_system       triclinic
_cell_length_a                    6.947143
_cell_length_b                    16.782566
_cell_length_c                    17.14059
_cell_angle_alpha                 100.427588
_cell_angle_beta                  90.095624
_cell_angle_gamma                 90.506033
_cell_volume                      1965.34376518

loop_
_atom_site_label
_atom_site_type_symbol
_atom_site_description
_atom_site_fract_x
_atom_site_fract_y
_atom_site_fract_z
_atom_type_partial_charge
O1    O     O_R   0.494370 0.415690 0.413450 -0.616080
O2    O     O_R   0.819420 0.429360 0.578420 -0.592740
O3    O     O_R   0.994280 0.584310 0.586550 -0.582830
C1    C     C_R   0.650208 0.413014 0.604237 1.023488
O4    O     O_R   0.823790 0.406230 0.413570 -0.589060
O5    O     O_R   0.998670 0.561000 0.420530 -0.580718
C2    C     C_R   0.652857 0.382219 0.385489 1.020135
O6    O     O_R   0.489970 0.439000 0.579470 -0.606296
O7    O     O_3   0.662300 0.550810 0.502470 -0.241192
V1    V     V_3+5 0.935380 0.490570 0.499540 1.218841
O8    O     O_R   0.328650 0.570640 0.421580 -0.580449
C3    C     C_R   0.159190 0.585470 0.394278 1.032276
O9    O     O_R   0.324290 0.593770 0.586430 -0.561525
C4    C     C_R   0.156113 0.617373 0.614751 0.955244
V2    V     V_3+5 0.435930 0.509430 0.500460 1.237510
O10   O     O_3   0.159140 0.449190 0.497530 -0.306959
C5    C     C_R   0.290844 0.747616 0.697700 0.388940
C6    C     C_R   0.276998 0.810642 0.763617 -0.257995
H1    H     H_    0.387374 0.857426 0.772572 0.144988
C7    C     C_R   0.120803 0.815103 0.816210 -0.174969
C8    C     C_R   0.977801 0.754587 0.801963 -0.107000
H2    H     H_    0.855870 0.756215 0.841485 0.163139
C9    C     C_R   0.991903 0.690656 0.737045 -0.084789
H3    H     H_    0.880667 0.644254 0.728727 0.158668
C10   C     C_R   0.147706 0.685949 0.683856 -0.305025
C11   C     C_R   0.140708 0.633215 0.329057 -0.282024
C12   C     C_R   0.123995 0.860675 0.165923 -0.298508
C13   C     C_R   0.301390 0.831195 0.280585 -0.123161
C14   C     C_R   0.265972 0.880871 0.225031 -0.149326
C15   C     C_R   0.015033 0.788491 0.163495 0.310862
C16   C     C_R   0.055570 0.736472 0.218633 -0.020321
C17   C     C_R   0.199285 0.758415 0.277593 0.180973
C18   C     C_R   0.239567 0.707279 0.332614 -0.244225
C19   C     C_R   0.005135 0.609159 0.267112 0.365049
C20   C     C_R   0.961974 0.661154 0.213924 -0.223195
H4    H     H_    0.344135 0.726093 0.379512 0.159928
H5    H     H_    0.411971 0.849094 0.325131 0.133669
H6    H     H_    0.858992 0.640635 0.167020 0.208310
H7    H     H_    0.351167 0.935758 0.228112 0.139347
C21   C     C_R   0.640283 0.362277 0.666785 -0.269677
C22   C     C_R   0.626202 0.138209 0.834603 -0.194460
C23   C     C_R   0.666730 0.147118 0.695941 -0.159212
C24   C     C_R   0.655807 0.100188 0.755185 0.078475
C25   C     C_R   0.613275 0.224311 0.854130 0.042611
C26   C     C_R   0.622090 0.271169 0.792057 0.117680
C27   C     C_R   0.641992 0.231419 0.712099 -0.006633
C28   C     C_R   0.640389 0.276447 0.649155 0.297048
C29   C     C_R   0.625455 0.401082 0.745847 -0.210071
C30   C     C_R   0.612438 0.356692 0.807229 -0.170755
H8    H     H_    0.621147 0.466647 0.760203 0.136632
H9    H     H_    0.697152 0.116115 0.636350 0.186793
H10   H     H_    0.596125 0.390991 0.866450 0.143956
C31   C     C_R   0.797723 0.293027 0.267926 -0.106832
H11   H     H_    0.929708 0.327204 0.279977 0.171906
C32   C     C_R   0.791687 0.229677 0.202467 -0.153026
H12   H     H_    0.920073 0.216100 0.166940 0.133048
C33   C     C_R   0.621254 0.185355 0.182523 -0.152778
C34   C     C_R   0.458318 0.205440 0.229188 -0.196473
H13   H     H_    0.327367 0.170317 0.214416 0.127396
C35   C     C_R   0.462098 0.267622 0.296186 0.212489
C36   C     C_R   0.636088 0.313133 0.316615 -0.148315
O11   O     O_R   0.774880 0.061150 0.920630 -0.600067
O12   O     O_R   0.440980 0.093710 0.086500 -0.605956
O13   O     O_R   0.266190 0.938890 0.079390 -0.586276
C37   C     C_R   0.610678 0.117266 0.114234 0.922917
O14   O     O_R   0.445420 0.070740 0.921670 -0.603876
O15   O     O_R   0.270660 0.915760 0.913380 -0.596122
C38   C     C_R   0.614721 0.087560 0.896729 0.933257
O16   O     O_R   0.770400 0.084270 0.086640 -0.605637
O17   O     O_3   0.602590 0.949210 0.997500 -0.242781
V3    V     V_3+5 0.329470 0.009420 0.000470 1.169018
O18   O     O_R   0.940650 0.906250 0.913470 -0.588617
C39   C     C_R   0.109319 0.883108 0.885053 0.982824
O19   O     O_R   0.936210 0.929220 0.078300 -0.561121
C40   C     C_R   0.105813 0.913022 0.104498 1.015673
V4    V     V_3+5 0.828930 0.990510 0.999490 1.203814
O20   O     O_3   0.105680 0.050790 0.002500 -0.295225
N1    N     N_R   0.445107 0.750205 0.643088 0.222720
O21   O     O_R   0.597464 0.706713 0.647158 -0.415841
O22   O     O_R   0.450446 0.807516 0.601200 -0.448157
N2    N     N_R   0.870182 0.766457 0.103500 0.229666
O23   O     O_R   0.690690 0.760700 0.123492 -0.393866
O24   O     O_R   0.916538 0.754447 0.028799 -0.415928
N3    N     N_R   0.623272 0.234711 0.568386 0.202419
O25   O     O_R   0.499458 0.175624 0.550027 -0.458897
O26   O     O_R   0.717464 0.259584 0.511920 -0.512959
C41   C     C_3   0.670674 0.008961 0.729794 -0.396990
C42   C     C_3   0.878563 0.983759 0.708373 -0.315608
C43   C     C_3   0.886516 0.895895 0.665575 -0.743651
H14   H     H_    0.819825 0.855272 0.702474 0.277751
H15   H     H_    0.808856 0.888707 0.608014 0.282979
H16   H     H_    0.038574 0.878201 0.653540 0.243889
H17   H     H_    0.942674 0.022620 0.668964 0.212029
H18   H     H_    0.966808 0.991036 0.763421 0.201512
H19   H     H_    0.618700 0.975782 0.776195 0.169591
H20   H     H_    0.574764 0.989652 0.677604 0.220654
C44   C     C_3   0.590367 0.264964 0.940685 -0.425733
C45   C     C_3   0.378838 0.285393 0.959882 -0.285185
C46   C     C_3   0.354233 0.325410 0.046563 -0.799616
H21   H     H_    0.402274 0.284014 0.086269 0.253665
H22   H     H_    0.439262 0.382657 0.059699 0.277024
H23   H     H_    0.200061 0.339533 0.058568 0.250555
H24   H     H_    0.324070 0.326949 0.921503 0.204610
H25   H     H_    0.290383 0.228934 0.948220 0.217025
H26   H     H_    0.643070 0.225642 0.981575 0.168274
H27   H     H_    0.683231 0.319847 0.954614 0.193517
C47   C     C_3   0.279191 0.278190 0.344779 -0.516088
C48   C     C_3   0.305258 0.247833 0.422816 -0.229118
C49   C     C_3   0.113743 0.239934 0.463323 -0.698486
H28   H     H_    0.043470 0.299826 0.475660 0.288557
H29   H     H_    0.018965 0.195478 0.424982 0.254126
H30   H     H_    0.136875 0.218997 0.520418 0.262281
H31   H     H_    0.375162 0.187518 0.411182 0.245486
H32   H     H_    0.395951 0.291153 0.463540 0.249178
H33   H     H_    0.228421 0.341583 0.354188 0.241987
H34   H     H_    0.161042 0.241686 0.311808 0.183277
N4    N     N_R   0.916523 0.530222 0.255247 0.230522
O27   O     O_R   0.741812 0.519443 0.227581 -0.406659
O28   O     O_R   0.019766 0.467245 0.260880 -0.455127

loop_
_geom_bond_atom_site_label_1
_geom_bond_atom_site_label_2
_geom_bond_distance
_ccdc_geom_bond_type
C21   C28   1.417277 A    
O14   C38   1.298183 A    
C41   C42   1.534884 S    
O12   C37   1.301531 A    
C12   C14   1.407350 A    
O18   V4    2.011090 S    
N2    O23   1.301126 A    
C26   C27   1.419080 A    
O19   V4    1.987821 S    
C13   C14   1.397336 A    
N3    O26   1.297201 A    
C6    H1    1.083219 S    
C49   H29   1.111066 S    
O5    C3    1.294293 A    
C15   C16   1.427169 A    
N1    O22   1.300553 A    
C34   C35   1.405043 A    
C45   H24   1.110795 S    
C18   H4    1.084309 S    
C48   C49   1.517603 S    
O16   V4    2.008794 S    
C19   C20   1.405045 A    
C23   C27   1.403734 A    
O13   V3    1.999160 S    
C48   H32   1.104308 S    
C2    C36   1.501081 S    
C42   H17   1.111464 S    
O8    V2    1.987886 S    
C11   C19   1.418521 A    
C16   C17   1.417456 A    
C41   H19   1.109390 S    
C9    H3    1.082948 S    
O17   V3    2.153918 S    
O15   C39   1.297453 A    
C43   H15   1.110441 S    
O7    V1    2.153951 S    
C6    C7    1.405704 A    
C1    O6    1.297554 A    
C23   H9    1.081202 S    
C44   H26   1.109791 S    
C42   C43   1.524985 S    
C19   N4    1.436314 S    
C29   H8    1.083876 S    
O9    C4    1.303095 A    
C12   C15   1.416951 A    
C22   C24   1.411139 A    
O11   V4    1.989925 S    
C31   C36   1.406809 A    
C12   C40   1.494194 S    
N2    O24   1.301129 A    
C44   C45   1.534596 S    
C22   C38   1.479737 S    
C31   C32   1.399379 A    
C8    C9    1.403202 A    
C42   H18   1.111792 S    
O19   C40   1.308399 A    
C1    C21   1.486219 S    
C13   C17   1.399843 A    
C20   H6    1.081803 S    
N3    O25   1.301268 A    
C49   H30   1.109945 S    
O4    C2    1.312870 A    
N1    O21   1.299908 A    
C34   H13   1.083941 S    
C31   H11   1.076841 S    
C3    C11   1.494615 S    
C35   C36   1.432650 A    
C48   H31   1.111835 S    
O2    C1    1.301134 A    
C25   C44   1.525840 S    
C11   C18   1.406325 A    
O14   V3    2.006091 S    
C26   C30   1.413808 A    
C47   C48   1.526116 S    
C30   H10   1.079164 S    
C41   H20   1.112862 S    
C14   H7    1.083628 S    
C32   H12   1.083251 S    
C5    C6    1.405060 A    
C32   C33   1.401111 A    
C28   N3    1.438178 S    
V4    O20   2.160786 S    
C43   H16   1.109388 S    
C35   C47   1.514550 S    
C47   H33   1.107705 S    
O3    C4    1.302164 A    
O1    V2    2.007001 S    
C44   H27   1.109501 S    
C29   C30   1.397506 A    
C46   H22   1.110815 S    
O12   V3    1.999355 S    
O6    V2    1.989398 S    
O9    V2    2.011124 S    
O17   V4    1.710581 S    
C22   C25   1.426696 A    
C16   C20   1.405520 A    
C23   C24   1.394990 A    
O2    V1    2.006008 S    
V3    O20   1.706122 S    
C25   C26   1.434033 A    
C21   C29   1.397644 A    
C27   C28   1.424932 A    
O1    C2    1.293346 A    
C33   C37   1.481663 S    
O18   C39   1.304838 A    
O5    V1    1.999191 S    
O8    C3    1.308585 A    
N4    O27   1.301506 A    
C46   H21   1.109835 S    
O11   C38   1.294292 A    
C5    C10   1.417169 A    
C17   C18   1.414419 A    
C15   N2    1.434984 S    
N4    O28   1.300352 A    
O7    V2    1.711281 S    
C24   C41   1.518502 S    
O4    V1    1.999419 S    
O3    V1    2.000984 S    
V1    O10   1.706018 S    
C49   H28   1.106990 S    
C33   C34   1.395295 A    
C13   H5    1.083665 S    
C37   O16   1.295917 A    
C5    N1    1.429649 S    
O13   C40   1.294501 A    
C7    C39   1.488537 S    
O15   V3    2.000818 S    
C9    C10   1.409869 A    
C4    C10   1.496302 S    
C47   H34   1.110254 S    
C46   H23   1.110522 S    
C7    C8    1.403448 A    
C45   C46   1.526234 S    
C43   H14   1.109467 S    
C8    H2    1.082961 S    
C45   H25   1.111807 S    
V2    O10   2.160811 S    
