data_mof_unit_57728.cif
_audit_creation_date              2012-10-26T17:13:11-0400
_audit_creation_method            fapswitch 2.2
_symmetry_space_group_name_H-M    P1
_symmetry_Int_Tables_number       1
_space_group_crystal_system       triclinic
_cell_length_a                    16.816434
_cell_length_b                    16.814676
_cell_length_c                    16.817138
_cell_angle_alpha                 67.712194
_cell_angle_beta                  67.742595
_cell_angle_gamma                 67.725761
_cell_volume                      3915.30218585

loop_
_atom_site_label
_atom_site_type_symbol
_atom_type_description
_atom_site_fract_x
_atom_site_fract_y
_atom_site_fract_z
_atom_type_partial_charge
C1    C     C_R   0.313420 0.999695 0.434655 -0.168215
C2    C     C_R   0.680423 0.038965 0.547118 -0.032352
C3    C     C_R   0.999841 0.434223 0.313321 -0.070011
C4    C     C_R   0.042973 0.545785 0.679437 -0.123599
C5    C     C_R   0.434886 0.313808 0.998597 -0.066736
C6    C     C_R   0.546083 0.679711 0.042177 -0.124246
C7    C     C_R   0.565390 0.999568 0.687075 -0.070706
C8    C     C_R   0.453234 0.959267 0.319877 -0.028949
C9    C     C_R   0.686109 0.565024 0.001646 -0.067620
C10   C     C_R   0.320199 0.453896 0.958069 -0.121308
C11   C     C_R   0.003791 0.685592 0.563804 -0.065924
C12   C     C_R   0.958408 0.320218 0.453651 -0.132424
C13   C     C_R   0.456283 0.989473 0.449304 0.041809
C14   C     C_R   0.551979 0.006256 0.544859 0.047024
C15   C     C_R   0.993066 0.447709 0.455509 0.048548
C16   C     C_R   0.011400 0.542963 0.550556 0.047017
C17   C     C_R   0.447997 0.456234 0.991762 0.046713
C18   C     C_R   0.543661 0.551874 0.008624 0.047225
C19   C     C_R   0.018734 0.829796 0.568203 0.850777
C20   C     C_R   0.970476 0.171736 0.436034 0.749277
C21   C     C_R   0.829872 0.568329 0.018451 0.852397
C22   C     C_R   0.171726 0.436045 0.970482 0.758104
C23   C     C_R   0.568407 0.018076 0.830024 0.855832
C24   C     C_R   0.436066 0.970414 0.171726 0.796339
C25   C     C_R   0.431659 0.170116 0.981589 0.846860
C26   C     C_R   0.563957 0.828261 0.029545 0.774935
C27   C     C_R   0.981716 0.431586 0.170058 0.853225
C28   C     C_R   0.029565 0.563944 0.828245 0.758003
C29   C     C_R   0.170075 0.981574 0.431694 0.804489
C30   C     C_R   0.828255 0.029424 0.563969 0.802661
C31   C     C_R   0.407547 0.982238 0.401308 -0.048171
C32   C     C_R   0.599202 0.015579 0.593083 -0.080658
C33   C     C_R   0.982813 0.400940 0.407478 -0.049168
C34   C     C_R   0.020446 0.591465 0.597698 -0.046850
C35   C     C_R   0.401185 0.407945 0.981942 -0.047742
C36   C     C_R   0.591985 0.598705 0.018361 -0.047236
C37   C     C_R   0.266229 0.979949 0.392210 -0.152949
C38   C     C_R   0.729461 0.043846 0.597521 -0.193962
C39   C     C_R   0.979543 0.392140 0.266363 -0.136186
C40   C     C_R   0.045538 0.596987 0.729177 -0.232149
C41   C     C_R   0.392398 0.266545 0.979145 -0.132243
C42   C     C_R   0.597121 0.729263 0.045271 -0.226976
C43   C     C_R   0.607799 0.019726 0.733905 -0.133668
C44   C     C_R   0.402507 0.955591 0.270522 -0.196730
C45   C     C_R   0.733424 0.607554 0.020987 -0.134063
C46   C     C_R   0.270688 0.402881 0.954853 -0.233324
C47   C     C_R   0.021841 0.733183 0.607076 -0.133738
C48   C     C_R   0.954883 0.270717 0.402821 -0.230636
C49   C     C_R   0.488957 0.965883 0.729313 0.478770
C50   C     C_R   0.548270 0.939550 0.291764 0.475560
C51   C     C_R   0.970858 0.727293 0.486858 0.469284
C52   C     C_R   0.940926 0.291231 0.549055 0.497195
C53   C     C_R   0.728101 0.488964 0.967454 0.467936
C54   C     C_R   0.291174 0.549356 0.940364 0.493947
C55   C     C_R   0.271695 0.031932 0.512455 0.474627
C56   C     C_R   0.708729 0.057693 0.452145 0.480569
C57   C     C_R   0.510930 0.271747 0.032842 0.467649
C58   C     C_R   0.450642 0.708721 0.059944 0.492482
C59   C     C_R   0.035497 0.509334 0.270836 0.466086
C60   C     C_R   0.059683 0.450427 0.709013 0.495654
C61   C     C_R   0.313144 0.952863 0.313124 0.334155
C62   C     C_R   0.686707 0.047097 0.686733 0.307888
C63   C     C_R   0.951838 0.313419 0.313512 0.338828
C64   C     C_R   0.048370 0.686384 0.686489 0.335665
C65   C     C_R   0.313370 0.313519 0.951966 0.334619
C66   C     C_R   0.686482 0.686583 0.048150 0.337128
C67   C     C_R   0.673548 0.025777 0.409286 -0.099393
C68   C     C_R   0.321902 0.012310 0.571474 -0.018685
C69   C     C_R   0.027855 0.408222 0.673629 -0.022360
C70   C     C_R   0.018231 0.568662 0.320426 -0.108065
C71   C     C_R   0.408194 0.673950 0.027622 -0.022147
C72   C     C_R   0.570165 0.321894 0.014311 -0.108370
C73   C     C_R   0.591728 0.970206 0.327493 -0.100578
C74   C     C_R   0.429746 0.984395 0.679137 -0.102666
C75   C     C_R   0.325927 0.591737 0.972780 -0.022960
C76   C     C_R   0.677954 0.429698 0.986070 -0.109803
C77   C     C_R   0.973005 0.326276 0.591367 -0.015034
C78   C     C_R   0.990641 0.676800 0.427580 -0.107554
C79   C     C_R   0.719042 0.011436 0.323698 0.279957
C80   C     C_R   0.282010 0.012431 0.662144 0.350826
C81   C     C_R   0.014230 0.322314 0.718790 0.305340
C82   C     C_R   0.016832 0.659795 0.280273 0.294746
C83   C     C_R   0.320537 0.717059 0.018020 0.300817
C84   C     C_R   0.661725 0.282340 0.010994 0.301185
C85   C     C_R   0.677500 0.984173 0.282143 0.283582
C86   C     C_R   0.337749 0.989724 0.718315 0.260010
C87   C     C_R   0.282825 0.679382 0.982417 0.301785
C88   C     C_R   0.717492 0.338121 0.989403 0.298502
C89   C     C_R   0.984929 0.281712 0.678017 0.325175
C90   C     C_R   0.995401 0.715894 0.335670 0.298262
C91   C     C_R   0.546622 0.988516 0.410356 -0.057604
C92   C     C_R   0.465154 0.996740 0.586892 -0.054125
C93   C     C_R   0.992237 0.408747 0.545861 -0.093174
C94   C     C_R   0.002925 0.584584 0.463328 -0.051242
C95   C     C_R   0.408622 0.546359 0.991669 -0.093511
C96   C     C_R   0.585549 0.464958 0.999306 -0.051794
C97   C     C_R   0.590974 0.006890 0.454643 -0.055539
C98   C     C_R   0.414449 0.998296 0.536384 -0.086565
C99   C     C_R   0.453536 0.591252 0.008748 -0.092660
C100  C     C_R   0.534904 0.414317 0.001100 -0.051295
C101  C     C_R   0.010571 0.453118 0.590256 -0.093214
C102  C     C_R   0.004088 0.533980 0.413006 -0.051285
Cu1   Cu    Cu3+1 0.995180 0.995180 0.424630 1.160342
Cu2   Cu    Cu3+1 0.004820 0.004820 0.575370 1.159586
Cu3   Cu    Cu3+1 0.995180 0.424630 0.995180 1.158822
Cu4   Cu    Cu3+1 0.004820 0.575370 0.004820 1.161628
Cu5   Cu    Cu3+1 0.424630 0.995180 0.995180 1.165922
Cu6   Cu    Cu3+1 0.575370 0.004820 0.004820 1.163916
O1    O     O_R   0.124540 0.978640 0.385460 -0.510785
O2    O     O_R   0.875460 0.021360 0.614540 -0.557186
O3    O     O_R   0.978640 0.385460 0.124540 -0.521978
O4    O     O_R   0.021360 0.614540 0.875460 -0.546906
O5    O     O_R   0.385460 0.124540 0.978640 -0.520091
O6    O     O_R   0.614540 0.875460 0.021360 -0.545667
O7    O     O_R   0.614540 0.021360 0.875460 -0.521139
O8    O     O_R   0.385460 0.978640 0.124540 -0.560786
O9    O     O_R   0.875460 0.614540 0.021360 -0.521309
O10   O     O_R   0.124540 0.385460 0.978640 -0.547450
O11   O     O_R   0.021360 0.875460 0.614540 -0.517704
O12   O     O_R   0.978640 0.124540 0.385460 -0.543580
O13   O     O_R   0.013780 0.867370 0.487190 -0.535233
O14   O     O_R   0.986220 0.132630 0.512810 -0.534977
O15   O     O_R   0.867370 0.487190 0.013780 -0.535852
O16   O     O_R   0.132630 0.512810 0.986220 -0.522403
O17   O     O_R   0.487190 0.013780 0.867370 -0.535472
O18   O     O_R   0.512810 0.986220 0.132630 -0.504911
O19   O     O_R   0.512810 0.132630 0.986220 -0.536998
O20   O     O_R   0.487190 0.867370 0.013780 -0.526772
O21   O     O_R   0.986220 0.512810 0.132630 -0.536053
O22   O     O_R   0.013780 0.487190 0.867370 -0.523325
O23   O     O_R   0.132630 0.986220 0.512810 -0.553309
O24   O     O_R   0.867370 0.013780 0.487190 -0.505416
O25   O     O_3   0.270550 0.923250 0.278434 -0.665446
H1    H     H_    0.315368 0.875417 0.251155 0.340053
O26   O     O_3   0.721145 0.077346 0.728998 -0.665509
H2    H     H_    0.748538 0.124999 0.683890 0.340968
O27   O     O_3   0.921851 0.278925 0.271064 -0.675494
H3    H     H_    0.874540 0.251023 0.316126 0.343961
O28   O     O_3   0.077063 0.729292 0.721692 -0.668257
H4    H     H_    0.124763 0.684653 0.749302 0.338334
O29   O     O_3   0.278574 0.270854 0.922554 -0.666290
H5    H     H_    0.250899 0.315723 0.874988 0.338690
O30   O     O_3   0.729163 0.721368 0.077562 -0.675511
H6    H     H_    0.684322 0.749092 0.125072 0.342839
O31   O     O_3   0.303202 0.979009 0.809286 -0.694254
H7    H     H_    0.250990 0.955086 0.830648 0.333435
O32   O     O_3   0.715206 0.978737 0.195019 -0.700054
H8    H     H_    0.754721 0.018806 0.162309 0.339052
O33   O     O_3   0.984472 0.806932 0.301073 -0.706838
H9    H     H_    0.961165 0.828240 0.248485 0.330649
O34   O     O_3   0.974383 0.196446 0.717858 -0.640825
H10   H     H_    0.014959 0.161783 0.756687 0.333374
O35   O     O_3   0.808690 0.304015 0.977208 -0.709802
H11   H     H_    0.829958 0.252838 0.951839 0.332145
O36   O     O_3   0.202739 0.724876 0.960909 -0.649042
H12   H     H_    0.196374 0.789872 0.942234 0.329595
O37   O     O_3   0.190146 0.030749 0.694705 -0.664213
H13   H     H_    0.170675 0.055647 0.745912 0.331663
O38   O     O_3   0.806213 0.016732 0.286100 -0.701209
H14   H     H_    0.839106 0.975807 0.247476 0.338807
O39   O     O_3   0.695830 0.191124 0.023178 -0.704457
H15   H     H_    0.747018 0.169820 0.048553 0.330043
O40   O     O_3   0.275083 0.797142 0.039523 -0.648835
H16   H     H_    0.210105 0.803527 0.058169 0.329523
O41   O     O_3   0.030460 0.693360 0.188860 -0.700209
H17   H     H_    0.058072 0.742968 0.167567 0.335259
O42   O     O_3   0.023003 0.283213 0.804724 -0.647747
H18   H     H_    0.981200 0.245661 0.839182 0.326897
O43   O     O_3   0.483592 0.902116 0.811237 -0.685150
H19   H     H_    0.445066 0.866006 0.818746 0.347798
O44   O     O_3   0.596700 0.879770 0.240739 -0.709092
H20   H     H_    0.656503 0.850117 0.251506 0.352038
O45   O     O_3   0.905665 0.808308 0.481664 -0.686028
H21   H     H_    0.870361 0.815068 0.442677 0.348300
O46   O     O_3   0.882897 0.239341 0.603047 -0.648936
H22   H     H_    0.844111 0.244132 0.568406 0.291691
O47   O     O_3   0.809533 0.484239 0.903010 -0.683098
H23   H     H_    0.816250 0.446837 0.866112 0.347262
O48   O     O_3   0.239338 0.603036 0.882198 -0.652687
H24   H     H_    0.244216 0.568175 0.843592 0.284599
O49   O     O_3   0.190032 0.095576 0.523474 -0.642833
H25   H     H_    0.177812 0.125721 0.464233 0.304208
O50   O     O_3   0.759050 0.118067 0.403051 -0.707994
H26   H     H_    0.748486 0.146740 0.343116 0.351975
O51   O     O_3   0.515698 0.190213 0.097217 -0.687020
H27   H     H_    0.553080 0.183429 0.134177 0.347607
O52   O     O_3   0.397063 0.760598 0.118045 -0.651297
H28   H     H_    0.431985 0.755746 0.156591 0.289930
O53   O     O_3   0.099510 0.513229 0.189179 -0.683945
H29   H     H_    0.138009 0.549032 0.182426 0.347841
O54   O     O_3   0.116983 0.396245 0.761650 -0.647284
H30   H     H_    0.155947 0.430596 0.757068 0.284604

loop_
_geom_bond_atom_site_label_1
_geom_bond_atom_site_label_2
_ccdc_geom_bond_type
C68   C80   A    
Cu4   O21   S    
C83   C87   A    
O44   H20   S    
C9    C45   A    
O41   H17   S    
C18   C96   A    
O43   H19   S    
C6    C58   A    
Cu3   Cu4   S    
C11   C47   A    
O32   H8    S    
C20   O12   A    
C12   C48   A    
O39   H15   S    
O51   H27   S    
C75   C95   A    
O26   H2    S    
Cu4   O4    S    
O49   H25   S    
C78   C90   A    
C77   C89   A    
O37   H13   S    
C30   O2    A    
Cu6   O7    S    
C29   O1    A    
C23   O7    A    
Cu5   O20   S    
C83   O40   S    
C12   C33   A    
C79   O38   S    
C19   C47   S    
C58   C71   A    
Cu2   O14   S    
Cu2   O2    S    
C3    C33   A    
C95   C99   A    
C74   C92   A    
O30   H6    S    
C96   C100  A    
C1    C31   A    
C23   C43   S    
C54   O48   S    
Cu3   O15   S    
C2    C32   A    
Cu6   O6    S    
C13   C98   A    
C51   O45   S    
Cu5   O5    S    
C21   O9    A    
C16   C34   A    
C71   C83   A    
Cu6   O19   S    
C4    C40   A    
C27   C39   S    
Cu2   O23   S    
C10   C46   A    
C9    C36   A    
C80   C86   A    
Cu5   Cu6   S    
C10   C35   A    
C17   C95   A    
C7    C43   A    
Cu1   O24   S    
C76   C88   A    
C20   O14   A    
C64   O28   S    
C1    C37   A    
C23   O17   A    
Cu2   O11   S    
C81   C89   A    
Cu3   O3    S    
C19   O11   A    
C57   C72   A    
C13   C91   A    
C24   O18   A    
C63   O27   S    
C90   O33   S    
C10   C54   A    
C50   O44   S    
C12   C52   A    
O42   H18   S    
O31   H7    S    
C21   C45   S    
C55   O49   S    
C4    C34   A    
O36   H12   S    
C61   O25   S    
O54   H30   S    
C84   C88   A    
C67   C79   A    
C73   C91   A    
C46   C65   A    
C50   C73   A    
C25   C41   S    
C47   C64   A    
C3    C39   A    
C55   C68   A    
C48   C63   A    
C41   C65   A    
C66   O30   S    
O45   H21   S    
C71   C99   A    
C91   C97   A    
O48   H24   S    
C29   C37   S    
C45   C66   A    
C62   O26   S    
C21   O15   A    
Cu5   O17   S    
C8    C44   A    
O50   H26   S    
C26   O6    A    
C25   O5    A    
C65   O29   S    
C2    C38   A    
O38   H14   S    
O34   H10   S    
C73   C85   A    
C4    C60   A    
C81   O42   S    
C26   O20   A    
C82   C90   A    
C74   C86   A    
C52   O46   S    
C7    C49   A    
C72   C84   A    
C69   C81   A    
C75   C87   A    
C22   C46   S    
C14   C92   A    
C24   O8    A    
Cu4   O9    S    
O25   H1    S    
C27   O21   A    
C87   O36   S    
Cu3   O10   S    
C59   O53   S    
C53   C76   A    
C9    C53   A    
C18   C99   A    
C93   C101  A    
C52   C77   A    
Cu1   O13   S    
C86   O31   S    
C8    C50   A    
C79   C85   A    
C26   C42   S    
C14   C97   A    
C72   C100  A    
C22   O10   A    
C5    C41   A    
C19   O13   A    
C7    C32   A    
C20   C48   S    
C58   O52   S    
C8    C31   A    
C57   O51   S    
C13   C31   A    
C11   C34   A    
C85   O32   S    
C14   C32   A    
C15   C33   A    
C53   O47   S    
C15   C93   A    
C37   C61   A    
O28   H4    S    
C70   C102  A    
C22   O16   A    
Cu3   O22   S    
C56   O50   S    
C69   C101  A    
C44   C61   A    
C56   C67   A    
C39   C63   A    
O27   H3    S    
C16   C94   A    
C40   C64   A    
C5    C57   A    
Cu1   O1    S    
C88   O35   S    
C25   O19   A    
C51   C78   A    
O52   H28   S    
O46   H22   S    
C2    C56   A    
O29   H5    S    
C76   C96   A    
C49   O43   S    
C80   O37   S    
C29   O23   A    
C60   C69   A    
C78   C94   A    
C60   O54   S    
C24   C44   S    
C5    C35   A    
C77   C93   A    
Cu1   O12   S    
C6    C36   A    
C28   O22   A    
C15   C102  A    
C1    C55   A    
O53   H29   S    
C70   C82   A    
C17   C100  A    
C68   C98   A    
Cu5   O8    S    
O40   H16   S    
C11   C51   A    
C67   C97   A    
C59   C70   A    
C27   O3    A    
C54   C75   A    
C30   O24   A    
C16   C101  A    
C89   O34   S    
C94   C102  A    
C92   C98   A    
O47   H23   S    
C6    C42   A    
Cu4   O16   S    
Cu1   Cu2   S    
C42   C66   A    
C28   C40   S    
C49   C74   A    
C17   C35   A    
C30   C38   S    
Cu6   O18   S    
O35   H11   S    
O33   H9    S    
C18   C36   A    
C28   O4    A    
C84   O39   S    
C43   C62   A    
C38   C62   A    
C82   O41   S    
C3    C59   A    
