data_mof_unit_22474.cif
_audit_creation_date              2012-12-11T15:28:42-0500
_audit_creation_method            fapswitch 2.2
_symmetry_space_group_name_H-M    P1
_symmetry_Int_Tables_number       1
_space_group_crystal_system       triclinic
_cell_length_a                    6.951701
_cell_length_b                    19.558579
_cell_length_c                    23.37554
_cell_angle_alpha                 96.089326
_cell_angle_beta                  90.774799
_cell_angle_gamma                 89.180579
_cell_volume                      3159.77827526

loop_
_atom_site_label
_atom_site_type_symbol
_atom_type_description
_atom_site_fract_x
_atom_site_fract_y
_atom_site_fract_z
_atom_type_partial_charge
O1    O     O_R   0.617180 0.809390 0.808140 -0.523129
O2    O     O_R   0.382820 0.190610 0.191860 -0.522130
O3    O     O_R   0.293300 0.672410 0.795490 -0.546202
O4    O     O_R   0.706700 0.327590 0.204510 -0.534120
O5    O     O_R   0.117220 0.690610 0.691850 -0.525597
O6    O     O_R   0.882780 0.309390 0.308150 -0.515516
C1    C     C_R   0.463436 0.647715 0.805289 0.742077
C2    C     C_R   0.536470 0.352516 0.194981 0.743556
O7    O     O_R   0.287840 0.807750 0.814460 -0.525390
O8    O     O_R   0.712160 0.192250 0.185540 -0.525849
O9    O     O_R   0.111720 0.826910 0.710960 -0.531214
O10   O     O_R   0.888280 0.173090 0.289040 -0.532501
C3    C     C_R   0.456557 0.830750 0.833194 0.714194
C4    C     C_R   0.543442 0.169254 0.166804 0.715133
O11   O     O_R   0.622680 0.673080 0.789040 -0.530546
O12   O     O_R   0.377320 0.326920 0.210960 -0.543063
O13   O     O_3   0.448820 0.756130 0.716020 -0.356299
O14   O     O_3   0.551180 0.243870 0.283980 -0.356812
V1    V     V_3+5 0.176220 0.748860 0.756300 1.407834
V2    V     V_3+5 0.823780 0.251140 0.243700 1.421583
O15   O     O_R   0.781670 0.827580 0.704500 -0.534937
O16   O     O_R   0.218330 0.172420 0.295500 -0.534268
C5    C     C_R   0.949223 0.851864 0.694196 0.696904
C6    C     C_R   0.050801 0.148034 0.305656 0.695701
O17   O     O_R   0.787130 0.692240 0.685530 -0.518944
O18   O     O_R   0.212870 0.307760 0.314470 -0.528925
C7    C     C_R   0.956014 0.669167 0.666837 0.710365
C8    C     C_R   0.043916 0.330749 0.333217 0.706970
V3    V     V_3+5 0.675510 0.751130 0.743690 1.430554
V4    V     V_3+5 0.324490 0.248870 0.256310 1.411490
O19   O     O_3   0.952780 0.743870 0.783980 -0.362521
O20   O     O_3   0.047220 0.256130 0.216020 -0.361945
C9    C     C_1   0.966308 0.617013 0.614845 -0.220045
C10   C     C_1   0.033315 0.382636 0.385374 -0.219425
C11   C     C_1   0.977826 0.573358 0.572107 -0.003254
C12   C     C_1   0.021656 0.426031 0.428282 -0.003016
C13   C     C_1   0.993071 0.521457 0.521581 -0.001029
C14   C     C_1   0.006301 0.477734 0.478938 -0.001322
C15   C     C_R   0.955435 0.914226 0.663922 -0.041894
C16   C     C_R   0.044663 0.085617 0.335808 -0.040578
C17   C     C_R   0.967949 0.038022 0.668852 -0.130543
C18   C     C_R   0.036247 0.961755 0.330796 -0.144853
C19   C     C_R   0.956526 0.978386 0.696087 -0.189652
C20   C     C_R   0.049840 0.021429 0.303695 -0.188932
C21   C     C_R   0.965030 0.909959 0.603615 -0.185418
C22   C     C_R   0.028726 0.089856 0.395942 -0.186940
C23   C     C_R   0.976956 0.970226 0.574351 0.055012
C24   C     C_R   0.017687 0.029518 0.425118 0.058756
C25   C     C_R   0.979149 0.034936 0.608509 0.051942
C26   C     C_R   0.017934 0.964867 0.390955 0.043952
C27   C     C_R   0.988449 0.968471 0.512782 -0.004331
C28   C     C_R   0.004789 0.031177 0.486624 -0.003308
C29   C     C_R   0.011095 0.093558 0.522815 -0.259789
C30   C     C_R   0.985712 0.905976 0.476575 -0.251039
C31   C     C_R   0.992857 0.096064 0.582458 0.378003
C32   C     C_R   0.997646 0.903887 0.416905 0.367962
H1    H     H_    0.022685 0.140940 0.418174 0.088418
H2    H     H_    0.964639 0.858909 0.581285 0.090933
H3    H     H_    0.061984 0.017538 0.257292 0.107371
H4    H     H_    0.949518 0.982300 0.742605 0.108682
H5    H     H_    0.968633 0.086827 0.695518 0.152159
H6    H     H_    0.038623 0.912929 0.304172 0.151872
H7    H     H_    0.032767 0.142155 0.506407 0.133308
H8    H     H_    0.974581 0.856869 0.493001 0.137803
C33   C     C_R   0.475000 0.584788 0.834979 -0.144157
C34   C     C_R   0.524011 0.415302 0.165089 -0.145635
C35   C     C_R   0.471683 0.460899 0.831212 -0.220269
C36   C     C_R   0.523094 0.539284 0.168957 -0.221719
C37   C     C_R   0.454620 0.520201 0.803300 0.380078
C38   C     C_R   0.508071 0.480099 0.196946 0.379432
C39   C     C_R   0.501290 0.589139 0.895020 -0.259863
C40   C     C_R   0.532717 0.410768 0.104768 -0.259975
C41   C     C_R   0.505454 0.529165 0.924881 0.064132
C42   C     C_R   0.529019 0.470735 0.075002 0.058492
C43   C     C_R   0.489160 0.464459 0.891454 -0.022772
C44   C     C_R   0.533771 0.535563 0.108644 -0.009338
C45   C     C_R   0.522068 0.531157 0.986474 0.011735
C46   C     C_R   0.520513 0.468557 0.013352 0.005122
C47   C     C_R   0.502352 0.405908 0.977894 -0.250837
C48   C     C_R   0.538098 0.593767 0.022096 -0.266701
C49   C     C_R   0.484060 0.403668 0.918348 0.393303
C50   C     C_R   0.549296 0.596197 0.081998 0.406265
H9    H     H_    0.544031 0.359713 0.082643 0.113777
H10   H     H_    0.514388 0.640178 0.916876 0.111710
H11   H     H_    0.464745 0.411702 0.805260 0.164733
H12   H     H_    0.522487 0.588518 0.194999 0.166465
H13   H     H_    0.495728 0.357043 0.994988 0.136839
H14   H     H_    0.540398 0.642693 0.005030 0.129441
C51   C     C_1   0.467311 0.882798 0.885240 -0.218105
C52   C     C_1   0.532688 0.117211 0.114754 -0.217905
C53   C     C_1   0.478723 0.926328 0.928069 -0.002816
C54   C     C_1   0.521277 0.073686 0.071921 -0.002121
C55   C     C_1   0.493589 0.978138 0.978671 -0.003296
C56   C     C_1   0.506410 0.021880 0.021316 -0.002924
O21   O     O_3   0.007951 0.158545 0.616268 -0.577739
C57   C     C_3   0.849016 0.202298 0.606680 0.063909
H15   H     H_    0.762055 0.208708 0.646487 0.138501
H16   H     H_    0.750288 0.182332 0.570804 0.112889
C58   C     C_3   0.923037 0.272628 0.594770 -0.295832
H17   H     H_    0.010969 0.294825 0.632094 0.204479
H18   H     H_    0.016070 0.266431 0.556221 0.192312
C59   C     C_3   0.757739 0.322160 0.584278 -0.828427
H19   H     H_    0.671420 0.301892 0.546021 0.232275
H20   H     H_    0.816557 0.372749 0.576335 0.240255
H21   H     H_    0.663105 0.329611 0.622408 0.233110
O22   O     O_3   0.000454 0.840680 0.384044 -0.574573
C60   C     C_3   0.808872 0.819537 0.372895 0.069024
H22   H     H_    0.726499 0.858582 0.350671 0.122355
H23   H     H_    0.735695 0.811510 0.413744 0.127307
C61   C     C_3   0.810558 0.751627 0.333918 -0.295779
H24   H     H_    0.885652 0.758619 0.293288 0.198846
H25   H     H_    0.890526 0.712049 0.355856 0.205107
C62   C     C_3   0.606723 0.726539 0.319592 -0.829478
H26   H     H_    0.529377 0.718595 0.359583 0.241411
H27   H     H_    0.612892 0.676884 0.291802 0.226369
H28   H     H_    0.525742 0.764550 0.296218 0.240238
O23   O     O_3   0.461622 0.340629 0.886172 -0.573931
C63   C     C_3   0.262856 0.326565 0.880416 0.058382
H29   H     H_    0.177475 0.372331 0.869476 0.115125
H30   H     H_    0.208484 0.310120 0.921333 0.130888
C64   C     C_3   0.232869 0.268658 0.831999 -0.295007
H31   H     H_    0.295374 0.283627 0.791670 0.195422
H32   H     H_    0.308259 0.221300 0.843241 0.203255
C65   C     C_3   0.019569 0.253653 0.821640 -0.808830
H33   H     H_    0.953761 0.238108 0.861245 0.239228
H34   H     H_    0.003061 0.211098 0.786566 0.230466
H35   H     H_    0.942646 0.299884 0.808692 0.238536
O24   O     O_3   0.559059 0.659302 0.115074 -0.580766
C66   C     C_3   0.744803 0.687433 0.111643 0.072798
H36   H     H_    0.729716 0.744148 0.120805 0.148286
H37   H     H_    0.808832 0.677777 0.067989 0.108694
C67   C     C_3   0.881605 0.661269 0.156809 -0.352935
H38   H     H_    0.817307 0.671937 0.200134 0.205018
H39   H     H_    0.903470 0.604811 0.147541 0.197970
C68   C     C_3   0.076722 0.696123 0.156912 -0.781176
H40   H     H_    0.146048 0.684470 0.114389 0.252717
H41   H     H_    0.172088 0.677031 0.190363 0.235518
H42   H     H_    0.059279 0.752691 0.166599 0.223027
O25   O     O_3   0.494286 0.486528 0.256301 -0.583713
C69   C     C_3   0.299115 0.481511 0.272001 0.092091
H43   H     H_    0.297667 0.464936 0.315988 0.147297
H44   H     H_    0.218953 0.441875 0.243711 0.113904
C70   C     C_3   0.193824 0.551091 0.273110 -0.370481
H45   H     H_    0.274125 0.590754 0.301072 0.213582
H46   H     H_    0.185309 0.566824 0.228928 0.195386
C71   C     C_3   0.989246 0.546919 0.295237 -0.783754
H47   H     H_    0.907647 0.506834 0.268180 0.249151
H48   H     H_    0.914372 0.597103 0.293274 0.231664
H49   H     H_    0.991784 0.534595 0.340535 0.237214
O26   O     O_3   0.427526 0.514147 0.744214 -0.582597
C72   C     C_3   0.228215 0.517809 0.731021 0.093510
H50   H     H_    0.213445 0.539662 0.689230 0.147038
H51   H     H_    0.145703 0.552867 0.762878 0.110911
C73   C     C_3   0.138309 0.446187 0.724634 -0.363092
H52   H     H_    0.219453 0.411624 0.692397 0.207629
H53   H     H_    0.144981 0.424078 0.766430 0.188543
C74   C     C_3   0.927717 0.449591 0.705712 -0.784725
H54   H     H_    0.844698 0.484652 0.737070 0.249355
H55   H     H_    0.864631 0.397558 0.703599 0.235414
H56   H     H_    0.915616 0.468193 0.662527 0.236074

loop_
_geom_bond_atom_site_label_1
_geom_bond_atom_site_label_2
_ccdc_geom_bond_type
C70   C71   S    
C2    C34   S    
C55   C56   T    
C68   H42   S    
C36   H12   S    
O21   C57   S    
C69   C70   S    
C17   H5    S    
O4    C2    A    
V1    O19   S    
O24   C66   S    
C63   H30   S    
C47   H13   S    
C68   H40   S    
C23   C25   A    
C34   C38   A    
C45   C46   A    
C7    C9    S    
C16   C22   A    
C34   C40   A    
O9    V1    S    
C74   H54   S    
C42   C44   A    
C37   O26   S    
C11   C13   S    
C69   H44   S    
C62   H26   S    
O3    C1    A    
C9    C11   T    
C33   C37   A    
C53   C55   S    
O22   C60   S    
C20   H3    S    
O12   V4    S    
C70   H45   S    
C57   C58   S    
C49   O23   S    
O13   V3    S    
C59   H21   S    
C68   H41   S    
C72   C73   S    
O7    C3    A    
C63   H29   S    
C4    C52   S    
C64   C65   S    
O13   V1    S    
O5    C7    A    
O7    V1    S    
O6    C8    A    
O8    V2    S    
C67   H38   S    
C57   H16   S    
C60   H22   S    
O3    V1    S    
O14   V4    S    
C51   C53   T    
C18   H6    S    
C73   H53   S    
C15   C21   A    
C66   C67   S    
C24   C26   A    
C8    C10   S    
C38   O25   S    
C2    O12   A    
V3    O19   S    
C17   C19   A    
C21   C23   A    
C18   C20   A    
C17   C25   A    
O11   V3    S    
C71   H48   S    
C29   C31   A    
O17   V3    S    
C22   C24   A    
C21   H2    S    
C35   H11   S    
C27   C28   A    
C69   H43   S    
C73   C74   S    
C40   C42   A    
O8    C4    A    
C44   C50   A    
C39   C41   A    
C46   C47   A    
C43   C49   A    
C15   C19   A    
C1    O11   A    
C25   C31   A    
O15   V3    S    
C26   C32   A    
C61   H24   S    
C35   C37   A    
C63   C64   S    
C39   H10   S    
C13   C14   T    
C1    C33   S    
C71   H49   S    
C52   C54   T    
C58   H17   S    
C24   C28   A    
C72   H50   S    
C32   O22   S    
C57   H15   S    
O10   V2    S    
O1    V3    S    
C73   H52   S    
C36   C44   A    
C59   H20   S    
C61   C62   S    
C50   O24   S    
C64   H31   S    
C19   H4    S    
C18   C26   A    
C65   H35   S    
C31   O21   S    
C58   H18   S    
O18   V4    S    
C74   H56   S    
O15   C5    A    
C22   H1    S    
C60   C61   S    
O16   C6    A    
C35   C43   A    
C41   C43   A    
C74   H55   S    
C28   C29   A    
C65   H34   S    
C71   H47   S    
V2    O20   S    
C45   C48   A    
C70   H46   S    
O16   V4    S    
C3    C51   S    
O18   C8    A    
C23   C27   A    
O25   C69   S    
C30   C32   A    
O5    V1    S    
O17   C7    A    
O6    V2    S    
O10   C6    A    
C47   C49   A    
O2    V4    S    
C27   C30   A    
C62   H28   S    
C12   C14   S    
C66   H36   S    
C48   H14   S    
C33   C39   A    
O23   C63   S    
V4    O20   S    
C29   H7    S    
C54   C56   S    
C60   H23   S    
C30   H8    S    
C67   C68   S    
C5    C15   S    
O9    C5    A    
C6    C16   S    
C48   C50   A    
O14   V2    S    
C72   H51   S    
C59   H19   S    
O2    C4    A    
C61   H25   S    
C64   H32   S    
C40   H9    S    
O4    V2    S    
C16   C20   A    
C58   C59   S    
O1    C3    A    
C10   C12   T    
C67   H39   S    
C42   C46   A    
C36   C38   A    
C41   C45   A    
O26   C72   S    
C66   H37   S    
C65   H33   S    
C62   H27   S    
