data_mof_unit_17703.cif
_audit_creation_date              2012-12-10T17:05:15-0500
_audit_creation_method            fapswitch 2.2
_symmetry_space_group_name_H-M    P1
_symmetry_Int_Tables_number       1
_space_group_crystal_system       triclinic
_cell_length_a                    10.791164
_cell_length_b                    11.000938
_cell_length_c                    9.905358
_cell_angle_alpha                 111.371964
_cell_angle_beta                  97.384433
_cell_angle_gamma                 91.526871
_cell_volume                      1082.50750649

loop_
_atom_site_label
_atom_site_type_symbol
_atom_type_description
_atom_site_fract_x
_atom_site_fract_y
_atom_site_fract_z
_atom_type_partial_charge
C1    C     C_R   0.477815 0.254686 0.442139 0.744774
C2    C     C_3   0.877305 0.473261 0.494871 -0.228311
C3    C     C_3   0.930104 0.615571 0.521207 -0.364357
C4    C     C_3   0.915630 0.379296 0.343265 0.355115
C5    C     C_2   0.444263 0.116245 0.414778 0.325334
C6    C     C_2   0.448755 0.073368 0.526896 0.429559
C7    C     C_2   0.497820 0.886269 0.594903 0.332981
C8    C     C_2   0.434248 0.933269 0.500773 0.422752
C9    C     C_2   0.513647 0.507174 0.077768 0.082884
C10   C     C_2   0.490107 0.486977 0.917412 -0.017282
C11   C     C_R   0.260650 0.497766 0.501836 0.926486
C12   C     C_R   0.502662 0.745786 0.559738 0.792808
C13   C     C_R   0.738202 0.484156 0.495188 0.821508
C14   C     C_3   0.090401 0.453250 0.634055 0.503033
C15   C     C_3   0.944885 0.441590 0.630313 0.415025
C16   C     C_3   0.071599 0.621718 0.513601 0.429146
C17   C     C_3   0.060854 0.381370 0.358786 0.123908
C18   C     C_3   0.123438 0.489472 0.503959 -0.279144
Cu1   Cu    Cu3+1 0.522160 0.521810 0.644910 1.037734
Cu2   Cu    Cu3+1 0.477840 0.478190 0.355090 1.043138
H1    H     H_    0.087130 0.642201 0.414659 0.113358
H2    H     H_    0.880575 0.651329 0.439621 0.185850
H3    H     H_    0.420196 0.410928 0.844519 0.208459
H4    H     H_    0.613164 0.635441 0.929907 0.212554
H5    H     H_    0.133447 0.361698 0.629198 0.074828
H6    H     H_    0.368659 0.385471 0.069772 0.221487
H7    H     H_    0.911975 0.686225 0.628971 0.253186
H8    H     H_    0.089645 0.401603 0.264425 0.204382
N1    N     N_2   0.444530 0.445420 0.137360 -0.272682
N2    N     N_2   0.555520 0.554510 0.862630 -0.308373
O1    O     O_R   0.511820 0.332340 0.577400 -0.577201
O2    O     O_R   0.474400 0.295500 0.332650 -0.524936
O3    O     O_R   0.336400 0.518400 0.622370 -0.514393
O4    O     O_R   0.298980 0.481560 0.377620 -0.588471
O5    O     O_R   0.525600 0.704500 0.667350 -0.529761
O6    O     O_R   0.488180 0.667660 0.422600 -0.582432
O7    O     O_R   0.701020 0.518440 0.622380 -0.554225
O8    O     O_R   0.663600 0.481600 0.377630 -0.542133
F1    F     F_    0.146305 0.547491 0.766569 -0.530202
F2    F     F_    0.883418 0.438223 0.245612 -0.731869
F3    F     F_    0.358344 0.851593 0.378596 -0.635064
F4    F     F_    0.475003 0.158439 0.668758 -0.659403
F5    F     F_    0.561266 0.968414 0.725769 -0.658053
F6    F     F_    0.405114 0.032664 0.274446 -0.606792
C19   C     C_R   0.628493 0.593609 0.158947 0.164975
C20   C     C_R   0.743247 0.554711 0.111055 -0.051397
C21   C     C_R   0.849210 0.643743 0.153025 -0.022173
C22   C     C_R   0.843078 0.771902 0.248915 -0.158622
C23   C     C_R   0.729313 0.812346 0.295592 -0.246085
C24   C     C_R   0.621123 0.726892 0.239823 -0.141949
H9    H     H_    0.749029 0.455592 0.035956 0.153309
H10   H     H_    0.936424 0.612303 0.113525 0.201733
H11   H     H_    0.925704 0.839887 0.284902 0.174996
H12   H     H_    0.723430 0.911675 0.369055 0.149369
H13   H     H_    0.531389 0.765987 0.254279 0.227557
C25   C     C_R   0.897235 0.311629 0.639648 -0.017364
C26   C     C_R   0.807642 0.312430 0.732246 -0.040343
C27   C     C_R   0.770256 0.198700 0.752909 -0.091248
C28   C     C_R   0.821016 0.081322 0.681419 -0.123125
C29   C     C_R   0.909593 0.077745 0.590036 -0.110669
C30   C     C_R   0.946474 0.190822 0.567980 -0.225563
H14   H     H_    0.766891 0.401445 0.790739 0.191693
H15   H     H_    0.702828 0.202229 0.825963 0.222747
H16   H     H_    0.792438 0.992948 0.696857 0.172229
H17   H     H_    0.950424 0.987012 0.536561 0.161233
H18   H     H_    0.014332 0.181663 0.495659 0.216286
F7    F     F_    0.922367 0.540795 0.758470 -0.607637
F8    F     F_    0.133370 0.723778 0.635249 -0.576172
F9    F     F_    0.105653 0.261586 0.347481 -0.698217
C31   C     C_R   0.854967 0.239764 0.260046 0.200217
C32   C     C_R   0.754124 0.184953 0.301045 -0.194998
C33   C     C_R   0.694287 0.063273 0.208555 -0.108410
C34   C     C_R   0.735550 0.992205 0.076750 -0.019904
C35   C     C_R   0.836210 0.043783 0.034935 -0.144320
C36   C     C_R   0.893364 0.167305 0.123508 0.000116
H19   H     H_    0.720398 0.234578 0.402965 0.097332
H20   H     H_    0.616858 0.021928 0.239775 0.183908
H21   H     H_    0.689715 0.897060 0.007492 0.170236
H22   H     H_    0.869201 0.988818 0.933104 0.161732
H23   H     H_    0.967716 0.207079 0.084219 0.173324

loop_
_geom_bond_atom_site_label_1
_geom_bond_atom_site_label_2
_ccdc_geom_bond_type
C11   C18   S    
C17   F9    S    
C16   H1    S    
C34   C35   A    
C14   C18   S    
Cu1   Cu2   S    
Cu1   O1    S    
C4    C31   S    
C7    C8    D    
C19   C20   A    
C9    C19   S    
C28   H16   S    
C1    C5    S    
Cu2   O2    S    
C5    C6    D    
C23   H12   S    
C1    O1    A    
C25   C26   A    
C2    C13   S    
Cu1   O7    S    
C14   F1    S    
C30   H18   S    
C4    F2    S    
C34   H21   S    
C31   C32   A    
C16   F8    S    
C7    F5    S    
C12   O6    A    
C9    C10   S    
C13   O7    A    
C9    N1    D    
Cu2   O4    S    
C28   C29   A    
C7    C12   S    
Cu2   N1    S    
C22   H11   S    
C35   C36   A    
C11   O3    A    
C8    F3    S    
Cu1   O3    S    
C6    C8    S    
C26   H14   S    
C27   C28   A    
C20   H9    S    
C1    O2    A    
C29   C30   A    
C2    C4    S    
C33   H20   S    
Cu2   O8    S    
C10   N2    D    
C21   C22   A    
C15   F7    S    
C17   C18   S    
C12   O5    A    
C2    C15   S    
C13   O8    A    
C4    C17   S    
C22   C23   A    
C5    F6    S    
C29   H17   S    
C35   H22   S    
C36   H23   S    
C27   H15   S    
C20   C21   A    
C14   C15   S    
C17   H8    S    
C11   O4    A    
C33   C34   A    
C21   H10   S    
C10   H3    S    
C24   H13   S    
C15   C25   S    
C3    H7    S    
C2    C3    S    
C32   C33   A    
Cu1   O5    S    
C26   C27   A    
C32   H19   S    
C19   C24   A    
C14   H5    S    
H4    N2    S    
Cu2   O6    S    
H6    N1    S    
C16   C18   S    
C23   C24   A    
C6    F4    S    
C31   C36   A    
C25   C30   A    
C3    H2    S    
Cu1   N2    S    
C3    C16   S    
