data_mof_unit_26594.cif
_audit_creation_date              2013-03-05T15:44:35-0500
_audit_creation_method            fapswitch 2.2
_symmetry_space_group_name_H-M    P1
_symmetry_Int_Tables_number       1
_space_group_crystal_system       triclinic
_cell_length_a                    27.818941
_cell_length_b                    10.922117
_cell_length_c                    9.679099
_cell_angle_alpha                 90.830118
_cell_angle_beta                  90.389668
_cell_angle_gamma                 89.757881
_cell_volume                      2940.51245308

loop_
_atom_site_label
_atom_site_type_symbol
_atom_site_description
_atom_site_fract_x
_atom_site_fract_y
_atom_site_fract_z
_atom_type_partial_charge
O1    O     O_R   0.500010 0.321960 0.617040 -0.576701
O2    O     O_R   0.499990 0.321920 0.382900 -0.547444
C1    C     C_R   0.498863 0.265396 0.498709 0.787927
O3    O     O_R   0.430270 0.500040 0.617060 -0.601429
O4    O     O_R   0.430260 0.500000 0.382910 -0.517734
C2    C     C_R   0.407370 0.498539 0.499408 0.841404
Cu1   Cu    Cu3+1 0.500010 0.500020 0.638630 0.956130
Cu2   Cu    Cu3+1 0.499990 0.499980 0.361370 1.014839
O5    O     O_R   0.500010 0.678080 0.617100 -0.575412
O6    O     O_R   0.499990 0.678040 0.382960 -0.581792
O7    O     O_R   0.569740 0.500000 0.617090 -0.591329
O8    O     O_R   0.569730 0.499960 0.382940 -0.520124
C3    C     C_R   0.501984 0.734460 0.501192 0.843102
C4    C     C_R   0.592513 0.500551 0.500509 0.828191
C5    C     C_R   0.177803 0.384647 0.500751 0.606202
O9    O     O_2   0.202774 0.278975 0.486885 -0.522765
N1    N     N_R   0.201712 0.493240 0.511958 -0.447337
C6    C     C_R   0.177651 0.602207 0.524172 0.599944
C7    C     C_R   0.276588 0.474320 0.379780 0.372111
C8    C     C_R   0.327633 0.470387 0.376292 0.276250
C9    C     C_R   0.329667 0.517434 0.623242 -0.295450
C10   C     C_R   0.279774 0.514382 0.627236 -0.202721
C11   C     C_R   0.253237 0.493024 0.506468 0.289147
C12   C     C_R   0.101605 0.492729 0.521072 -0.116655
C13   C     C_R   0.127471 0.382522 0.503744 -0.005456
C14   C     C_R   0.102647 0.273145 0.483424 -0.176620
C15   C     C_R   0.126891 0.604844 0.526961 -0.127605
C16   C     C_R   0.354173 0.496238 0.498668 -0.116357
H1    H     H_    0.349117 0.536083 0.718507 0.196465
H2    H     H_    0.261525 0.529961 0.724442 0.171869
H3    H     H_    0.121620 0.188299 0.461335 0.192771
C17   C     C_R   0.645466 0.500868 0.503050 -0.139045
C18   C     C_R   0.974164 0.375488 0.527967 -0.035406
C19   C     C_R   0.974179 0.601410 0.558078 -0.017326
C20   C     C_R   0.948961 0.489199 0.540038 -0.046199
C21   C     C_R   0.946829 0.264652 0.530545 0.464221
C22   C     C_R   0.896417 0.270144 0.524221 -0.228000
C23   C     C_R   0.871971 0.381565 0.522323 -0.076387
C24   C     C_R   0.897897 0.490983 0.536956 -0.057497
C25   C     C_R   0.872489 0.602280 0.550627 -0.081370
C26   C     C_R   0.822115 0.602672 0.540645 0.568699
N2    N     N_R   0.797803 0.495321 0.521010 -0.454083
C27   C     C_R   0.821540 0.385618 0.513562 0.573068
C28   C     C_R   0.719671 0.454286 0.625411 -0.101324
C29   C     C_R   0.669675 0.456093 0.619929 -0.275303
C30   C     C_R   0.672377 0.546756 0.391831 0.463762
C31   C     C_R   0.722699 0.543055 0.397764 -0.183791
C32   C     C_R   0.746318 0.497320 0.514406 0.281110
O10   O     O_2   0.796413 0.280905 0.497031 -0.531551
C33   C     C_R   0.025467 0.377414 0.517410 0.079073
C34   C     C_R   0.050484 0.490651 0.529232 0.063718
C35   C     C_R   0.024919 0.602318 0.543009 -0.021705
C36   C     C_R   0.052837 0.271530 0.484600 -0.156000
H4    H     H_    0.649912 0.421100 0.706838 0.189480
H5    H     H_    0.737817 0.419301 0.716060 0.158360
H6    H     H_    0.876024 0.186135 0.527712 0.195171
H7    H     H_    0.037212 0.186392 0.451739 0.193502
O11   O     O_2   0.202966 0.707141 0.533093 -0.469837
C37   C     C_R   0.100851 0.715702 0.530346 0.490787
C38   C     C_R   0.947289 0.708350 0.595802 0.443252
C39   C     C_R   0.897478 0.709438 0.582346 -0.224699
O12   O     O_2   0.797572 0.709166 0.552162 -0.541383
C40   C     C_R   0.050649 0.712463 0.529836 -0.262685
H8    H     H_    0.878357 0.794063 0.604460 0.202869
H9    H     H_    0.743432 0.576304 0.311846 0.157763
H10   H     H_    0.032479 0.797824 0.510867 0.202084
C41   C     C_2   0.509254 0.931573 0.391451 -0.244242
C42   C     C_2   0.508445 0.865503 0.506261 -0.278417
H11   H     H_    0.507325 0.887663 0.290115 0.168097
H12   H     H_    0.514383 0.907886 0.607110 0.195542
C43   C     C_2   0.515645 0.065057 0.398592 0.314016
C44   C     C_2   0.491889 0.133272 0.494174 0.305456
C45   C     C_2   0.471675 0.431245 0.920426 -0.050609
N3    N     N_2   0.499480 0.498660 0.846910 -0.280183
H13   H     H_    0.446160 0.371866 0.867449 0.153946
H14   H     H_    0.524724 0.552606 0.895335 0.197494
C46   C     C_2   0.472681 0.428608 0.076224 -0.002949
N4    N     N_2   0.499460 0.498630 0.153040 -0.274392
H15   H     H_    0.449076 0.364329 0.126249 0.173212
H16   H     H_    0.520962 0.562250 0.107476 0.198073
O13   O     O_3   0.248474 0.462765 0.262208 -0.713662
H17   H     H_    0.267151 0.490601 0.181892 0.330021
O14   O     O_3   0.124197 0.826743 0.516428 -0.532830
C47   C     C_3   0.115878 0.901194 0.634401 -0.228221
H18   H     H_    0.123180 0.851183 0.731915 0.155128
H19   H     H_    0.078708 0.938884 0.634148 0.158503
H20   H     H_    0.140819 0.980107 0.631968 0.205760
O15   O     O_3   0.968348 0.811878 0.652832 -0.608482
C48   C     C_3   0.976479 0.792251 0.794751 -0.296884
H21   H     H_    0.002092 0.715277 0.811659 0.163498
H22   H     H_    0.942163 0.775454 0.849767 0.170824
H23   H     H_    0.992835 0.876016 0.840651 0.198515
O16   O     O_3   0.649916 0.591612 0.275169 -0.563654
C49   C     C_3   0.644149 0.719248 0.292263 -0.279184
H24   H     H_    0.679544 0.766038 0.300695 0.174128
H25   H     H_    0.621581 0.742094 0.383762 0.143455
H26   H     H_    0.625345 0.755267 0.199850 0.186048
O17   O     O_3   0.545076 0.121112 0.303808 -0.731317
H27   H     H_    0.559679 0.056908 0.243729 0.327561
O18   O     O_3   0.460811 0.078665 0.587017 -0.605322
C50   C     C_3   0.415131 0.135491 0.582448 -0.288994
H28   H     H_    0.402221 0.148878 0.474398 0.152915
H29   H     H_    0.415406 0.224089 0.640319 0.165414
H30   H     H_    0.388938 0.075143 0.633762 0.207808
O19   O     O_3   0.968595 0.154051 0.563462 -0.583391
C51   C     C_3   0.955054 0.060189 0.468786 -0.300978
H31   H     H_    0.949924 0.093757 0.361407 0.138550
H32   H     H_    0.922180 0.013326 0.504725 0.201874
H33   H     H_    0.984290 0.990964 0.464938 0.206710
O20   O     O_3   0.352046 0.438428 0.257202 -0.732816
H34   H     H_    0.331544 0.383533 0.199961 0.327233

loop_
_geom_bond_atom_site_label_1
_geom_bond_atom_site_label_2
_geom_bond_distance
_ccdc_geom_bond_type
C19   C38   1.428679 A    
O16   C49   1.410074 S    
C26   N2    1.366307 A    
C20   C24   1.420717 A    
C7    C8    1.421110 A    
C12   C15   1.415010 A    
O13   H17   0.990156 S    
C38   O15   1.381883 S    
Cu1   Cu2   2.683617 S    
C46   N4    1.293626 D    
Cu1   O7    1.952392 S    
N1    C11   1.434702 S    
N3    H14   1.025201 S    
C21   C22   1.404394 A    
C47   H19   1.111332 S    
C23   C24   1.403370 A    
O7    C4    1.297937 A    
N4    H16   1.025250 S    
C5    C13   1.400966 A    
C51   H31   1.115148 S    
C5    O9    1.350072 S    
C18   C21   1.432927 A    
Cu1   O5    1.958926 S    
C19   C20   1.422694 A    
C45   N3    1.293946 D    
O5    C3    1.289181 A    
O20   H34   0.990306 S    
C51   H33   1.108565 S    
C19   C35   1.420125 A    
C22   H6    1.081867 S    
C6    O11   1.349106 S    
C2    C16   1.480162 S    
O14   C47   1.412013 S    
C47   H20   1.109365 S    
C48   H22   1.113462 S    
C12   C34   1.425138 A    
C40   H10   1.076174 S    
C14   H3    1.083845 S    
C50   H29   1.111084 S    
C9    C10   1.389317 A    
Cu2   N4    2.016241 S    
C45   H13   1.084738 S    
C26   O12   1.349844 S    
O3    Cu1   1.949884 S    
C33   C34   1.424481 A    
Cu1   N3    2.016386 S    
C46   H15   1.084726 S    
C43   O17   1.384763 S    
C33   C36   1.415361 A    
C41   C42   1.334112 D    
C50   H28   1.114893 S    
C47   H18   1.114400 S    
O3    C2    1.300993 A    
C4    C17   1.473144 S    
C24   C25   1.408603 A    
C36   H7    1.071334 S    
C27   O10   1.349878 S    
C8    C16   1.417038 A    
C49   H26   1.109322 S    
C18   C33   1.431812 A    
C9    H1    1.083142 S    
O6    C3    1.292828 A    
C25   C39   1.393159 A    
C34   C35   1.414343 A    
C38   C39   1.390925 A    
O1    C1    1.293702 A    
C39   H8    1.083839 S    
C7    C11   1.403495 A    
C22   C23   1.391865 A    
C31   C32   1.399763 A    
Cu2   O8    1.949879 S    
N1    C6    1.367024 A    
C17   C29   1.405488 A    
N2    C32   1.433338 S    
C12   C13   1.408289 A    
C48   H23   1.109244 S    
C49   H25   1.113816 S    
C8    O20   1.381574 S    
Cu2   O6    1.952975 S    
C25   C26   1.403998 A    
C9    C16   1.404990 A    
O8    C4    1.298735 A    
C29   H4    1.083202 S    
C50   H30   1.109304 S    
N2    C27   1.366881 A    
C14   C36   1.385972 A    
C28   C29   1.391546 A    
C44   O18   1.393256 S    
C5    N1    1.364869 A    
C30   C31   1.401134 A    
C10   H2    1.083071 S    
C21   O19   1.389161 S    
O1    Cu1   1.952975 S    
C17   C30   1.414309 A    
O2    Cu2   1.958926 S    
C6    C15   1.412687 A    
C37   O14   1.386877 S    
C35   C40   1.410257 A    
O4    Cu2   1.952395 S    
O19   C51   1.415623 S    
C37   C40   1.397145 A    
O2    C1    1.288131 A    
C13   C14   1.393208 A    
C43   C44   1.353484 D    
C15   C37   1.408411 A    
C28   H5    1.082936 S    
O4    C2    1.299073 A    
C30   O16   1.381788 S    
C51   H32   1.110298 S    
O18   C50   1.412583 S    
C18   C20   1.427324 A    
C1    C44   1.456862 S    
C41   C43   1.470051 S    
C49   H24   1.113248 S    
C23   C27   1.405457 A    
O15   C48   1.409945 S    
C42   H12   1.086173 S    
O17   H27   0.991927 S    
C45   C46   1.508738 S    
C10   C11   1.395570 A    
C41   H11   1.086653 S    
C48   H21   1.112930 S    
C7    O13   1.381010 S    
C31   H9    1.083135 S    
C28   C32   1.397593 A    
C3    C42   1.443348 S    
