data_mof_unit_14302.cif
_audit_creation_date              2012-12-11T21:06:21-0500
_audit_creation_method            fapswitch 2.2
_symmetry_space_group_name_H-M    P1
_symmetry_Int_Tables_number       1
_space_group_crystal_system       triclinic
_cell_length_a                    36.456516
_cell_length_b                    39.386074
_cell_length_c                    8.397031
_cell_angle_alpha                 89.999987
_cell_angle_beta                  93.757873
_cell_angle_gamma                 89.979269
_cell_volume                      12031.1963022

loop_
_atom_site_label
_atom_site_type_symbol
_atom_type_description
_atom_site_fract_x
_atom_site_fract_y
_atom_site_fract_z
_atom_type_partial_charge
Ba1   Ba    Ba6+2 0.000060 0.523150 0.844950 1.672688
Ba2   Ba    Ba6+2 0.000060 0.476850 0.344950 1.673173
Ba3   Ba    Ba6+2 0.500060 0.023150 0.844950 1.671819
Ba4   Ba    Ba6+2 0.500060 0.976850 0.344950 1.671766
C1    C     C_3   0.986273 0.691154 0.644289 -0.316480
C2    C     C_3   0.986414 0.308813 0.143890 -0.315788
C3    C     C_3   0.486078 0.190954 0.643785 -0.320144
C4    C     C_3   0.486648 0.808641 0.145069 -0.318939
C5    C     C_R   0.868616 0.312854 0.984798 0.595290
C6    C     C_R   0.868343 0.687004 0.486353 0.590750
C7    C     C_R   0.368603 0.812791 0.984242 0.595527
C8    C     C_R   0.368254 0.187086 0.484518 0.590413
C9    C     C_2   0.908555 0.365255 0.792201 -0.082579
C10   C     C_2   0.908532 0.634804 0.292451 -0.082403
C11   C     C_2   0.408546 0.865251 0.792212 -0.081621
C12   C     C_2   0.408516 0.134768 0.292250 -0.082939
C13   C     C_3   0.942123 0.387145 0.773125 -0.105693
C14   C     C_3   0.942105 0.612889 0.273246 -0.105135
C15   C     C_3   0.442074 0.887174 0.773076 -0.098750
C16   C     C_3   0.442134 0.112904 0.273243 -0.106723
C17   C     C_1   0.919176 0.424355 0.979556 0.036410
C18   C     C_1   0.919153 0.575639 0.479501 0.036617
C19   C     C_1   0.419156 0.924351 0.979625 0.036392
C20   C     C_1   0.419190 0.075652 0.479547 0.035987
C21   C     C_2   0.893574 0.402054 0.014854 -0.087407
C22   C     C_2   0.893482 0.597899 0.514606 -0.088012
C23   C     C_2   0.393575 0.902033 0.014970 -0.087320
C24   C     C_2   0.393551 0.097934 0.514766 -0.088796
C25   C     C_2   0.886820 0.370908 0.914370 0.222273
C26   C     C_2   0.886736 0.629075 0.414323 0.222966
C27   C     C_2   0.386822 0.870887 0.914454 0.220676
C28   C     C_2   0.386748 0.129073 0.414262 0.222065
C29   C     C_R   0.804911 0.298392 0.027916 -0.079398
C30   C     C_R   0.804587 0.701164 0.530071 -0.081697
C31   C     C_R   0.304921 0.798360 0.028022 -0.079464
C32   C     C_R   0.304568 0.201155 0.529912 -0.081707
C33   C     C_R   0.795085 0.332401 0.994340 -0.031816
C34   C     C_R   0.794815 0.667260 0.493968 -0.035162
C35   C     C_R   0.295117 0.832407 0.995168 -0.031805
C36   C     C_R   0.294871 0.167164 0.495584 -0.035250
C37   C     C_R   0.758108 0.341891 0.997995 -0.055998
C38   C     C_R   0.757812 0.657719 0.496268 -0.056880
C39   C     C_R   0.258163 0.841937 0.999588 -0.055984
C40   C     C_R   0.257940 0.157528 0.499738 -0.056943
C41   C     C_R   0.841913 0.288586 0.021676 -0.026762
C42   C     C_R   0.841574 0.711114 0.524589 -0.025215
C43   C     C_R   0.341900 0.788520 0.021073 -0.026859
C44   C     C_R   0.341475 0.211193 0.522617 -0.025001
C45   C     C_3   0.996620 0.658759 0.103768 0.320744
C46   C     C_3   0.996332 0.341004 0.604279 0.319069
C47   C     C_3   0.496387 0.158945 0.103693 0.318275
C48   C     C_3   0.498625 0.842608 0.600606 0.334749
C49   C     C_2   0.941626 0.420041 0.863433 -0.267898
C50   C     C_2   0.941643 0.579992 0.363578 -0.268160
C51   C     C_2   0.441590 0.920054 0.863454 -0.270824
C52   C     C_2   0.441671 0.080001 0.363568 -0.268742
C53   C     C_2   0.058195 0.580000 0.324921 -0.266338
C54   C     C_2   0.058281 0.420042 0.825076 -0.266072
C55   C     C_2   0.558211 0.080000 0.324864 -0.267457
C56   C     C_2   0.558187 0.919978 0.824766 -0.267389
C57   C     C_R   0.212805 0.758594 0.086534 0.034946
C58   C     C_R   0.212402 0.240623 0.590904 0.037914
C59   C     C_R   0.712789 0.258567 0.085722 0.034917
C60   C     C_R   0.712393 0.740784 0.588933 0.037932
C61   C     C_R   0.261491 0.716790 0.160158 0.010941
C62   C     C_R   0.261084 0.282020 0.668501 -0.057108
C63   C     C_R   0.761476 0.216883 0.160778 0.011056
C64   C     C_R   0.761107 0.781886 0.670462 -0.057067
C65   C     C_R   0.223575 0.725488 0.139322 -0.007670
C66   C     C_R   0.223201 0.273627 0.644749 0.016320
C67   C     C_R   0.723563 0.225518 0.139233 -0.007652
C68   C     C_R   0.723215 0.773649 0.644744 0.016367
C69   C     C_R   0.174825 0.765423 0.058963 -0.095173
C70   C     C_R   0.174422 0.233945 0.562779 -0.099683
C71   C     C_R   0.674821 0.265327 0.057507 -0.095126
C72   C     C_R   0.674424 0.734278 0.558769 -0.099756
C73   C     C_R   0.148366 0.741138 0.088094 -0.061420
C74   C     C_R   0.148026 0.258398 0.591037 -0.063628
C75   C     C_R   0.648370 0.241036 0.086669 -0.061405
C76   C     C_R   0.648048 0.758754 0.586943 -0.063537
C77   C     C_R   0.158487 0.708959 0.146872 -0.015426
C78   C     C_R   0.158221 0.290621 0.649110 -0.013258
C79   C     C_R   0.658486 0.208918 0.146120 -0.015581
C80   C     C_R   0.658251 0.790823 0.647015 -0.012987
C81   C     C_R   0.196117 0.701046 0.173024 -0.087153
C82   C     C_R   0.195843 0.298334 0.676353 -0.086870
C83   C     C_R   0.696108 0.201072 0.172946 -0.087109
C84   C     C_R   0.695867 0.798367 0.676328 -0.086894
C85   C     C_R   0.206210 0.668776 0.233443 -0.072392
C86   C     C_R   0.206075 0.330710 0.735330 -0.110330
C87   C     C_R   0.706196 0.168866 0.234049 -0.072406
C88   C     C_R   0.706101 0.830589 0.737325 -0.110458
C89   C     C_3   0.012737 0.691628 0.044781 -0.305630
C90   C     C_3   0.012649 0.308258 0.544613 -0.304548
C91   C     C_3   0.512603 0.191737 0.044154 -0.305778
C92   C     C_3   0.512813 0.808498 0.546283 -0.307775
C93   C     C_R   0.178663 0.644770 0.265573 0.610143
C94   C     C_R   0.178622 0.354938 0.765664 0.609390
C95   C     C_R   0.678655 0.144853 0.266173 0.610210
C96   C     C_R   0.678651 0.854824 0.767705 0.609802
C97   C     C_R   0.131641 0.684534 0.179997 0.591938
C98   C     C_R   0.131472 0.315271 0.680679 0.594260
C99   C     C_R   0.631645 0.184487 0.179265 0.592253
C100  C     C_R   0.631513 0.815485 0.678544 0.594190
C101  C     C_2   0.091027 0.635054 0.394753 -0.082557
C102  C     C_2   0.091044 0.364938 0.894757 -0.083075
C103  C     C_2   0.591019 0.135074 0.394653 -0.081981
C104  C     C_2   0.590947 0.864861 0.894325 -0.084131
C105  C     C_3   0.057666 0.612950 0.415036 -0.107503
C106  C     C_3   0.057701 0.387080 0.915034 -0.107281
C107  C     C_3   0.557686 0.112942 0.415017 -0.104037
C108  C     C_3   0.557592 0.887003 0.914685 -0.109198
C109  C     C_1   0.081238 0.575231 0.211290 0.037564
C110  C     C_1   0.081285 0.424759 0.711252 0.037236
C111  C     C_1   0.581259 0.075233 0.211264 0.037677
C112  C     C_1   0.581271 0.924758 0.711294 0.035915
C113  C     C_2   0.107633 0.596969 0.179205 -0.090241
C114  C     C_2   0.107645 0.402968 0.679039 -0.089434
C115  C     C_2   0.607658 0.096970 0.179219 -0.090143
C116  C     C_2   0.607708 0.903026 0.679389 -0.091248
C117  C     C_2   0.113655 0.628529 0.276931 0.231916
C118  C     C_2   0.113650 0.371400 0.776803 0.232371
C119  C     C_2   0.613659 0.128543 0.276881 0.231676
C120  C     C_2   0.613660 0.871417 0.776859 0.232361
C121  C     C_R   0.740115 0.283643 0.060936 0.022553
C122  C     C_R   0.739723 0.715714 0.563413 0.021021
C123  C     C_R   0.240142 0.783659 0.061786 0.022571
C124  C     C_R   0.239762 0.215586 0.565266 0.021003
C125  C     C_R   0.777680 0.274075 0.066511 0.036533
C126  C     C_R   0.777313 0.725245 0.570547 0.059529
C127  C     C_R   0.277694 0.774043 0.066618 0.036514
C128  C     C_R   0.277297 0.225235 0.570437 0.059544
C129  C     C_R   0.788253 0.240299 0.108042 0.037337
C130  C     C_R   0.787861 0.758792 0.615611 0.014295
C131  C     C_R   0.288253 0.740220 0.107411 0.037316
C132  C     C_R   0.287793 0.258894 0.613589 0.014237
C133  C     C_3   0.895924 0.522695 0.143138 0.296212
C134  C     C_3   0.895928 0.477325 0.643211 0.296377
C135  C     C_3   0.395931 0.022696 0.143171 0.296401
C136  C     C_3   0.395904 0.977338 0.643250 0.296466
C137  C     C_R   0.731219 0.318112 0.029858 -0.099016
C138  C     C_R   0.730844 0.681373 0.529279 -0.104268
C139  C     C_R   0.231270 0.818165 0.031474 -0.099035
C140  C     C_R   0.230963 0.181163 0.532895 -0.104248
C141  C     C_R   0.851371 0.254491 0.048581 -0.080848
C142  C     C_R   0.850939 0.745175 0.554133 -0.066318
C143  C     C_R   0.351334 0.754390 0.047246 -0.080678
C144  C     C_R   0.350752 0.245332 0.550256 -0.066383
C145  C     C_R   0.271054 0.685402 0.237134 0.370430
C146  C     C_R   0.270473 0.313359 0.746900 0.362743
C147  C     C_R   0.771019 0.185570 0.238416 0.370406
C148  C     C_R   0.770456 0.813040 0.750678 0.362757
C149  C     C_R   0.243520 0.661598 0.267067 -0.112558
C150  C     C_R   0.243408 0.337629 0.770572 -0.021096
C151  C     C_R   0.743491 0.161760 0.268337 -0.112621
C152  C     C_R   0.743412 0.837330 0.774434 -0.021139
C153  C     C_R   0.825071 0.230807 0.087842 -0.045788
C154  C     C_R   0.824559 0.768597 0.595830 -0.115571
C155  C     C_R   0.325037 0.730700 0.086484 -0.045736
C156  C     C_R   0.324377 0.268761 0.591881 -0.115780
C157  C     C_3   0.862328 0.545687 0.132623 -0.336724
C158  C     C_3   0.862341 0.454344 0.632575 -0.336809
C159  C     C_3   0.362331 0.045683 0.132779 -0.336828
C160  C     C_3   0.362314 0.954363 0.632564 -0.336820
C161  C     C_3   0.103982 0.476863 0.047279 0.291319
C162  C     C_3   0.103939 0.523139 0.547319 0.292058
C163  C     C_3   0.603949 0.976850 0.047270 0.291026
C164  C     C_3   0.603945 0.023135 0.547297 0.292089
C165  C     C_3   0.137366 0.453618 0.060379 -0.329027
C166  C     C_3   0.137318 0.546369 0.560279 -0.330176
C167  C     C_3   0.637333 0.953605 0.060134 -0.328600
C168  C     C_3   0.637324 0.046365 0.560292 -0.330242
C169  C     C_3   0.003029 0.658574 0.584869 0.325973
C170  C     C_3   0.003252 0.341332 0.084450 0.325168
C171  C     C_3   0.501809 0.157696 0.586869 0.333927
C172  C     C_3   0.503189 0.841311 0.085626 0.324488
C173  C     C_R   0.822422 0.356184 0.957286 0.592269
C174  C     C_R   0.822238 0.643637 0.455951 0.592328
C175  C     C_R   0.322450 0.856188 0.958063 0.592356
C176  C     C_R   0.322294 0.143551 0.457451 0.592535
H1    H     H_    0.980307 0.640824 0.547529 0.014539
H2    H     H_    0.980581 0.359036 0.046158 0.013647
H3    H     H_    0.478679 0.139813 0.558381 0.020801
H4    H     H_    0.480362 0.858963 0.048465 0.016193
H5    H     H_    0.840566 0.534906 0.204169 0.137594
H6    H     H_    0.840547 0.465150 0.703920 0.137361
H7    H     H_    0.340584 0.034895 0.204387 0.137585
H8    H     H_    0.340506 0.965184 0.703785 0.137363
H9    H     H_    0.869742 0.571277 0.179264 0.077934
H10   H     H_    0.869746 0.428761 0.679379 0.077646
H11   H     H_    0.369748 0.071272 0.179423 0.078006
H12   H     H_    0.369706 0.928785 0.679483 0.077378
H13   H     H_    0.851573 0.548192 0.006318 0.133949
H14   H     H_    0.851629 0.451819 0.506222 0.134197
H15   H     H_    0.351555 0.048192 0.006504 0.133954
H16   H     H_    0.351627 0.951821 0.506185 0.134249
H17   H     H_    0.094754 0.479762 0.920142 0.005089
H18   H     H_    0.094669 0.520258 0.420224 0.004969
H19   H     H_    0.594665 0.979742 0.920191 0.005272
H20   H     H_    0.594687 0.020248 0.420191 0.004993
H21   H     H_    0.081880 0.465101 0.113485 0.077200
H22   H     H_    0.081857 0.534900 0.613690 0.077360
H23   H     H_    0.581875 0.965095 0.113659 0.077861
H24   H     H_    0.581856 0.034898 0.613618 0.077357
H25   H     H_    0.159481 0.464144 0.990048 0.138336
H26   H     H_    0.159408 0.535847 0.489748 0.137997
H27   H     H_    0.659410 0.964118 0.989538 0.138123
H28   H     H_    0.659421 0.035840 0.489809 0.137890
H29   H     H_    0.129880 0.428035 0.013925 0.082177
H30   H     H_    0.129809 0.571963 0.513977 0.082333
H31   H     H_    0.629823 0.928015 0.013845 0.083248
H32   H     H_    0.629819 0.071957 0.513955 0.082369
H33   H     H_    0.147689 0.451169 0.187278 0.135782
H34   H     H_    0.147686 0.548791 0.687127 0.135184
H35   H     H_    0.647721 0.951177 0.186960 0.135850
H36   H     H_    0.647681 0.048793 0.687153 0.135248
H37   H     H_    0.018551 0.665654 0.480099 -0.044884
H38   H     H_    0.018936 0.334179 0.980386 -0.044361
H39   H     H_    0.515925 0.163696 0.476932 -0.053909
H40   H     H_    0.518708 0.834294 0.980826 -0.041178
H41   H     H_    0.971208 0.704320 0.543115 0.125568
H42   H     H_    0.971444 0.295607 0.042618 0.125509
H43   H     H_    0.470748 0.203802 0.542387 0.127236
H44   H     H_    0.471211 0.795670 0.044317 0.127821
H45   H     H_    0.966672 0.685391 0.736181 0.162950
H46   H     H_    0.966723 0.314654 0.235290 0.163379
H47   H     H_    0.466891 0.186137 0.738420 0.159739
H48   H     H_    0.467425 0.814231 0.238729 0.163198
H49   H     H_    0.027857 0.704824 0.145761 0.117284
H50   H     H_    0.027689 0.294962 0.645555 0.116684
H51   H     H_    0.527870 0.204894 0.144875 0.117840
H52   H     H_    0.528379 0.795833 0.647698 0.118811
H53   H     H_    0.877475 0.406093 0.117517 0.105350
H54   H     H_    0.877294 0.593793 0.616935 0.104448
H55   H     H_    0.377500 0.906055 0.117723 0.105888
H56   H     H_    0.377446 0.093880 0.617388 0.105354
H57   H     H_    0.749663 0.367909 0.975040 0.123500
H58   H     H_    0.749406 0.631775 0.471162 0.124075
H59   H     H_    0.249738 0.867985 0.977235 0.123491
H60   H     H_    0.249596 0.131518 0.476026 0.124098
H61   H     H_    0.094464 0.658148 0.464740 0.083502
H62   H     H_    0.094470 0.341850 0.964813 0.083132
H63   H     H_    0.594426 0.158183 0.464550 0.083832
H64   H     H_    0.594318 0.841716 0.963996 0.082768
H65   H     H_    0.119676 0.747818 0.064604 0.115836
H66   H     H_    0.119327 0.251849 0.567053 0.116098
H67   H     H_    0.619689 0.247662 0.062671 0.115859
H68   H     H_    0.619357 0.752341 0.561341 0.116035
H69   H     H_    0.164569 0.789193 0.010548 0.067883
H70   H     H_    0.164135 0.210178 0.514581 0.068751
H71   H     H_    0.664571 0.289046 0.008569 0.067912
H72   H     H_    0.664147 0.710641 0.508981 0.068738
H73   H     H_    0.703622 0.327782 0.032997 0.070591
H74   H     H_    0.703206 0.671727 0.530763 0.071610
H75   H     H_    0.203695 0.827864 0.035251 0.070575
H76   H     H_    0.203392 0.171441 0.535876 0.071620
H77   H     H_    0.904488 0.342814 0.718063 0.096780
H78   H     H_    0.904479 0.657288 0.218570 0.095531
H79   H     H_    0.404499 0.842813 0.718034 0.098186
H80   H     H_    0.404409 0.157199 0.218060 0.096341
H81   H     H_    0.879270 0.245772 0.037123 0.122869
H82   H     H_    0.878830 0.754012 0.543830 0.123635
H83   H     H_    0.379208 0.745649 0.035218 0.122940
H84   H     H_    0.378564 0.254224 0.538476 0.123817
H85   H     H_    0.008198 0.708412 0.694102 0.098088
H86   H     H_    0.008287 0.291565 0.194317 0.097786
H87   H     H_    0.508582 0.208077 0.689297 0.099952
H88   H     H_    0.508724 0.791258 0.192547 0.097138
H89   H     H_    0.251438 0.637569 0.322077 0.119639
H90   H     H_    0.251766 0.361489 0.826087 0.151608
H91   H     H_    0.751397 0.137786 0.323858 0.119609
H92   H     H_    0.751748 0.861050 0.831425 0.151529
H93   H     H_    0.125007 0.592119 0.081471 0.094558
H94   H     H_    0.124994 0.407781 0.581197 0.095404
H95   H     H_    0.625050 0.092110 0.081559 0.094418
H96   H     H_    0.625151 0.907908 0.581944 0.095305
H97   H     H_    0.834060 0.204750 0.093773 0.145872
H98   H     H_    0.833278 0.794727 0.607145 0.139847
H99   H     H_    0.333995 0.704626 0.091818 0.145871
H100  H     H_    0.333002 0.294934 0.601631 0.139927
H101  H     H_    0.963845 0.437699 0.846261 0.073247
H102  H     H_    0.963886 0.562342 0.346468 0.073278
H103  H     H_    0.463812 0.937708 0.846293 0.073508
H104  H     H_    0.463918 0.062355 0.346492 0.073702
H105  H     H_    0.035918 0.562398 0.341888 0.073722
H106  H     H_    0.036060 0.437701 0.842323 0.073587
H107  H     H_    0.535932 0.062401 0.341814 0.073758
H108  H     H_    0.535950 0.937627 0.841909 0.074337
H109  H     H_    0.019622 0.641309 0.140127 0.021256
H110  H     H_    0.019270 0.358400 0.642791 0.019292
H111  H     H_    0.519370 0.141541 0.141472 0.021104
H112  H     H_    0.522409 0.860174 0.622071 0.032959
H113  H     H_    0.981157 0.665485 0.208890 -0.040256
H114  H     H_    0.980509 0.334043 0.708234 -0.037887
H115  H     H_    0.480681 0.165840 0.208021 -0.036313
H116  H     H_    0.485490 0.837781 0.714462 -0.056458
H117  H     H_    0.032161 0.686233 0.951850 0.171608
H118  H     H_    0.032186 0.313850 0.452259 0.172214
H119  H     H_    0.531915 0.186244 0.950811 0.172352
H120  H     H_    0.531466 0.812130 0.448446 0.166650
H121  H     H_    0.990465 0.708648 0.996216 0.097068
H122  H     H_    0.990478 0.291232 0.495003 0.097396
H123  H     H_    0.490367 0.208853 0.995926 0.096390
H124  H     H_    0.489482 0.791795 0.505629 0.099933
H125  H     H_    0.905658 0.519845 0.269768 0.006147
H126  H     H_    0.905624 0.480186 0.769875 0.006165
H127  H     H_    0.405688 0.019846 0.269773 0.006343
H128  H     H_    0.405581 0.980209 0.769934 0.006351
H129  H     H_    0.917636 0.534670 0.075390 0.076696
H130  H     H_    0.917666 0.465336 0.575605 0.076566
H131  H     H_    0.417629 0.034674 0.075350 0.076918
H132  H     H_    0.417652 0.965341 0.575733 0.076480
N1    N     N_R   0.858789 0.346290 0.952545 -0.425335
N2    N     N_R   0.858604 0.653614 0.452423 -0.425114
N3    N     N_R   0.358796 0.846262 0.952634 -0.425276
N4    N     N_R   0.358597 0.153610 0.452268 -0.424909
N5    N     N_R   0.141848 0.652903 0.239558 -0.426017
N6    N     N_R   0.141782 0.346938 0.739457 -0.423799
N7    N     N_R   0.641849 0.152920 0.239494 -0.425990
N8    N     N_R   0.641813 0.846979 0.739479 -0.423698
O1    O     O_2   0.072110 0.546320 0.923350 -0.455325
O2    O     O_2   0.072110 0.453680 0.423350 -0.455220
O3    O     O_2   0.572110 0.046320 0.923350 -0.455143
O4    O     O_2   0.572110 0.953680 0.423350 -0.455369
O5    O     O_3   0.886051 0.509074 0.579178 -0.626307
O6    O     O_3   0.886043 0.490942 0.079218 -0.626212
O7    O     O_3   0.386043 0.009084 0.579129 -0.626069
O8    O     O_3   0.386044 0.990943 0.079266 -0.626181
O9    O     O_3   0.973219 0.643931 0.982916 -0.562349
O10   O     O_3   0.973264 0.356071 0.482771 -0.561578
O11   O     O_3   0.473199 0.143927 0.982545 -0.562984
O12   O     O_3   0.473146 0.856051 0.483487 -0.565166
O13   O     O_3   0.958050 0.483830 0.034350 -0.497261
O14   O     O_3   0.958050 0.516170 0.534350 -0.497199
O15   O     O_3   0.458050 0.983830 0.034350 -0.497105
O16   O     O_3   0.458050 0.016170 0.534350 -0.497003
O17   O     O_2   0.813747 0.385587 0.927296 -0.595228
O18   O     O_2   0.813646 0.614297 0.424157 -0.595372
O19   O     O_2   0.313788 0.885619 0.928636 -0.595240
O20   O     O_2   0.313754 0.114142 0.427023 -0.595412
O21   O     O_2   0.099086 0.691388 0.155228 -0.621866
O22   O     O_2   0.098906 0.308575 0.655341 -0.622680
O23   O     O_2   0.599099 0.191279 0.153926 -0.621439
O24   O     O_2   0.598962 0.808955 0.651237 -0.623411
O25   O     O_2   0.900772 0.304241 0.982903 -0.621052
O26   O     O_2   0.900476 0.695699 0.484929 -0.621822
O27   O     O_2   0.400742 0.804149 0.981830 -0.620514
O28   O     O_2   0.400330 0.195866 0.481743 -0.622384
O29   O     O_2   0.187452 0.616795 0.318384 -0.592302
O30   O     O_2   0.187508 0.382962 0.817435 -0.592183
O31   O     O_2   0.687440 0.116932 0.319551 -0.592344
O32   O     O_2   0.687531 0.882709 0.821250 -0.591966
O33   O     O_3   0.042000 0.516250 0.155330 -0.496372
O34   O     O_3   0.042000 0.483750 0.655330 -0.496472
O35   O     O_3   0.542000 0.016250 0.155330 -0.496276
O36   O     O_3   0.542000 0.983750 0.655330 -0.496167
O37   O     O_3   0.012540 0.574900 0.645500 -0.466096
O38   O     O_3   0.012540 0.425100 0.145500 -0.465935
O39   O     O_3   0.512540 0.074900 0.645500 -0.467654
O40   O     O_3   0.512540 0.925100 0.145500 -0.466220
O41   O     O_2   0.079002 0.598348 0.740869 -0.479135
O42   O     O_2   0.079009 0.401640 0.240924 -0.478895
O43   O     O_2   0.579028 0.098337 0.740850 -0.478823
O44   O     O_2   0.579061 0.901703 0.240275 -0.478745
O45   O     O_3   0.113946 0.508557 0.111445 -0.627522
O46   O     O_3   0.113933 0.491434 0.611356 -0.627391
O47   O     O_3   0.613938 0.008547 0.111351 -0.627614
O48   O     O_3   0.613934 0.991433 0.611385 -0.627285
O49   O     O_3   0.026584 0.643929 0.705951 -0.559165
O50   O     O_3   0.026614 0.356071 0.205831 -0.558809
O51   O     O_3   0.526649 0.143935 0.705549 -0.560606
O52   O     O_3   0.526710 0.856068 0.206429 -0.560247
O53   O     O_2   0.928110 0.546600 0.766510 -0.455396
O54   O     O_2   0.928110 0.453400 0.266510 -0.455342
O55   O     O_2   0.428110 0.046600 0.766510 -0.455545
O56   O     O_2   0.428110 0.953400 0.266510 -0.455224
O57   O     O_3   0.987780 0.574950 0.044470 -0.464746
O58   O     O_3   0.987780 0.425050 0.544470 -0.464500
O59   O     O_3   0.487780 0.074950 0.044470 -0.464408
O60   O     O_3   0.487780 0.925050 0.544470 -0.467539
O61   O     O_2   0.921146 0.598108 0.948148 -0.482530
O62   O     O_2   0.921168 0.401912 0.448072 -0.482326
O63   O     O_2   0.421139 0.098078 0.948273 -0.482805
O64   O     O_2   0.421127 0.901934 0.448021 -0.482080
P1    P     P_3+3 0.075650 0.535480 0.098240 0.994139
P2    P     P_3+3 0.075650 0.464520 0.598240 0.994338
P3    P     P_3+3 0.575650 0.035480 0.098240 0.994296
P4    P     P_3+3 0.575650 0.964520 0.598240 0.993944
P5    P     P_3+3 0.924520 0.535770 0.591580 0.993687
P6    P     P_3+3 0.924520 0.464230 0.091580 0.993733
P7    P     P_3+3 0.424520 0.035770 0.591580 0.993649
P8    P     P_3+3 0.424520 0.964230 0.091580 0.993933
P9    P     P_3+3 0.954899 0.606977 0.061968 0.968548
P10   P     P_3+3 0.954925 0.393025 0.561878 0.969410
P11   P     P_3+3 0.454909 0.106986 0.061921 0.968006
P12   P     P_3+3 0.454876 0.893086 0.561938 0.967596
P13   P     P_3+3 0.045201 0.392939 0.127017 0.972121
P14   P     P_3+3 0.045180 0.607063 0.627032 0.971625
P15   P     P_3+3 0.545191 0.892921 0.126881 0.971080
P16   P     P_3+3 0.545208 0.107030 0.626963 0.970872
O65   O     O_3   0.306773 0.679450 0.296122 -0.744161
H133  H     H_    0.308555 0.656812 0.347801 0.307047
O66   O     O_3   0.304912 0.320091 0.817098 -0.727472
H134  H     H_    0.315125 0.298432 0.860836 0.302743
O67   O     O_3   0.806701 0.179707 0.298022 -0.744279
H135  H     H_    0.808469 0.157118 0.350146 0.307021
O68   O     O_3   0.804797 0.819538 0.822510 -0.727481
H136  H     H_    0.814843 0.797760 0.865625 0.302660

loop_
_geom_bond_atom_site_label_1
_geom_bond_atom_site_label_2
_ccdc_geom_bond_type
C50   H102  S    
C1    H85   S    
C83   C87   A    
C29   C41   A    
C79   C83   A    
C112  P4    S    
C60   C68   A    
C31   C43   A    
Ba4   O60   S    
C10   C26   D    
C165  H25   S    
O8    P8    S    
C27   N3    S    
C134  O5    S    
Ba4   O40   S    
C58   C66   A    
C144  C156  A    
O4    P4    D    
C145  C149  A    
C70   H70   S    
C36   C176  A    
C7    C43   A    
C8    O28   D    
C53   C105  S    
C148  C152  A    
C55   C107  S    
C45   H113  S    
C147  C151  A    
C89   H117  S    
C5    N1    Am   
C76   C80   A    
C19   C51   D    
Ba2   O13   S    
C51   H103  S    
C103  H63   S    
C126  C130  A    
C104  C120  D    
C101  H61   S    
Ba2   P2    S    
C95   O31   D    
Ba3   P7    S    
C21   C25   S    
C131  C155  A    
C23   C27   S    
C24   C28   S    
C6    O26   D    
C113  H93   S    
C82   C86   A    
Ba4   O35   S    
C163  C167  S    
C2    C170  S    
O61   P9    D    
C55   H107  S    
O55   P7    D    
C56   H108  S    
O56   P8    D    
C46   H114  S    
C162  H18   S    
C47   H111  S    
O52   P15   S    
C3    H43   S    
C74   C78   A    
Ba1   O1    S    
C32   C36   A    
C12   C16   S    
C93   N5    Am   
C57   C123  A    
C123  C139  A    
C48   H116  S    
C95   N7    Am   
C124  C140  A    
C61   C131  A    
C39   H59   S    
C152  H92   S    
C108  P15   S    
C157  H9    S    
C59   C67   A    
C125  C129  A    
C143  H83   S    
C72   H72   S    
C158  H10   S    
C133  O6    S    
C171  H3    S    
C172  H4    S    
C54   C106  S    
C80   C84   A    
C15   P12   S    
C160  H8    S    
C166  H26   S    
C13   P10   S    
C115  C119  S    
C20   C52   D    
C165  H33   S    
O35   P3    S    
Ba4   P8    S    
O33   P1    S    
O67   H135  S    
C133  C157  S    
C62   C66   A    
C3    H47   S    
C1    H45   S    
O46   P2    S    
C61   C145  A    
O14   P5    S    
C123  C127  A    
C153  H97   S    
C121  C125  A    
C69   C73   A    
C85   C93   A    
C91   H123  S    
C45   C89   S    
C168  H36   S    
C71   C75   A    
C47   C91   S    
O2    P2    D    
Ba1   O37   S    
C155  H99   S    
C156  H100  S    
C16   C52   S    
O39   P16   S    
C170  H2    S    
O65   H133  S    
C38   H58   S    
C18   C50   D    
C77   C97   A    
C87   C151  A    
C79   C99   A    
C107  P16   S    
C41   C141  A    
C20   P7    S    
C25   N1    S    
C32   C128  A    
C162  H22   S    
C12   H80   S    
Ba1   P5    S    
C28   N4    S    
O57   P9    S    
C17   P6    S    
O49   P14   S    
C114  C118  S    
C9    H77   S    
C85   C149  A    
Ba3   O3    S    
C121  C137  A    
C2    H86   S    
C30   C42   A    
C172  O52   S    
C22   H54   S    
C164  O48   S    
C139  H75   S    
C104  H64   S    
O63   P11   D    
C40   H60   S    
C116  H96   S    
C69   H69   S    
O12   P12   S    
Ba2   O54   S    
C43   C143  A    
C96   O32   D    
C173  N1    Am   
C88   C152  A    
C53   H105  S    
C46   C90   S    
C53   C109  D    
C90   H118  S    
C112  C116  D    
C171  H39   S    
C75   H67   S    
C175  O19   D    
C162  O46   S    
Ba1   O13   S    
C166  H30   S    
C128  C132  A    
Ba3   O15   S    
C102  C118  D    
C78   C98   A    
C157  H13   S    
C111  P3    S    
C144  H84   S    
C3    H87   S    
Ba2   P6    S    
C18   C22   D    
C109  P1    S    
C24   H56   S    
C109  C113  D    
C136  H128  S    
C22   C26   S    
C111  C115  D    
C141  H81   S    
C80   C100  A    
Ba3   P3    S    
C56   C112  D    
C167  H27   S    
Ba3   Ba4   S    
C114  H94   S    
C133  H125  S    
C146  O66   S    
C90   H50   S    
C54   H106  S    
C101  C105  S    
O62   P10   D    
O5    P5    S    
C130  C154  A    
C103  C107  S    
Ba3   O36   S    
O3    P3    D    
C20   C24   D    
C35   C175  A    
C160  H16   S    
C11   C27   D    
C105  P14   S    
C142  C154  A    
C12   C28   D    
C33   C173  A    
Ba1   P1    S    
C138  H74   S    
C9    C13   S    
C94   N6    Am   
C135  C159  S    
C31   C127  A    
C150  H90   S    
C59   C71   A    
C74   H66   S    
Ba3   O59   S    
C32   C44   A    
C129  C153  A    
C33   C37   A    
C132  C156  A    
C36   C40   A    
O7    P7    S    
C135  H131  S    
Ba4   O15   S    
C54   C110  D    
C163  H19   S    
C159  H11   S    
C92   H124  S    
C87   C95   A    
C160  H12   S    
C77   C81   A    
C14   P9    S    
C171  O51   S    
C158  H6    S    
C5    C41   A    
Ba2   O14   S    
C39   C139  A    
C103  C119  D    
C38   C138  A    
C8    C44   A    
O53   P5    D    
C65   C81   A    
C37   H57   S    
C11   C15   S    
O15   P8    S    
C140  H76   S    
C100  O24   D    
O16   P7    S    
C9    C25   D    
C110  C114  D    
C91   H51   S    
C62   C146  A    
C154  H98   S    
C122  C126  A    
C89   H49   S    
O59   P11   S    
Ba3   O39   S    
C161  H21   S    
C164  H24   S    
C157  H5    S    
C76   H68   S    
O38   P13   S    
C163  H23   S    
C86   C150  A    
C4    H44   S    
C167  H35   S    
C169  H1    S    
C161  C165  S    
C1    C169  S    
C102  H62   S    
C71   H71   S    
C26   N2    S    
C97   N5    Am   
C4    H48   S    
C99   N7    Am   
C8    N4    Am   
O50   P13   S    
C7    O27   D    
C17   C21   D    
C10   H78   S    
C173  O17   D    
O41   P14   D    
C29   C125  A    
C81   C85   A    
Ba4   O56   S    
C57   C69   A    
C78   C82   A    
C119  N7    S    
C122  C138  A    
C29   C33   A    
C104  C108  S    
C97   O21   D    
C31   C35   A    
C64   C148  A    
C161  H17   S    
C159  H15   S    
C4    C172  S    
O40   P15   S    
C49   H101  S    
Ba3   O55   S    
C67   C83   A    
C6    N2    Am   
C60   C122  A    
C46   O10   S    
C136  C160  S    
Ba2   O38   S    
C174  N2    Am   
C13   C49   S    
C15   C51   S    
O51   P16   S    
C164  H20   S    
C151  H91   S    
O36   P4    S    
C166  H34   S    
C176  N4    Am   
C42   C142  A    
C52   H104  S    
C137  H73   S    
C64   C130  A    
C75   C79   A    
C110  P2    S    
C136  H132  S    
C61   C65   A    
C2    H46   S    
C142  H82   S    
C63   C67   A    
C133  H129  S    
C115  H95   S    
C164  C168  S    
C174  O18   D    
C70   C74   A    
O6    P6    S    
C58   C70   A    
C98   O22   D    
C90   H122  S    
C106  P13   S    
C1    H41   S    
C34   C174  A    
C10   C14   S    
C45   H109  S    
O66   H134  S    
C148  O68   S    
C4    H88   S    
C143  C155  A    
C147  O67   S    
Ba1   O53   S    
O10   P10   S    
O9    P9    S    
C89   H121  S    
C2    H42   S    
C63   C129  A    
C118  N6    S    
C93   O29   D    
C34   C38   A    
C127  C131  A    
C134  H130  S    
C45   O9    S    
C135  H127  S    
C141  C153  A    
C159  H7    S    
Ba1   Ba2   S    
C92   H120  S    
C113  C117  S    
C136  O7    S    
C84   C88   A    
C48   O12   S    
C145  O65   S    
Ba1   O34   S    
C6    C42   A    
O68   H136  S    
C73   C77   A    
C46   H110  S    
C169  H37   S    
C47   H115  S    
O54   P6    D    
C64   C68   A    
C117  N5    S    
C92   H52   S    
C21   H53   S    
C158  H14   S    
C48   H112  S    
C124  C128  A    
C163  O47   S    
C68   C84   A    
Ba1   O57   S    
C63   C147  A    
C100  N8    Am   
C99   O23   D    
C168  H28   S    
C169  O49   S    
O58   P10   S    
C134  C158  S    
C176  O20   D    
C35   C39   A    
Ba2   O2    S    
C120  N8    S    
C3    C171  S    
C134  H126  S    
C37   C137  A    
C56   C108  S    
C167  H31   S    
O37   P14   S    
C161  O45   S    
C40   C140  A    
C165  H29   S    
O34   P2    S    
C60   C72   A    
C101  C117  D    
Ba4   P4    S    
C59   C121  A    
O48   P4    S    
C96   N8    Am   
C19   P8    S    
C170  H38   S    
C94   O30   D    
C16   P11   S    
O47   P3    S    
C98   N6    Am   
Ba4   O16   S    
C19   C23   D    
O45   P1    S    
C62   C132  A    
C58   C124  A    
C72   C76   A    
O13   P6    S    
C172  H40   S    
C66   C82   A    
C11   H79   S    
C88   C96   A    
O42   P13   D    
C102  C106  S    
C57   C65   A    
C135  O8    S    
C30   C34   A    
C91   H119  S    
O60   P12   S    
C149  H89   S    
Ba2   O33   S    
C47   O11   S    
C168  H32   S    
O1    P1    D    
C23   H55   S    
O64   P12   D    
O11   P11   S    
C17   C49   D    
Ba1   O14   S    
C7    N3    Am   
Ba3   O16   S    
C44   C144  A    
C162  C166  S    
C48   C92   S    
C73   H65   S    
Ba2   O58   S    
C175  N3    Am   
C14   C50   S    
C18   P5    S    
C30   C126  A    
C55   C111  D    
C146  C150  A    
C5    O25   D    
Ba4   O4    S    
C170  O50   S    
O43   P16   D    
C86   C94   A    
O44   P15   D    
C116  C120  S    
