data_mof_unit_27334.cif
_audit_creation_date              2012-12-10T16:53:31-0500
_audit_creation_method            fapswitch 2.2
_symmetry_space_group_name_H-M    P1
_symmetry_Int_Tables_number       1
_space_group_crystal_system       triclinic
_cell_length_a                    8.200686
_cell_length_b                    8.693584
_cell_length_c                    13.748902
_cell_angle_alpha                 103.287648
_cell_angle_beta                  77.988331
_cell_angle_gamma                 91.077956
_cell_volume                      932.643212346

loop_
_atom_site_label
_atom_site_type_symbol
_atom_type_description
_atom_site_fract_x
_atom_site_fract_y
_atom_site_fract_z
_atom_type_partial_charge
C1    C     C_R   0.540932 0.793003 0.500074 0.877173
C2    C     C_1   0.564168 0.511913 0.124253 -0.054558
C3    C     C_2   0.555852 0.958411 0.512875 0.089867
C4    C     C_2   0.446143 0.040786 0.483454 0.099448
C5    C     C_R   0.266072 0.557710 0.058576 0.134916
C6    C     C_R   0.139349 0.447839 0.052426 -0.129529
C7    C     C_R   0.986388 0.479867 0.121689 -0.098649
C8    C     C_R   0.959098 0.622142 0.196091 -0.103854
C9    C     C_R   0.084696 0.731634 0.202409 -0.094884
C10   C     C_R   0.237620 0.700155 0.133763 -0.137301
C11   C     C_R   0.734644 0.562499 0.965106 0.137209
C12   C     C_R   0.459457 0.206701 0.498693 0.882214
C13   C     C_R   0.805080 0.706946 0.002039 -0.144586
C14   C     C_R   0.962568 0.742993 0.953661 -0.130653
C15   C     C_R   0.049821 0.635698 0.868062 -0.088600
C16   C     C_R   0.980332 0.492009 0.829943 -0.121020
C17   C     C_R   0.822463 0.454871 0.878601 -0.157631
C18   C     C_R   0.014509 0.332462 0.378314 0.273017
C19   C     C_R   0.898771 0.252251 0.321441 -0.080010
C20   C     C_R   0.942963 0.153850 0.223317 -0.246324
C21   C     C_R   0.108682 0.122376 0.177194 -0.118855
C22   C     C_R   0.227125 0.179288 0.233142 -0.158050
C23   C     C_R   0.469360 0.504028 0.686560 0.846555
C24   C     C_R   0.179089 0.274966 0.331984 -0.060092
C25   C     C_R   0.988004 0.680959 0.614355 0.270535
C26   C     C_R   0.106461 0.771068 0.664562 -0.093037
C27   C     C_R   0.068418 0.905898 0.744623 -0.208613
C28   C     C_R   0.904899 0.953420 0.786791 -0.045120
C29   C     C_R   0.782004 0.868449 0.745905 -0.123315
C30   C     C_R   0.823851 0.741892 0.660131 -0.081331
C31   C     C_R   0.530655 0.495609 0.313676 0.840893
C32   C     C_1   0.551999 0.502026 0.210404 -0.162655
C33   C     C_1   0.449119 0.510057 0.792183 -0.172681
C34   C     C_2   0.571890 0.525315 0.021931 -0.037126
C35   C     C_2   0.430007 0.526513 0.987236 -0.027200
C36   C     C_1   0.437027 0.517716 0.881316 -0.048991
Cl1   Cl    Cl    0.711738 0.043860 0.579656 -0.606756
Cl2   Cl    Cl    0.295962 0.955312 0.412041 -0.628786
H1    H     H_    0.159289 0.337774 0.994857 0.120610
H2    H     H_    0.769629 0.342758 0.849795 0.152047
H3    H     H_    0.770458 0.256413 0.348547 0.196425
H4    H     H_    0.847343 0.100991 0.183579 0.129455
H5    H     H_    0.144723 0.047007 0.101313 0.122062
H6    H     H_    0.357057 0.144391 0.201641 0.124093
H7    H     H_    0.276886 0.286893 0.367250 0.199361
H8    H     H_    0.232136 0.741833 0.650306 0.191571
H9    H     H_    0.166902 0.968463 0.777463 0.124744
H10   H     H_    0.873704 0.054240 0.850994 0.111582
H11   H     H_    0.652618 0.905901 0.777199 0.127669
H12   H     H_    0.888962 0.394746 0.116917 0.139102
H13   H     H_    0.719758 0.709154 0.633936 0.198583
H14   H     H_    0.840511 0.650067 0.248361 0.169961
H15   H     H_    0.063016 0.841126 0.260278 0.203796
H16   H     H_    0.334053 0.786780 0.138984 0.141594
H17   H     H_    0.738465 0.790814 0.068970 0.119724
H18   H     H_    0.016784 0.854294 0.982094 0.114755
H19   H     H_    0.170079 0.666993 0.830673 0.135282
H20   H     H_    0.048696 0.409621 0.763054 0.175515
N1    N     N_2   0.954190 0.457600 0.473930 -0.104261
N2    N     N_2   0.045810 0.542400 0.526070 -0.107381
O1    O     O_R   0.388300 0.738660 0.506400 -0.596916
O2    O     O_R   0.611700 0.261340 0.493600 -0.599196
O3    O     O_R   0.679920 0.711490 0.489690 -0.613360
O4    O     O_R   0.320080 0.288510 0.510310 -0.610623
O5    O     O_R   0.333200 0.515510 0.649910 -0.670505
O6    O     O_R   0.666800 0.484490 0.350090 -0.667040
O7    O     O_R   0.624820 0.488340 0.633200 -0.608265
O8    O     O_R   0.375180 0.511660 0.366800 -0.600955
Zn1   Zn    Zn3+2 0.305280 0.518140 0.511160 0.944241
Zn2   Zn    Zn3+2 0.694720 0.481860 0.488840 0.944709

loop_
_geom_bond_atom_site_label_1
_geom_bond_atom_site_label_2
_ccdc_geom_bond_type
C31   O6    A    
C14   H18   S    
C30   H13   S    
C25   C30   A    
C6    C7    A    
C21   H5    S    
C25   N2    S    
C4    C12   S    
C11   C13   A    
C9    C10   A    
C8    H14   S    
C20   H4    S    
C31   C32   S    
C14   C15   A    
O3    Zn2   S    
O7    Zn2   S    
O1    Zn1   S    
C2    C34   S    
C19   H3    S    
C5    C10   A    
C16   H20   S    
C13   C14   A    
C20   C21   A    
C15   H19   S    
C23   O5    A    
C26   C27   A    
C29   C30   A    
C22   H6    S    
N2    Zn1   S    
O5    Zn1   S    
C24   H7    S    
C1    O3    A    
C21   C22   A    
C28   C29   A    
C4    Cl2   S    
C23   C33   S    
C18   C19   A    
C22   C24   A    
C5    C6    A    
C10   H16   S    
C7    C8    A    
C18   C24   A    
C9    H15   S    
C26   H8    S    
N1    Zn2   S    
C23   O7    A    
C15   C16   A    
C16   C17   A    
C5    C35   S    
C18   N1    S    
N1    N2    D    
C33   C36   T    
C12   O2    A    
O6    Zn2   S    
O2    Zn2   S    
C2    C32   T    
C34   C35   D    
C27   H9    S    
C27   C28   A    
C12   O4    A    
C6    H1    S    
C28   H10   S    
C29   H11   S    
C35   C36   S    
C1    C3    S    
C25   C26   A    
O4    Zn1   S    
C7    H12   S    
C31   O8    A    
O8    Zn1   S    
C11   C34   S    
C11   C17   A    
C3    C4    D    
C19   C20   A    
C3    Cl1   S    
C8    C9    A    
C13   H17   S    
C17   H2    S    
C1    O1    A    
