data_mof_unit_68029.cif
_audit_creation_date              2012-12-11T14:31:05-0500
_audit_creation_method            fapswitch 2.2
_symmetry_space_group_name_H-M    P1
_symmetry_Int_Tables_number       1
_space_group_crystal_system       triclinic
_cell_length_a                    6.869248
_cell_length_b                    14.43521
_cell_length_c                    16.174362
_cell_angle_alpha                 90.000057
_cell_angle_beta                  89.998998
_cell_angle_gamma                 90.000112
_cell_volume                      1603.83416659

loop_
_atom_site_label
_atom_site_type_symbol
_atom_type_description
_atom_site_fract_x
_atom_site_fract_y
_atom_site_fract_z
_atom_type_partial_charge
O1    O     O_R   0.469910 0.836130 0.163900 -0.506571
O2    O     O_R   0.530090 0.163870 0.836100 -0.508143
O3    O     O_R   0.530090 0.163870 0.663900 -0.506567
O4    O     O_R   0.469910 0.836130 0.336100 -0.508134
O5    O     O_R   0.969910 0.663870 0.336100 -0.506568
O6    O     O_R   0.030090 0.336130 0.663900 -0.508143
O7    O     O_R   0.030090 0.336130 0.836100 -0.506565
O8    O     O_R   0.969910 0.663870 0.163900 -0.508135
O9    O     O_R   0.140100 0.847470 0.335520 -0.563917
O10   O     O_R   0.859900 0.152530 0.664480 -0.555149
O11   O     O_R   0.859900 0.152530 0.835520 -0.563911
O12   O     O_R   0.140100 0.847470 0.164480 -0.555135
O13   O     O_R   0.640100 0.652530 0.164480 -0.563928
O14   O     O_R   0.359900 0.347470 0.835520 -0.555154
O15   O     O_R   0.359900 0.347470 0.664480 -0.563899
O16   O     O_R   0.640100 0.652530 0.335520 -0.555142
C1    C     C_R   0.311217 0.872935 0.361415 0.779364
C2    C     C_R   0.689183 0.132345 0.633757 0.765756
C3    C     C_R   0.688783 0.127067 0.861417 0.779388
C4    C     C_R   0.310817 0.867653 0.133756 0.765783
C5    C     C_R   0.811215 0.627070 0.138581 0.779327
C6    C     C_R   0.189182 0.367654 0.866243 0.765750
C7    C     C_R   0.188781 0.372936 0.638586 0.779452
C8    C     C_R   0.810815 0.632345 0.366243 0.765786
O17   O     O_3   0.303300 0.689750 0.250000 -0.368663
O18   O     O_3   0.696700 0.310250 0.750000 -0.368727
O19   O     O_3   0.803300 0.810250 0.250000 -0.368698
O20   O     O_3   0.196700 0.189750 0.750000 -0.368673
V1    V     V_3+5 0.028490 0.761170 0.250000 1.486448
V2    V     V_3+5 0.971510 0.238830 0.750000 1.486424
V3    V     V_3+5 0.528490 0.738830 0.250000 1.486444
V4    V     V_3+5 0.471510 0.261170 0.750000 1.486414
C9    C     C_2   0.828850 0.569231 0.439329 -0.413018
C10   C     C_2   0.172846 0.443625 0.572279 -0.398857
C11   C     C_2   0.171136 0.430766 0.939328 -0.413087
C12   C     C_2   0.827121 0.556395 0.072264 -0.399002
C13   C     C_2   0.328858 0.930769 0.060673 -0.413063
C14   C     C_2   0.672864 0.056380 0.927724 -0.398986
C15   C     C_2   0.671141 0.069233 0.560671 -0.413044
C16   C     C_2   0.327137 0.943611 0.427732 -0.398894
C17   C     C_2   0.998870 0.557321 0.482452 0.349890
C18   C     C_2   0.006787 0.492013 0.555538 0.330720
C19   C     C_2   0.001082 0.442715 0.982419 0.349986
C20   C     C_2   0.993169 0.508014 0.055501 0.330721
C21   C     C_2   0.498888 0.942693 0.017559 0.349948
C22   C     C_2   0.506803 0.008004 0.944483 0.330714
C23   C     C_2   0.501100 0.057302 0.517567 0.349928
C24   C     C_2   0.493182 0.992005 0.444479 0.330726
H1    H     H_    0.302503 0.455280 0.535325 0.126100
H2    H     H_    0.697673 0.534046 0.459821 0.119447
H3    H     H_    0.697446 0.544733 0.035326 0.126157
H4    H     H_    0.302332 0.465908 0.959858 0.119644
H5    H     H_    0.802540 0.044704 0.964659 0.126152
H6    H     H_    0.197674 0.965938 0.040167 0.119585
H7    H     H_    0.197480 0.955253 0.464690 0.126112
H8    H     H_    0.802328 0.034072 0.540156 0.119526
O21   O     O_3   0.842148 0.476697 0.603725 -0.560368
C25   C     C_3   0.777886 0.560558 0.640024 0.037788
H9    H     H_    0.681356 0.597791 0.596056 0.118255
H10   H     H_    0.901148 0.606796 0.657785 0.094791
C26   C     C_3   0.664058 0.538398 0.718949 -0.221926
H11   H     H_    0.569496 0.477580 0.708363 0.229464
H12   H     H_    0.767926 0.520939 0.769337 0.195437
C27   C     C_3   0.534864 0.618863 0.745971 -0.909285
H13   H     H_    0.618706 0.684544 0.747918 0.243994
H14   H     H_    0.473337 0.604350 0.808094 0.240483
H15   H     H_    0.411336 0.626585 0.702616 0.225742
O22   O     O_3   0.169216 0.597007 0.451751 -0.561423
C28   C     C_3   0.271179 0.648549 0.512506 0.070403
H16   H     H_    0.415022 0.666186 0.485384 0.147035
H17   H     H_    0.303007 0.608552 0.569117 0.092577
C29   C     C_3   0.166793 0.738679 0.535764 -0.337123
H18   H     H_    0.115418 0.774049 0.479206 0.210733
H19   H     H_    0.037133 0.723386 0.574279 0.165931
C30   C     C_3   0.302991 0.802733 0.583892 -0.841184
H20   H     H_    0.341292 0.771647 0.644338 0.233955
H21   H     H_    0.230738 0.870267 0.594830 0.248546
H22   H     H_    0.439385 0.815327 0.548809 0.232719
O23   O     O_3   0.157802 0.523265 0.103695 -0.560377
C31   C     C_3   0.221391 0.439410 0.140203 0.037498
H23   H     H_    0.317084 0.401706 0.096238 0.118276
H24   H     H_    0.097714 0.393614 0.158314 0.095052
C32   C     C_3   0.336107 0.461621 0.218869 -0.222026
H25   H     H_    0.431243 0.522132 0.207914 0.229178
H26   H     H_    0.232881 0.479575 0.269341 0.195753
C33   C     C_3   0.464608 0.380956 0.245993 -0.909460
H27   H     H_    0.380141 0.315471 0.248165 0.244162
H28   H     H_    0.526554 0.395522 0.308031 0.240477
H29   H     H_    0.587836 0.372828 0.202548 0.225777
O24   O     O_3   0.830731 0.403019 0.951739 -0.561418
C34   C     C_3   0.728926 0.351417 0.012506 0.070455
H30   H     H_    0.585109 0.333697 0.985400 0.147057
H31   H     H_    0.697020 0.391407 0.069122 0.092652
C35   C     C_3   0.833573 0.261348 0.035751 -0.337279
H32   H     H_    0.885006 0.226007 0.979182 0.210803
H33   H     H_    0.963215 0.276727 0.074254 0.165895
C36   C     C_3   0.697598 0.197198 0.083889 -0.841100
H34   H     H_    0.659421 0.228198 0.144380 0.233930
H35   H     H_    0.769985 0.129680 0.094736 0.248483
H36   H     H_    0.561128 0.184594 0.048867 0.232708
O25   O     O_3   0.342170 0.023279 0.896291 -0.560368
C37   C     C_3   0.278345 0.939419 0.859860 0.037611
H37   H     H_    0.182342 0.901886 0.903827 0.118252
H38   H     H_    0.401876 0.893463 0.841878 0.094970
C38   C     C_3   0.163956 0.961605 0.781099 -0.222013
H39   H     H_    0.068953 0.022199 0.791931 0.229232
H40   H     H_    0.267416 0.979421 0.730669 0.195671
C39   C     C_3   0.035313 0.880982 0.753985 -0.909352
H41   H     H_    0.119642 0.815450 0.751878 0.244135
H42   H     H_    0.973511 0.895534 0.691918 0.240473
H43   H     H_    0.911979 0.872947 0.797396 0.225758
O26   O     O_3   0.669231 0.902972 0.048224 -0.561417
C40   C     C_3   0.771021 0.851391 0.987439 0.070425
H44   H     H_    0.914884 0.833703 0.014518 0.147011
H45   H     H_    0.802821 0.891379 0.930813 0.092625
C41   C     C_3   0.666431 0.761300 0.964221 -0.337181
H46   H     H_    0.615113 0.725949 0.020802 0.210779
H47   H     H_    0.536715 0.776647 0.925755 0.165899
C42   C     C_3   0.802402 0.697184 0.916045 -0.841109
H48   H     H_    0.840445 0.728196 0.855541 0.233976
H49   H     H_    0.730075 0.629648 0.905222 0.248478
H50   H     H_    0.938935 0.684610 0.951031 0.232701
O27   O     O_3   0.657817 0.976720 0.396286 -0.560375
C43   C     C_3   0.721781 0.060579 0.359894 0.037634
H51   H     H_    0.817916 0.098027 0.403865 0.118275
H52   H     H_    0.598334 0.106614 0.341968 0.094911
C44   C     C_3   0.836044 0.038393 0.281095 -0.221961
H53   H     H_    0.930841 0.977707 0.291854 0.229341
H54   H     H_    0.732487 0.020717 0.230659 0.195566
C45   C     C_3   0.964970 0.118939 0.254040 -0.909347
H55   H     H_    0.880877 0.184543 0.252000 0.244035
H56   H     H_    0.026690 0.104405 0.191954 0.240478
H57   H     H_    0.088366 0.126822 0.297438 0.225748
O28   O     O_3   0.330749 0.096980 0.548273 -0.561423
C46   C     C_3   0.228804 0.148540 0.487523 0.070449
H58   H     H_    0.084986 0.166208 0.514657 0.147069
H59   H     H_    0.196908 0.108540 0.430916 0.092600
C47   C     C_3   0.333271 0.238646 0.464251 -0.337214
H60   H     H_    0.384750 0.274003 0.520803 0.210765
H61   H     H_    0.462867 0.223318 0.425706 0.165921
C48   C     C_3   0.197100 0.302743 0.416157 -0.841181
H62   H     H_    0.158706 0.271680 0.355716 0.233915
H63   H     H_    0.269418 0.370259 0.405215 0.248550
H64   H     H_    0.060752 0.315361 0.451262 0.232731

loop_
_geom_bond_atom_site_label_1
_geom_bond_atom_site_label_2
_ccdc_geom_bond_type
O17   V3    S    
C46   C47   S    
O18   V4    S    
O25   C37   S    
O12   V1    S    
O19   V1    S    
C17   C18   S    
C10   C18   D    
C30   H20   S    
C36   H36   S    
C24   O27   S    
C36   H34   S    
O24   C34   S    
C21   O26   S    
O27   C43   S    
C5    C12   S    
C21   C22   S    
C39   H41   S    
O16   V3    S    
C6    C11   S    
C38   H40   S    
O11   C3    A    
O3    C2    A    
O8    V1    S    
C43   H52   S    
C48   H63   S    
C37   H38   S    
C33   H28   S    
C25   H10   S    
O1    V3    S    
C41   H46   S    
C37   C38   S    
O2    V4    S    
C28   H17   S    
C2    C15   S    
C16   C24   D    
C23   C24   S    
O11   V2    S    
C39   H42   S    
O22   C28   S    
C10   H1    S    
C11   C19   D    
C26   H11   S    
O9    V1    S    
C40   C41   S    
C7    C10   S    
C25   C26   S    
O15   C7    A    
O16   C8    A    
O7    V2    S    
C28   H16   S    
C31   C32   S    
C18   O21   S    
O26   C40   S    
C36   H35   S    
C17   O22   S    
O5    V1    S    
C42   H49   S    
O17   V1    S    
C22   O25   S    
C19   O24   S    
O19   V3    S    
C27   H15   S    
C46   H58   S    
C31   H24   S    
C48   H64   S    
C34   H30   S    
C33   H27   S    
C31   H23   S    
C35   C36   S    
C9    H2    S    
C47   C48   S    
C1    C16   S    
C27   H14   S    
C26   C27   S    
C45   H56   S    
C19   C20   S    
C44   H54   S    
C3    C14   S    
C34   H31   S    
O10   V2    S    
C32   H25   S    
O20   V4    S    
C16   H7    S    
O12   C4    A    
C26   H12   S    
O8    C5    A    
O13   C5    A    
O3    V4    S    
C15   H8    S    
C38   C39   S    
C35   H33   S    
C30   H21   S    
C14   H5    S    
C12   H3    S    
C47   H61   S    
C43   C44   S    
C13   H6    S    
C29   H19   S    
O6    V2    S    
O18   V2    S    
C35   H32   S    
C23   O28   S    
C12   C20   D    
C45   H57   S    
O4    C1    A    
C13   C21   D    
C44   H53   S    
C28   C29   S    
C15   C23   D    
C40   H44   S    
C42   H50   S    
O9    C1    A    
C46   H59   S    
O1    C4    A    
C32   H26   S    
O2    C3    A    
O13   V3    S    
C20   O23   S    
O14   V4    S    
C29   H18   S    
C33   H29   S    
O15   V4    S    
C42   H48   S    
C41   C42   S    
O28   C46   S    
O7    C6    A    
C38   H39   S    
C8    C9    S    
C39   H43   S    
C9    C17   D    
C27   H13   S    
O14   C6    A    
O20   V2    S    
C45   H55   S    
C25   H9    S    
C44   C45   S    
C48   H62   S    
C34   C35   S    
C4    C13   S    
C29   C30   S    
O21   C25   S    
O5    C8    A    
O10   C2    A    
O6    C7    A    
C41   H47   S    
C37   H37   S    
C30   H22   S    
C14   C22   D    
O4    V3    S    
C47   H60   S    
O23   C31   S    
C32   C33   S    
C11   H4    S    
C43   H51   S    
C40   H45   S    
