data_mof_unit_61902.cif
_audit_creation_date              2012-12-10T19:43:57-0500
_audit_creation_method            fapswitch 2.2
_symmetry_space_group_name_H-M    P1
_symmetry_Int_Tables_number       1
_space_group_crystal_system       triclinic
_cell_length_a                    30.719451
_cell_length_b                    30.486132
_cell_length_c                    23.35156
_cell_angle_alpha                 90.001233
_cell_angle_beta                  130.520147
_cell_angle_gamma                 89.999699
_cell_volume                      16624.4281521

loop_
_atom_site_label
_atom_site_type_symbol
_atom_type_description
_atom_site_fract_x
_atom_site_fract_y
_atom_site_fract_z
_atom_type_partial_charge
C1    C     C_R   0.810469 0.810207 0.501116 0.873588
C2    C     C_R   0.189534 0.810207 0.498890 0.873480
C3    C     C_R   0.310469 0.310207 0.501117 0.873599
C4    C     C_R   0.689538 0.310208 0.498897 0.873357
C5    C     C_R   0.443195 0.748496 0.886290 0.161840
C6    C     C_R   0.556811 0.748496 0.113710 0.161837
C7    C     C_R   0.943195 0.248496 0.886290 0.161839
C8    C     C_R   0.056811 0.248496 0.113710 0.161835
C9    C     C_1   0.483186 0.748220 0.966347 -0.070726
C10   C     C_1   0.516821 0.748220 0.033653 -0.070725
C11   C     C_1   0.983186 0.248220 0.966347 -0.070724
C12   C     C_1   0.016821 0.248220 0.033653 -0.070722
C13   C     C_R   0.903524 0.843196 0.557115 0.049381
C14   C     C_R   0.096471 0.843156 0.442950 0.049033
C15   C     C_R   0.403521 0.343207 0.557134 0.049414
C16   C     C_R   0.596468 0.343118 0.443015 0.048621
C17   C     C_R   0.843715 0.844090 0.503518 -0.143794
C18   C     C_R   0.156282 0.844091 0.496476 -0.143783
C19   C     C_R   0.343713 0.344091 0.503517 -0.143787
C20   C     C_R   0.656280 0.344093 0.496471 -0.143761
C21   C     C_R   0.815478 0.880683 0.456137 -0.184977
C22   C     C_R   0.184506 0.880717 0.543776 -0.184924
C23   C     C_R   0.315473 0.380675 0.456116 -0.184982
C24   C     C_R   0.684492 0.380750 0.543693 -0.184855
C25   C     C_R   0.846911 0.912908 0.454934 -0.220519
C26   C     C_R   0.153070 0.912940 0.544980 -0.220547
C27   C     C_R   0.346907 0.412901 0.454914 -0.220517
C28   C     C_R   0.653054 0.412969 0.544898 -0.220566
C29   C     C_R   0.906424 0.908712 0.502301 -0.085489
C30   C     C_R   0.093567 0.908707 0.497694 -0.085374
C31   C     C_R   0.406421 0.408714 0.502301 -0.085512
C32   C     C_R   0.593560 0.408701 0.497693 -0.085268
C33   C     C_R   0.934194 0.875279 0.555403 0.086488
C34   C     C_R   0.065797 0.875237 0.444660 0.086476
C35   C     C_R   0.434191 0.375290 0.555421 0.086512
C36   C     C_R   0.565790 0.375196 0.444725 0.086497
C37   C     C_3   0.977275 0.843804 0.569589 -0.502775
C38   C     C_3   0.022782 0.843746 0.430617 -0.502838
C39   C     C_3   0.477284 0.343818 0.569636 -0.502780
C40   C     C_3   0.522845 0.343685 0.430830 -0.502913
C41   C     C_3   0.945119 0.808270 0.574190 0.305877
C42   C     C_3   0.054942 0.808211 0.426022 0.305941
C43   C     C_3   0.445131 0.308285 0.574243 0.305867
C44   C     C_3   0.555007 0.308153 0.426235 0.306009
C45   C     C_R   0.676694 0.749859 0.353266 0.864932
C46   C     C_R   0.323306 0.749859 0.646733 0.864941
C47   C     C_R   0.176695 0.249859 0.353266 0.864930
C48   C     C_R   0.823306 0.249859 0.646733 0.864955
C49   C     C_R   0.055498 0.717105 0.152826 -0.180005
C50   C     C_R   0.944520 0.717119 0.847172 -0.180076
C51   C     C_R   0.555530 0.217087 0.152824 -0.179930
C52   C     C_R   0.444514 0.217115 0.847172 -0.180090
C53   C     C_R   0.094892 0.716717 0.231175 -0.212625
C54   C     C_R   0.905127 0.716731 0.768823 -0.212732
C55   C     C_R   0.594924 0.216699 0.231174 -0.212514
C56   C     C_R   0.405120 0.216728 0.768823 -0.212751
C57   C     C_R   0.135716 0.750322 0.270841 -0.020839
C58   C     C_R   0.864283 0.750323 0.729159 -0.020763
C59   C     C_R   0.635717 0.250323 0.270842 -0.020912
C60   C     C_R   0.364282 0.250323 0.729159 -0.020749
C61   C     C_R   0.136851 0.784181 0.231043 -0.203835
C62   C     C_R   0.863127 0.784169 0.768961 -0.203779
C63   C     C_R   0.636822 0.284202 0.231046 -0.203904
C64   C     C_R   0.363133 0.284173 0.768960 -0.203777
C65   C     C_R   0.097448 0.784472 0.152635 -0.169015
C66   C     C_R   0.902529 0.784459 0.847369 -0.169036
C67   C     C_R   0.597419 0.284493 0.152638 -0.168996
C68   C     C_R   0.402536 0.284464 0.847368 -0.169037
C69   C     C_R   0.056881 0.750965 0.113785 0.162960
C70   C     C_R   0.943115 0.750965 0.886216 0.162967
C71   C     C_R   0.556883 0.250967 0.113786 0.162955
C72   C     C_R   0.443116 0.250966 0.886216 0.162972
C73   C     C_1   0.016832 0.751128 0.033672 -0.071206
C74   C     C_1   0.983164 0.751128 0.966329 -0.071192
C75   C     C_1   0.516834 0.251131 0.033672 -0.071226
C76   C     C_1   0.483166 0.251130 0.966329 -0.071194
C77   C     C_R   0.681874 0.626943 0.555808 0.095740
C78   C     C_R   0.318129 0.626951 0.444181 0.095732
C79   C     C_R   0.181873 0.126946 0.555813 0.095739
C80   C     C_R   0.818132 0.126965 0.444158 0.095718
C81   C     C_R   0.656972 0.657222 0.498338 -0.102870
C82   C     C_R   0.343028 0.657222 0.501662 -0.102855
C83   C     C_R   0.156972 0.157222 0.498339 -0.102864
C84   C     C_R   0.843026 0.157222 0.501660 -0.102834
C85   C     C_R   0.597643 0.655177 0.437994 -0.215519
C86   C     C_R   0.402353 0.655169 0.562020 -0.215522
C87   C     C_R   0.097645 0.155174 0.437991 -0.215517
C88   C     C_R   0.902346 0.155154 0.562038 -0.215529
C89   C     C_R   0.690445 0.689996 0.500503 0.919106
C90   C     C_R   0.309555 0.689996 0.499496 0.919112
C91   C     C_R   0.190445 0.189996 0.500504 0.919100
C92   C     C_R   0.809553 0.189997 0.499494 0.919114
C93   C     C_R   0.565197 0.622641 0.437475 -0.203019
C94   C     C_R   0.434799 0.622632 0.562540 -0.203014
C95   C     C_R   0.065199 0.122637 0.437471 -0.203015
C96   C     C_R   0.934793 0.122618 0.562558 -0.203005
C97   C     C_R   0.592155 0.592985 0.498245 -0.085637
C98   C     C_R   0.407846 0.592984 0.501758 -0.085645
C99   C     C_R   0.092155 0.092985 0.498245 -0.085638
C100  C     C_R   0.907845 0.092984 0.501758 -0.085669
C101  C     C_R   0.650676 0.596418 0.556157 0.065381
C102  C     C_R   0.349328 0.596425 0.443833 0.065411
C103  C     C_R   0.150675 0.096421 0.556161 0.065393
C104  C     C_R   0.849331 0.096439 0.443814 0.065434
C105  C     C_3   0.700440 0.578678 0.631143 -0.550724
C106  C     C_3   0.299568 0.578695 0.368832 -0.550732
C107  C     C_3   0.200438 0.078685 0.631152 -0.550729
C108  C     C_3   0.799581 0.078727 0.368791 -0.550735
C109  C     C_3   0.736272 0.614333 0.631210 0.289223
C110  C     C_3   0.263736 0.614350 0.368764 0.289197
C111  C     C_3   0.236269 0.114340 0.631219 0.289214
C112  C     C_3   0.763747 0.114383 0.368720 0.289160
C113  C     C_R   0.440017 0.560157 0.500311 0.891809
C114  C     C_R   0.559983 0.560157 0.499690 0.891803
C115  C     C_R   0.940017 0.060158 0.500311 0.891815
C116  C     C_R   0.059983 0.060157 0.499690 0.891809
C117  C     C_R   0.939801 0.940112 0.500335 0.886741
C118  C     C_R   0.060195 0.940110 0.499664 0.886723
C119  C     C_R   0.439800 0.440113 0.500335 0.886735
C120  C     C_R   0.560192 0.440107 0.499663 0.886696
C121  C     C_R   0.823124 0.749981 0.646719 0.872910
C122  C     C_R   0.176876 0.749981 0.353281 0.872842
C123  C     C_R   0.323124 0.249981 0.646719 0.872903
C124  C     C_R   0.676876 0.249980 0.353282 0.872750
C125  C     C_R   0.451758 0.776677 0.847279 -0.166711
C126  C     C_R   0.548248 0.776677 0.152721 -0.166713
C127  C     C_R   0.951759 0.276675 0.847279 -0.166708
C128  C     C_R   0.048248 0.276677 0.152721 -0.166713
C129  C     C_R   0.412552 0.777181 0.768924 -0.204361
C130  C     C_R   0.587452 0.777181 0.231076 -0.204364
C131  C     C_R   0.912553 0.277179 0.768924 -0.204358
C132  C     C_R   0.087452 0.277181 0.231076 -0.204364
C133  C     C_R   0.364528 0.749430 0.729242 -0.038423
C134  C     C_R   0.635475 0.749430 0.270758 -0.038422
C135  C     C_R   0.864528 0.249430 0.729242 -0.038427
C136  C     C_R   0.135475 0.249430 0.270758 -0.038424
C137  C     C_R   0.356355 0.721195 0.769115 -0.197924
C138  C     C_R   0.643647 0.721194 0.230884 -0.197918
C139  C     C_R   0.856354 0.221196 0.769115 -0.197926
C140  C     C_R   0.143647 0.221194 0.230884 -0.197909
C141  C     C_R   0.395652 0.720772 0.847492 -0.165057
C142  C     C_R   0.604353 0.720771 0.152507 -0.165054
C143  C     C_R   0.895651 0.220773 0.847492 -0.165055
C144  C     C_R   0.104353 0.220771 0.152507 -0.165048
H1    H     H_    0.488645 0.798222 0.877399 0.134220
H2    H     H_    0.511362 0.798224 0.122602 0.134221
H3    H     H_    0.988647 0.298220 0.877399 0.134221
H4    H     H_    0.011362 0.298224 0.122602 0.134221
H5    H     H_    0.024286 0.690931 0.122754 0.131913
H6    H     H_    0.975748 0.690956 0.877241 0.131936
H7    H     H_    0.524344 0.190897 0.122751 0.131881
H8    H     H_    0.475738 0.190950 0.877242 0.131934
H9    H     H_    0.093924 0.689861 0.260648 0.146091
H10   H     H_    0.906117 0.689888 0.739347 0.146148
H11   H     H_    0.593985 0.189825 0.260645 0.146015
H12   H     H_    0.406106 0.189882 0.739348 0.146148
H13   H     H_    0.167917 0.810467 0.260405 0.160148
H14   H     H_    0.832046 0.810444 0.739602 0.160151
H15   H     H_    0.667864 0.310503 0.260410 0.160140
H16   H     H_    0.332057 0.310451 0.739601 0.160148
H17   H     H_    0.098602 0.810728 0.122363 0.138931
H18   H     H_    0.901359 0.810704 0.877643 0.138932
H19   H     H_    0.598550 0.310765 0.122367 0.138925
H20   H     H_    0.401371 0.310712 0.877642 0.138927
H21   H     H_    0.576794 0.678349 0.391831 0.151235
H22   H     H_    0.423200 0.678335 0.608192 0.151227
H23   H     H_    0.076796 0.178344 0.391824 0.151232
H24   H     H_    0.923188 0.178310 0.608225 0.151214
H25   H     H_    0.519457 0.621235 0.390873 0.166081
H26   H     H_    0.480537 0.621221 0.609151 0.166090
H27   H     H_    0.019459 0.121230 0.390866 0.166083
H28   H     H_    0.980526 0.121196 0.609186 0.166103
H29   H     H_    0.695877 0.583722 0.674185 0.230995
H30   H     H_    0.304147 0.583745 0.325807 0.230982
H31   H     H_    0.195870 0.083731 0.674188 0.230992
H32   H     H_    0.804183 0.083787 0.325790 0.230971
H33   H     H_    0.711529 0.544735 0.627250 0.159266
H34   H     H_    0.288467 0.544752 0.372703 0.159296
H35   H     H_    0.211530 0.044742 0.627265 0.159279
H36   H     H_    0.788462 0.044783 0.372628 0.159306
H37   H     H_    0.419857 0.799234 0.739554 0.157384
H38   H     H_    0.580146 0.799235 0.260447 0.157387
H39   H     H_    0.919859 0.299232 0.739554 0.157384
H40   H     H_    0.080147 0.299235 0.260446 0.157386
H41   H     H_    0.769078 0.602221 0.628352 0.057675
H42   H     H_    0.230918 0.602239 0.371600 0.057688
H43   H     H_    0.269080 0.102228 0.628368 0.057680
H44   H     H_    0.730911 0.102271 0.371521 0.057692
H45   H     H_    0.319713 0.699482 0.739878 0.158162
H46   H     H_    0.680289 0.699480 0.260121 0.158165
H47   H     H_    0.819711 0.199484 0.739878 0.158162
H48   H     H_    0.180289 0.199480 0.260121 0.158171
H49   H     H_    0.388983 0.698918 0.877783 0.135254
H50   H     H_    0.611022 0.698917 0.122216 0.135257
H51   H     H_    0.888981 0.198920 0.877783 0.135254
H52   H     H_    0.111022 0.198917 0.122216 0.135262
H53   H     H_    0.769187 0.883101 0.417521 0.154467
H54   H     H_    0.230793 0.883165 0.582335 0.154494
H55   H     H_    0.269182 0.383086 0.417485 0.154457
H56   H     H_    0.730775 0.383226 0.582196 0.154517
H57   H     H_    0.824959 0.940175 0.416068 0.150454
H58   H     H_    0.175016 0.940233 0.583786 0.150394
H59   H     H_    0.324953 0.440161 0.416033 0.150467
H60   H     H_    0.674993 0.440289 0.583647 0.150334
H61   H     H_    0.974359 0.840135 0.519920 0.143582
H62   H     H_    0.025758 0.840111 0.480339 0.143595
H63   H     H_    0.474375 0.340140 0.519975 0.143601
H64   H     H_    0.525891 0.340082 0.480612 0.143629
H65   H     H_    0.020993 0.850641 0.623616 0.233025
H66   H     H_    0.979036 0.850539 0.376611 0.233012
H67   H     H_    0.520997 0.350664 0.623665 0.233022
H68   H     H_    0.479067 0.350435 0.376848 0.232991
H69   H     H_    0.926978 0.782774 0.529601 0.078657
H70   H     H_    0.073144 0.782747 0.470668 0.078803
H71   H     H_    0.427002 0.282781 0.529670 0.078663
H72   H     H_    0.573271 0.282716 0.470935 0.078991
O1    O     O_R   0.821670 0.769930 0.500010 -0.653285
O2    O     O_R   0.178330 0.769930 0.499990 -0.653375
O3    O     O_R   0.321670 0.269930 0.500010 -0.653259
O4    O     O_R   0.678330 0.269930 0.499990 -0.653465
O5    O     O_R   0.485380 0.545840 0.562560 -0.629425
O6    O     O_R   0.514620 0.545840 0.437440 -0.629425
O7    O     O_R   0.985380 0.045840 0.562560 -0.629429
O8    O     O_R   0.014620 0.045840 0.437440 -0.629426
O9    O     O_R   0.922870 0.954190 0.437400 -0.627445
O10   O     O_R   0.077130 0.954190 0.562600 -0.627435
O11   O     O_R   0.422870 0.454190 0.437400 -0.627442
O12   O     O_R   0.577130 0.454190 0.562600 -0.627423
O13   O     O_R   0.985440 0.954220 0.562600 -0.615119
O14   O     O_R   0.014560 0.954220 0.437400 -0.615115
O15   O     O_R   0.485440 0.454220 0.562600 -0.615124
O16   O     O_R   0.514560 0.454220 0.437400 -0.615114
O17   O     O_R   0.769920 0.821660 0.500020 -0.613776
O18   O     O_R   0.230080 0.821660 0.499980 -0.613787
O19   O     O_R   0.269920 0.321660 0.500020 -0.613779
O20   O     O_R   0.730080 0.321660 0.499980 -0.613799
O21   O     O_R   0.720420 0.724130 0.389120 -0.622029
O22   O     O_R   0.279580 0.724130 0.610880 -0.622031
O23   O     O_R   0.220420 0.224130 0.389120 -0.622023
O24   O     O_R   0.779580 0.224130 0.610880 -0.622030
O25   O     O_R   0.668670 0.775850 0.389130 -0.628811
O26   O     O_R   0.331330 0.775850 0.610870 -0.628807
O27   O     O_R   0.168670 0.275850 0.389130 -0.628813
O28   O     O_R   0.831330 0.275850 0.610870 -0.628802
O29   O     O_R   0.730060 0.678320 0.499990 -0.632178
O30   O     O_R   0.269940 0.678320 0.500010 -0.632172
O31   O     O_R   0.230060 0.178320 0.499990 -0.632176
O32   O     O_R   0.769940 0.178320 0.500010 -0.632170
O33   O     O_R   0.678300 0.730040 0.500010 -0.608223
O34   O     O_R   0.321700 0.730040 0.499990 -0.608208
O35   O     O_R   0.178300 0.230040 0.500010 -0.608221
O36   O     O_R   0.821700 0.230040 0.499990 -0.608187
O37   O     O_R   0.831300 0.724120 0.610880 -0.649941
O38   O     O_R   0.168700 0.724120 0.389120 -0.649902
O39   O     O_R   0.331300 0.224120 0.610880 -0.649944
O40   O     O_R   0.668700 0.224120 0.389120 -0.649862
O41   O     O_R   0.779550 0.775850 0.610900 -0.615341
O42   O     O_R   0.220450 0.775850 0.389100 -0.615327
O43   O     O_R   0.279550 0.275850 0.610900 -0.615341
O44   O     O_R   0.720450 0.275850 0.389100 -0.615308
O45   O     O_R   0.422810 0.545810 0.437360 -0.621795
O46   O     O_R   0.577190 0.545810 0.562640 -0.621782
O47   O     O_R   0.922810 0.045810 0.437360 -0.621797
O48   O     O_R   0.077190 0.045810 0.562640 -0.621784
Zn1   Zn    Zn3+2 0.784540 0.715450 0.500000 0.915469
Zn2   Zn    Zn3+2 0.215460 0.715450 0.500000 0.915427
Zn3   Zn    Zn3+2 0.284540 0.215450 0.500000 0.915500
Zn4   Zn    Zn3+2 0.715460 0.215450 0.500000 0.915390
Zn5   Zn    Zn3+2 0.715430 0.784520 0.500020 0.959279
Zn6   Zn    Zn3+2 0.284570 0.784520 0.499980 0.959261
Zn7   Zn    Zn3+2 0.215430 0.284520 0.500020 0.959281
Zn8   Zn    Zn3+2 0.784570 0.284520 0.499980 0.959248
Zn9   Zn    Zn3+2 0.458190 0.500000 0.416410 0.953740
Zn10  Zn    Zn3+2 0.541810 0.500000 0.583590 0.953748
Zn11  Zn    Zn3+2 0.958190 1.000000 0.416410 0.953728
Zn12  Zn    Zn3+2 0.041810 1.000000 0.583590 0.953743
O49   O     O_3   0.979429 0.792752 0.649087 -0.592541
C145  C     C_3   0.953885 0.755883 0.652986 0.153632
H73   H     H_    0.940373 0.730988 0.609203 0.126636
H74   H     H_    0.916548 0.766536 0.646866 0.166054
C146  C     C_3   0.997220 0.734336 0.729676 -0.823156
H75   H     H_    0.007702 0.756691 0.774707 0.262306
H76   H     H_    0.979380 0.703353 0.731769 0.199211
H77   H     H_    0.037017 0.726557 0.739708 0.256897
O50   O     O_3   0.020592 0.792625 0.351160 -0.592648
C147  C     C_3   0.046288 0.755880 0.347232 0.154293
H78   H     H_    0.060146 0.731025 0.391217 0.126860
H79   H     H_    0.083422 0.766713 0.353005 0.165749
C148  C     C_3   0.002919 0.734165 0.270704 -0.823365
H80   H     H_    0.992101 0.756489 0.225452 0.262246
H81   H     H_    0.020900 0.703265 0.268619 0.199270
H82   H     H_    0.963296 0.726203 0.261007 0.256845
O51   O     O_3   0.479434 0.292783 0.649149 -0.592524
C149  C     C_3   0.453912 0.255898 0.653050 0.153519
H83   H     H_    0.440452 0.230994 0.609303 0.126626
H84   H     H_    0.416545 0.266527 0.646876 0.166079
C150  C     C_3   0.497241 0.234381 0.729766 -0.823119
H85   H     H_    0.507674 0.256744 0.774761 0.262322
H86   H     H_    0.479421 0.203387 0.731869 0.199218
H87   H     H_    0.537061 0.226624 0.739845 0.256903
O52   O     O_3   0.520616 0.292503 0.351406 -0.592763
C151  C     C_3   0.546478 0.255898 0.347439 0.155045
H88   H     H_    0.560717 0.231080 0.391642 0.127102
H89   H     H_    0.583390 0.266931 0.352833 0.165353
C152  C     C_3   0.503072 0.234003 0.271085 -0.823397
H90   H     H_    0.491874 0.256305 0.225591 0.262157
H91   H     H_    0.521212 0.203201 0.269006 0.199326
H92   H     H_    0.463639 0.225832 0.261759 0.256730
O53   O     O_3   0.754319 0.647856 0.684225 -0.579499
C153  C     C_3   0.807845 0.636426 0.753659 0.103617
H93   H     H_    0.841753 0.638295 0.749266 0.133516
H94   H     H_    0.807211 0.602750 0.771721 0.132153
C154  C     C_3   0.822424 0.668458 0.813883 -0.788579
H95   H     H_    0.790831 0.665326 0.822191 0.247547
H96   H     H_    0.865871 0.661310 0.867953 0.199690
H97   H     H_    0.821468 0.702606 0.796653 0.273957
O54   O     O_3   0.245707 0.647881 0.315768 -0.579496
C155  C     C_3   0.192190 0.636455 0.246317 0.103623
H98   H     H_    0.158270 0.638309 0.250688 0.133497
H99   H     H_    0.192834 0.602786 0.228241 0.132162
C156  C     C_3   0.177624 0.668504 0.186121 -0.788586
H100  H     H_    0.209229 0.665388 0.177833 0.247551
H101  H     H_    0.134184 0.661358 0.132037 0.199689
H102  H     H_    0.178568 0.702646 0.203366 0.273955
O55   O     O_3   0.254311 0.147866 0.684228 -0.579499
C157  C     C_3   0.307834 0.136438 0.753668 0.103615
H103  H     H_    0.341746 0.138302 0.749282 0.133514
H104  H     H_    0.307197 0.102764 0.771734 0.132158
C158  C     C_3   0.322408 0.168475 0.813883 -0.788571
H105  H     H_    0.290812 0.165348 0.822185 0.247549
H106  H     H_    0.365853 0.161329 0.867957 0.199693
H107  H     H_    0.321456 0.202621 0.796648 0.273956
O56   O     O_3   0.745745 0.147925 0.315754 -0.579488
C159  C     C_3   0.692245 0.136508 0.246272 0.103634
H108  H     H_    0.658304 0.138337 0.250607 0.133474
H109  H     H_    0.692908 0.102851 0.228178 0.132175
C160  C     C_3   0.677700 0.168584 0.186120 -0.788578
H110  H     H_    0.709328 0.165495 0.177867 0.247557
H111  H     H_    0.634272 0.161443 0.132013 0.199688
H112  H     H_    0.678627 0.202716 0.203386 0.273952

loop_
_geom_bond_atom_site_label_1
_geom_bond_atom_site_label_2
_ccdc_geom_bond_type
C99   C103  A    
C40   H64   S    
C133  C137  A    
C55   C59   A    
O14   Zn11  S    
C158  H106  S    
C48   C135  S    
C77   C101  A    
C136  C140  A    
C160  H110  S    
O56   C159  S    
C146  H77   S    
C135  C139  A    
C90   O34   A    
C47   C136  S    
C95   C99   A    
C44   H72   S    
O19   Zn7   S    
C29   C33   A    
O20   Zn8   S    
C44   O52   S    
O21   Zn1   S    
C3    O19   A    
C87   H23   S    
C1    O17   A    
C88   H24   S    
C70   C74   S    
C3    C19   S    
C157  H103  S    
C16   C44   S    
C147  C148  S    
C80   C84   A    
C107  C111  S    
O40   Zn4   S    
C49   C69   A    
C130  C134  A    
C100  C115  S    
C51   C71   A    
C112  O56   S    
O18   Zn6   S    
C68   H20   S    
C25   C29   A    
O46   Zn10  S    
C153  H94   S    
C27   C31   A    
C28   C32   A    
O9    Zn11  S    
C21   H53   S    
C99   C116  S    
C62   C66   A    
C123  O43   A    
O52   C151  S    
C17   C21   A    
C19   C23   A    
C75   C76   T    
C13   C33   A    
C116  O48   A    
C41   H69   S    
C78   C82   A    
C16   C20   A    
C80   C112  S    
C157  C158  S    
C142  H50   S    
C111  O55   S    
C121  O37   A    
C113  O5    A    
C129  C133  A    
C43   O51   S    
C160  H112  S    
C59   C124  S    
O8    Zn11  S    
O38   Zn2   S    
C155  C156  S    
C107  H35   S    
O28   Zn8   S    
O29   Zn1   S    
C84   C88   A    
C105  H33   S    
C54   H10   S    
C57   C61   A    
C83   C91   S    
C59   C63   A    
C60   C64   A    
C85   H21   S    
C114  O46   A    
C94   H26   S    
C147  H79   S    
C159  C160  S    
C66   C70   A    
C49   C53   A    
O2    Zn2   S    
C89   O29   A    
C51   C55   A    
O11   Zn9   S    
C45   O21   A    
C4    C20   S    
C61   C65   A    
C24   H56   S    
C156  H100  S    
C65   H17   S    
C2    O2    A    
C126  C130  A    
C103  C107  S    
C47   O27   A    
O13   Zn12  S    
C53   H9    S    
O24   Zn4   S    
C110  O54   S    
C63   H15   S    
C56   H12   S    
C120  O16   A    
C7    C143  A    
C92   O32   A    
C118  O10   A    
C55   H11   S    
O48   Zn12  S    
C27   H59   S    
C64   C68   A    
C25   H57   S    
C154  H96   S    
C90   O30   A    
C155  H99   S    
C85   C93   A    
C8    C128  A    
C152  H91   S    
C87   C95   A    
C9    C10   T    
C8    C12   S    
O31   Zn3   S    
C105  H29   S    
O49   C145  S    
C150  H86   S    
C79   C103  A    
C127  C131  A    
C92   O36   A    
C151  H89   S    
C30   C34   A    
O22   Zn2   S    
C78   C110  S    
O12   Zn10  S    
C159  H108  S    
C30   C118  S    
C60   C123  S    
C5    C9    S    
O51   C149  S    
C125  C129  A    
C132  C136  A    
C156  H102  S    
C148  H80   S    
C141  H49   S    
C38   H66   S    
C77   C109  S    
C47   O23   A    
C26   C30   A    
O47   Zn11  S    
O41   Zn5   S    
C93   C97   A    
O43   Zn7   S    
C4    O20   A    
C105  C109  S    
C110  H42   S    
C18   C22   A    
C37   H61   S    
C24   C28   A    
C14   C34   A    
C144  H52   S    
C119  O15   A    
C146  H76   S    
C1    C17   S    
C13   C17   A    
C15   C43   S    
C125  H1    S    
C16   C36   A    
C50   C70   A    
O39   Zn3   S    
C96   C100  A    
C117  O13   A    
C150  H87   S    
O25   Zn5   S    
C37   C41   S    
C41   O49   S    
C6    C10   S    
C67   H19   S    
C40   C44   S    
C5    C125  A    
C145  H73   S    
C157  H104  S    
C84   C92   S    
C7    C127  A    
C97   C114  S    
O30   Zn2   S    
C106  H34   S    
C81   C85   A    
C121  O41   A    
C58   C62   A    
C83   C87   A    
C88   C96   A    
C78   C102  A    
C73   C74   T    
C86   H22   S    
C48   O28   A    
C13   C41   S    
C91   O35   A    
C15   C19   A    
C93   H25   S    
C50   C54   A    
C89   O33   A    
C80   C104  A    
O3    Zn3   S    
C115  O7    A    
C139  H47   S    
C106  C110  S    
C149  H83   S    
C94   C98   A    
C148  H82   S    
C66   H18   S    
C158  H105  S    
C21   C25   A    
C160  H111  S    
C57   C122  S    
C131  H39   S    
C2    O18   A    
O7    Zn12  S    
C4    O4    A    
C145  C146  S    
C62   H14   S    
C69   C73   S    
C6    C142  A    
C120  O12   A    
C123  O39   A    
C124  O40   A    
C81   C89   S    
C51   H7    S    
O10   Zn12  S    
C48   O24   A    
C91   O31   A    
O33   Zn5   S    
C6    C126  A    
C149  C150  S    
C138  C142  A    
C53   C57   A    
C128  H4    S    
C98   C113  S    
C82   C86   A    
C33   C37   S    
C108  C112  S    
O15   Zn10  S    
O44   Zn8   S    
C35   C39   S    
C112  H44   S    
O50   C147  S    
C61   H13   S    
C77   C81   A    
C52   H8    S    
C143  H51   S    
C64   H16   S    
C106  H30   S    
O23   Zn3   S    
O5    Zn10  S    
C114  O6    A    
C31   C119  S    
O1    Zn1   S    
C31   C35   A    
C46   O26   A    
C32   C36   A    
C104  C108  S    
C137  C141  A    
C153  H93   S    
C58   C121  S    
C22   H54   S    
C140  C144  A    
C122  O38   A    
C49   H5    S    
C40   H68   S    
C111  H43   S    
C82   C90   S    
C109  H41   S    
O6    Zn9   S    
C98   C102  A    
C132  H40   S    
C46   C133  S    
C79   C83   A    
C154  H95   S    
C107  H31   S    
C65   C69   A    
C108  H32   S    
C67   C71   A    
O55   C157  S    
O42   Zn6   S    
O27   Zn7   S    
C42   O50   S    
C56   C60   A    
C124  O44   A    
C3    O3    A    
C152  H90   S    
C22   C26   A    
C1    O1    A    
C95   H27   S    
C153  C154  S    
C149  H84   S    
C116  O8    A    
C2    C18   S    
C150  H85   S    
C14   C18   A    
C72   C76   S    
C43   H71   S    
C126  H2    S    
C119  O11   A    
O53   C153  S    
C7    C11   S    
C151  C152  S    
C117  O9    A    
C45   C134  S    
C52   C72   A    
O26   Zn6   S    
C26   H58   S    
C38   C42   S    
C131  C135  A    
O17   Zn5   S    
C147  H78   S    
C159  H109  S    
O45   Zn9   S    
C23   H55   S    
C108  H36   S    
C86   C94   A    
C122  O42   A    
C100  C104  A    
C20   C24   A    
C156  H101  S    
C39   H63   S    
C23   C27   A    
C68   C72   A    
C14   C42   S    
C138  H46   S    
C139  C143  A    
C32   C120  S    
C128  C132  A    
C15   C35   A    
C101  C105  S    
C63   C67   A    
C28   H60   S    
C36   C40   S    
C130  H38   S    
O35   Zn7   S    
O36   Zn8   S    
C154  H97   S    
C39   C43   S    
O37   Zn1   S    
C146  H75   S    
C29   C117  S    
C155  H98   S    
C42   H70   S    
C50   H6    S    
C5    C141  A    
C152  H92   S    
C39   H67   S    
C8    C144  A    
C113  O45   A    
C37   H65   S    
C115  O47   A    
C137  H45   S    
C140  H48   S    
C158  H107  S    
C145  H74   S    
O34   Zn6   S    
O4    Zn4   S    
C45   O25   A    
C54   C58   A    
C129  H37   S    
C151  H88   S    
C38   H62   S    
C34   C38   S    
O16   Zn9   S    
C134  C138  A    
C11   C12   T    
O32   Zn4   S    
C79   C111  S    
C71   C75   S    
C118  O14   A    
C148  H81   S    
C102  C106  S    
C46   O22   A    
O54   C155  S    
C96   H28   S    
C109  O53   S    
C97   C101  A    
C52   C56   A    
C127  H3    S    
