data_mof_unit_45920.cif
_audit_creation_date              2012-12-11T14:21:20-0500
_audit_creation_method            fapswitch 2.2
_symmetry_space_group_name_H-M    P1
_symmetry_Int_Tables_number       1
_space_group_crystal_system       triclinic
_cell_length_a                    21.993368
_cell_length_b                    7.199951
_cell_length_c                    14.927825
_cell_angle_alpha                 90.061481
_cell_angle_beta                  106.892685
_cell_angle_gamma                 90.018993
_cell_volume                      2261.83876696

loop_
_atom_site_label
_atom_site_type_symbol
_atom_type_description
_atom_site_fract_x
_atom_site_fract_y
_atom_site_fract_z
_atom_type_partial_charge
O1    O     O_R   0.584770 0.505770 0.002090 -0.527844
O2    O     O_R   0.415230 0.005770 0.997910 -0.527979
O3    O     O_R   0.467060 0.173340 0.861950 -0.525932
O4    O     O_R   0.532940 0.673340 0.138050 -0.524154
C1    C     C_R   0.454788 0.344190 0.826060 0.749999
C2    C     C_R   0.545250 0.844439 0.173939 0.748431
O5    O     O_R   0.587510 0.175890 0.993210 -0.545468
O6    O     O_R   0.412490 0.675890 0.006790 -0.544581
O7    O     O_R   0.536540 0.008150 0.130100 -0.542871
O8    O     O_R   0.463460 0.508150 0.869900 -0.542356
C3    C     C_R   0.612819 0.345324 0.996961 0.769135
C4    C     C_R   0.387182 0.845287 0.003038 0.767994
O9    O     O_3   0.483140 0.340040 0.044760 -0.382460
O10   O     O_3   0.516860 0.840040 0.955240 -0.383548
V1    V     V_3+5 0.503130 0.064190 0.991700 1.510661
V2    V     V_3+5 0.496870 0.564190 0.008300 1.513860
C5    C     C_2   0.219473 0.730041 0.025256 0.410880
C6    C     C_2   0.780514 0.229798 0.974858 0.410563
C7    C     C_2   0.180824 0.880539 0.997612 -0.342391
C8    C     C_2   0.819180 0.380470 0.002409 -0.341514
H1    H     H_    0.198349 0.001822 0.970009 0.131321
H2    H     H_    0.801660 0.501981 0.029901 0.130788
C9    C     C_2   0.285297 0.717250 0.016625 -0.168046
C10   C     C_2   0.714676 0.217188 0.983438 -0.170144
C11   C     C_2   0.320735 0.863155 0.006271 -0.328922
C12   C     C_2   0.679267 0.363196 0.993729 -0.327500
H3    H     H_    0.301849 0.002811 0.003326 0.163066
H4    H     H_    0.698177 0.502856 0.996643 0.162450
C13   C     C_R   0.927116 0.888368 0.724212 -0.037578
C14   C     C_R   0.072738 0.389885 0.275873 -0.038810
C15   C     C_R   0.575009 0.854715 0.275079 -0.076838
C16   C     C_R   0.424856 0.353165 0.724959 -0.077119
C17   C     C_R   0.937195 0.928331 0.568695 -0.152298
C18   C     C_R   0.063409 0.445840 0.430738 -0.152293
C19   C     C_R   0.964971 0.918071 0.665035 -0.180172
C20   C     C_R   0.035417 0.430678 0.334631 -0.179857
C21   C     C_R   0.861304 0.869076 0.687230 -0.189468
C22   C     C_R   0.138274 0.364304 0.313116 -0.187474
C23   C     C_R   0.831542 0.886593 0.589943 0.074705
C24   C     C_R   0.168385 0.387266 0.410053 0.074589
C25   C     C_R   0.871001 0.914354 0.530793 0.133061
C26   C     C_R   0.129407 0.426373 0.468761 0.132242
C27   C     C_R   0.764100 0.881890 0.549735 0.046977
C28   C     C_R   0.235777 0.377885 0.450228 0.046960
C29   C     C_R   0.737797 0.885339 0.450260 0.076471
C30   C     C_R   0.262279 0.388468 0.549549 0.075619
C31   C     C_R   0.778682 0.925353 0.395480 -0.099749
C32   C     C_R   0.221981 0.439456 0.603625 -0.099990
C33   C     C_R   0.844001 0.936375 0.434744 -0.206110
C34   C     C_R   0.156789 0.454733 0.564311 -0.205216
C35   C     C_R   0.722032 0.886207 0.605462 -0.170972
C36   C     C_R   0.277744 0.370728 0.394400 -0.169872
C37   C     C_R   0.656789 0.898006 0.565133 -0.171848
C38   C     C_R   0.343107 0.378210 0.434402 -0.172117
C39   C     C_R   0.630677 0.891018 0.468211 0.095743
C40   C     C_R   0.369294 0.377981 0.531373 0.095450
C41   C     C_R   0.670623 0.868479 0.409389 0.017925
C42   C     C_R   0.329259 0.367153 0.590635 0.017381
C43   C     C_R   0.564684 0.906290 0.429700 -0.156833
C44   C     C_R   0.435455 0.387754 0.569488 -0.157000
C45   C     C_R   0.537433 0.896225 0.333379 -0.238627
C46   C     C_R   0.462772 0.383062 0.665899 -0.240610
C47   C     C_R   0.641033 0.829735 0.312791 0.293526
C48   C     C_R   0.358537 0.334306 0.687844 0.293438
H5    H     H_    0.486581 0.914568 0.304409 0.123865
H6    H     H_    0.513863 0.395978 0.694421 0.123743
H7    H     H_    0.626388 0.911079 0.610445 0.128380
H8    H     H_    0.373528 0.382245 0.388824 0.128261
H9    H     H_    0.967372 0.951683 0.523845 0.120620
H10   H     H_    0.033635 0.478035 0.475198 0.120878
H11   H     H_    0.834820 0.842726 0.736387 0.140307
H12   H     H_    0.164342 0.330146 0.264320 0.138084
H13   H     H_    0.738099 0.892695 0.680777 0.155499
H14   H     H_    0.261639 0.371115 0.319027 0.154299
H15   H     H_    0.534198 0.929307 0.474144 0.128802
H16   H     H_    0.466081 0.401561 0.524588 0.129037
O11   O     O_R   0.036450 0.233070 0.130130 -0.543981
O12   O     O_R   0.963550 0.733070 0.869870 -0.543603
O13   O     O_R   0.912470 0.560570 0.006790 -0.537265
O14   O     O_R   0.087530 0.060570 0.993210 -0.537179
C49   C     C_R   0.886496 0.391119 0.000632 0.764474
C50   C     C_R   0.113506 0.891170 0.999384 0.764616
O15   O     O_R   0.032920 0.562940 0.138050 -0.535934
O16   O     O_R   0.967080 0.062940 0.861950 -0.535856
O17   O     O_R   0.084790 0.730500 0.002090 -0.503122
O18   O     O_R   0.915210 0.230500 0.997910 -0.503239
C51   C     C_R   0.044780 0.394685 0.174463 0.711200
C52   C     C_R   0.955204 0.894427 0.825560 0.710895
O19   O     O_3   0.016820 0.396170 0.955260 -0.372961
O20   O     O_3   0.983180 0.896170 0.044740 -0.373267
V3    V     V_3+5 0.996880 0.672090 0.008300 1.546304
V4    V     V_3+5 0.003120 0.172090 0.991700 1.546332
Cl1   Cl    Cl    0.195557 0.530955 0.075734 -0.682226
Cl2   Cl    Cl    0.804428 0.030235 0.924616 -0.684751
H17   H     H_    0.015916 0.934907 0.693579 0.112810
H18   H     H_    0.984745 0.452906 0.305863 0.113214
H19   H     H_    0.760677 0.961402 0.322468 0.187012
H20   H     H_    0.240492 0.480834 0.675882 0.187310
H21   H     H_    0.306413 0.579654 0.023553 0.186279
H22   H     H_    0.693528 0.079573 0.976559 0.185352
H23   H     H_    0.873531 0.966593 0.389672 0.132923
H24   H     H_    0.127714 0.493565 0.608847 0.133162
Cl3   Cl    Cl    0.681472 0.715742 0.241259 -0.688443
Cl4   Cl    Cl    0.316977 0.233026 0.761353 -0.688511

loop_
_geom_bond_atom_site_label_1
_geom_bond_atom_site_label_2
_ccdc_geom_bond_type
C9    H21   S    
O11   V4    S    
O4    V2    S    
C39   C43   A    
C15   C45   A    
O15   C51   A    
C18   C26   A    
O2    C4    A    
C2    O7    A    
O17   V3    S    
C23   C25   A    
O5    C3    A    
C29   C41   A    
C5    C9    S    
C6    C10   S    
C7    H1    S    
C10   C12   D    
C36   H14   S    
C33   H23   S    
C38   H8    S    
C14   C22   A    
C44   C46   A    
C29   C31   A    
C13   C52   S    
C17   C19   A    
C36   C38   A    
O1    C3    A    
C7    C50   S    
C18   H10   S    
O13   V3    S    
C49   O18   A    
C17   H9    S    
C1    C16   S    
C28   C36   A    
C32   C34   A    
C2    C15   S    
O6    V2    S    
C8    C49   S    
C30   C42   A    
C25   C33   A    
C28   C30   A    
C41   C47   A    
C38   C40   A    
C37   C39   A    
C42   C48   A    
C22   H12   S    
C43   C45   A    
C46   H6    S    
C15   C47   A    
C16   C48   A    
O14   C50   A    
O13   C49   A    
C47   Cl3   S    
C23   C27   A    
O5    V1    S    
C3    C12   S    
C44   H16   S    
C40   C44   A    
C35   C37   A    
O16   C52   A    
O14   V4    S    
C20   H18   S    
O6    C4    A    
O1    V2    S    
O19   V4    S    
O2    V1    S    
C27   C29   A    
C26   C34   A    
O4    C2    A    
C8    H2    S    
C34   H24   S    
C21   H11   S    
C6    Cl2   S    
C5    Cl1   S    
C43   H15   S    
O3    V1    S    
O12   C52   A    
C48   Cl4   S    
C10   H22   S    
C35   H13   S    
O3    C1    A    
C19   H17   S    
O12   V3    S    
C11   H3    S    
C50   O17   A    
O15   V3    S    
C13   C19   A    
C12   H4    S    
C31   H19   S    
C14   C20   A    
C4    C11   S    
C17   C25   A    
C39   C41   A    
O7    V1    S    
C16   C46   A    
C1    O8    A    
C21   C23   A    
O8    V2    S    
C31   C33   A    
C22   C24   A    
C27   C35   A    
O20   V3    S    
C24   C26   A    
C5    C7    D    
C18   C20   A    
C40   C42   A    
C6    C8    D    
C32   H20   S    
C9    C11   D    
C37   H7    S    
C30   C32   A    
C45   H5    S    
C24   C28   A    
O11   C51   A    
O9    V2    S    
C13   C21   A    
O10   V1    S    
O18   V4    S    
O16   V4    S    
C14   C51   S    
