data_mof_unit_65645.cif
_audit_creation_date              2013-03-05T15:59:08-0500
_audit_creation_method            fapswitch 2.2
_symmetry_space_group_name_H-M    P1
_symmetry_Int_Tables_number       1
_space_group_crystal_system       monoclinic
_cell_length_a                    18.293231
_cell_length_b                    18.311489
_cell_length_c                    25.948511
_cell_angle_alpha                 90.0
_cell_angle_beta                  90.009177
_cell_angle_gamma                 90.0
_cell_volume                      8692.13604789

loop_
_atom_site_label
_atom_site_type_symbol
_atom_site_description
_atom_site_fract_x
_atom_site_fract_y
_atom_site_fract_z
_atom_type_partial_charge
Zn1   Zn    Zn3+2 0.000000 0.913250 0.293350 1.003760
Zn2   Zn    Zn3+2 0.000000 0.913250 0.706650 1.003758
Zn3   Zn    Zn3+2 0.500000 0.413250 0.793350 1.003757
Zn4   Zn    Zn3+2 0.500000 0.413250 0.206650 1.003760
Zn5   Zn    Zn3+2 0.913230 0.999990 0.206580 1.030234
Zn6   Zn    Zn3+2 0.086770 0.999990 0.793420 1.030232
Zn7   Zn    Zn3+2 0.086770 0.999990 0.206580 1.028203
Zn8   Zn    Zn3+2 0.913230 0.999990 0.793420 1.028203
Zn9   Zn    Zn3+2 0.413230 0.499990 0.706580 1.030232
Zn10  Zn    Zn3+2 0.586770 0.499990 0.293420 1.030234
Zn11  Zn    Zn3+2 0.586770 0.499990 0.706580 1.028203
Zn12  Zn    Zn3+2 0.413230 0.499990 0.293420 1.028203
Zn13  Zn    Zn3+2 0.000000 0.086780 0.293330 1.141747
Zn14  Zn    Zn3+2 1.000000 0.086780 0.706670 1.141747
Zn15  Zn    Zn3+2 0.500000 0.586780 0.793330 1.141746
Zn16  Zn    Zn3+2 0.500000 0.586780 0.206670 1.141747
O1    O     O_3   1.000000 0.000000 0.249960 -0.526632
O2    O     O_3   1.000000 0.000000 0.750040 -0.526632
O3    O     O_3   0.500000 0.500000 0.749960 -0.526632
O4    O     O_3   0.500000 0.500000 0.250040 -0.526632
O5    O     O_R   0.914520 0.146190 0.280310 -0.577232
O6    O     O_R   0.085480 0.146190 0.719690 -0.577230
O7    O     O_R   0.085480 0.146190 0.280310 -0.561598
O8    O     O_R   0.914520 0.146190 0.719690 -0.561598
O9    O     O_R   0.414520 0.646190 0.780310 -0.577229
O10   O     O_R   0.585480 0.646190 0.219690 -0.577232
O11   O     O_R   0.585480 0.646190 0.780310 -0.561597
O12   O     O_R   0.414520 0.646190 0.219690 -0.561598
O13   O     O_R   0.085470 0.853840 0.280350 -0.640186
O14   O     O_R   0.914530 0.853840 0.719650 -0.640186
O15   O     O_R   0.914530 0.853840 0.280350 -0.641929
O16   O     O_R   0.085470 0.853840 0.719650 -0.641930
O17   O     O_R   0.585470 0.353840 0.780350 -0.640186
O18   O     O_R   0.414530 0.353840 0.219650 -0.640186
O19   O     O_R   0.414530 0.353840 0.780350 -0.641930
O20   O     O_R   0.585470 0.353840 0.219650 -0.641928
O21   O     O_R   0.853820 0.914550 0.219610 -0.630339
O22   O     O_R   0.146180 0.914550 0.780390 -0.630341
O23   O     O_R   0.146180 0.914550 0.219610 -0.626097
O24   O     O_R   0.853820 0.914550 0.780390 -0.626097
O25   O     O_R   0.353820 0.414550 0.719610 -0.630340
O26   O     O_R   0.646180 0.414550 0.280390 -0.630339
O27   O     O_R   0.646180 0.414550 0.719610 -0.626097
O28   O     O_R   0.353820 0.414550 0.280390 -0.626097
O29   O     O_R   0.146180 0.085440 0.219600 -0.632065
O30   O     O_R   0.853820 0.085440 0.780400 -0.632065
O31   O     O_R   0.853820 0.085440 0.219600 -0.623113
O32   O     O_R   0.146180 0.085440 0.780400 -0.623113
O33   O     O_R   0.646180 0.585440 0.719600 -0.632064
O34   O     O_R   0.353820 0.585440 0.280400 -0.632065
O35   O     O_R   0.353820 0.585440 0.719600 -0.623113
O36   O     O_R   0.646180 0.585440 0.280400 -0.623113
O37   O     O_R   0.939280 0.999970 0.134160 -0.636529
O38   O     O_R   0.060720 0.999970 0.865840 -0.636529
O39   O     O_R   0.060720 0.999970 0.134160 -0.640698
O40   O     O_R   0.939280 0.999970 0.865840 -0.640698
O41   O     O_R   0.439280 0.499970 0.634160 -0.636528
O42   O     O_R   0.560720 0.499970 0.365840 -0.636529
O43   O     O_R   0.560720 0.499970 0.634160 -0.640698
O44   O     O_R   0.439280 0.499970 0.365840 -0.640698
O45   O     O_R   1.000000 0.060760 0.365770 -0.601019
O46   O     O_R   1.000000 0.060760 0.634230 -0.601019
O47   O     O_R   0.500000 0.560760 0.865770 -0.601019
O48   O     O_R   0.500000 0.560760 0.134230 -0.601019
O49   O     O_R   1.000000 0.939310 0.365780 -0.654491
O50   O     O_R   0.000000 0.939310 0.634220 -0.654491
O51   O     O_R   0.500000 0.439310 0.865780 -0.654492
O52   O     O_R   0.500000 0.439310 0.134220 -0.654491
C1    C     C_R   0.859889 0.140207 0.249776 0.895015
C2    C     C_R   0.140111 0.140207 0.750224 0.895007
C3    C     C_R   0.140366 0.139952 0.250042 0.896087
C4    C     C_R   0.859633 0.139952 0.749958 0.896085
C5    C     C_R   0.359889 0.640207 0.749776 0.895002
C6    C     C_R   0.640111 0.640207 0.250224 0.895015
C7    C     C_R   0.640366 0.639952 0.750042 0.896085
C8    C     C_R   0.359633 0.639952 0.249958 0.896087
C9    C     C_R   0.140035 0.860003 0.249925 0.838754
C10   C     C_R   0.859965 0.860003 0.750074 0.838754
C11   C     C_R   0.859912 0.860047 0.249971 0.832550
C12   C     C_R   0.140088 0.860047 0.750029 0.832552
C13   C     C_R   0.640035 0.360003 0.749926 0.838754
C14   C     C_R   0.359965 0.360003 0.250074 0.838755
C15   C     C_R   0.359912 0.360047 0.749971 0.832551
C16   C     C_R   0.640088 0.360047 0.250029 0.832550
C17   C     C_R   0.999995 0.000070 0.109800 0.807425
C18   C     C_R   0.000005 0.000070 0.890200 0.807425
C19   C     C_R   0.499995 0.500070 0.609800 0.807425
C20   C     C_R   0.500005 0.500070 0.390200 0.807425
C21   C     C_R   0.004155 0.000319 0.390161 0.850978
C22   C     C_R   0.995845 0.000319 0.609839 0.850974
C23   C     C_R   0.504155 0.500319 0.890161 0.850973
C24   C     C_R   0.495845 0.500319 0.109839 0.850978
H1    H     H_    0.002484 0.883580 0.453337 0.180910
H2    H     H_    0.997513 0.883580 0.546663 0.180910
H3    H     H_    0.502487 0.383580 0.953337 0.180910
H4    H     H_    0.497517 0.383580 0.046663 0.180910
C25   C     C_R   0.042835 0.134310 0.454714 0.202981
C26   C     C_R   0.957169 0.134311 0.545286 0.202983
C27   C     C_R   0.542830 0.634312 0.954714 0.202984
C28   C     C_R   0.457165 0.634310 0.045286 0.202980
C29   C     C_R   0.022917 0.201012 0.478249 0.144341
C30   C     C_R   0.977089 0.201013 0.521751 0.144342
C31   C     C_R   0.522910 0.701013 0.978249 0.144342
C32   C     C_R   0.477081 0.701012 0.021751 0.144341
C33   C     C_R   0.986313 0.068155 0.525297 -0.079972
C34   C     C_R   0.013689 0.068155 0.474703 -0.079973
C35   C     C_R   0.486311 0.568155 0.025297 -0.079973
C36   C     C_R   0.513687 0.568155 0.974703 -0.079972
C37   C     C_R   0.010340 0.001467 0.446655 0.010211
C38   C     C_R   0.989660 0.001468 0.553345 0.010210
C39   C     C_R   0.510339 0.501468 0.946655 0.010210
C40   C     C_R   0.489660 0.501467 0.053345 0.010211
C41   C     C_R   0.002818 0.935447 0.473404 -0.174015
C42   C     C_R   0.997180 0.935447 0.526596 -0.174015
C43   C     C_R   0.502820 0.435447 0.973404 -0.174016
C44   C     C_R   0.497182 0.435447 0.026596 -0.174016
C45   C     C_R   0.269095 0.823844 0.243323 -0.201306
C46   C     C_R   0.730905 0.823844 0.756677 -0.201307
C47   C     C_R   0.770739 0.784038 0.203608 -0.213294
C48   C     C_R   0.229267 0.784043 0.796391 -0.213294
C49   C     C_R   0.769095 0.323844 0.743323 -0.201307
C50   C     C_R   0.230905 0.323844 0.256676 -0.201306
C51   C     C_R   0.270735 0.284042 0.703609 -0.213293
C52   C     C_R   0.729261 0.284038 0.296392 -0.213293
H5    H     H_    0.283822 0.880882 0.239255 0.207520
H6    H     H_    0.716177 0.880882 0.760745 0.207520
H7    H     H_    0.787821 0.809311 0.167803 0.195299
H8    H     H_    0.212189 0.809321 0.832195 0.195299
H9    H     H_    0.783822 0.380882 0.739255 0.207520
H10   H     H_    0.216177 0.380882 0.260745 0.207520
H11   H     H_    0.287814 0.309318 0.667804 0.195299
H12   H     H_    0.712179 0.309311 0.332196 0.195299
C53   C     C_R   0.823780 0.270962 0.745149 0.303868
C54   C     C_R   0.176220 0.270962 0.254851 0.303869
C55   C     C_R   0.218790 0.228414 0.702720 0.298634
C56   C     C_R   0.781205 0.228409 0.297281 0.298635
C57   C     C_R   0.323780 0.770962 0.245149 0.303869
C58   C     C_R   0.676220 0.770962 0.754851 0.303868
C59   C     C_R   0.718794 0.728410 0.202719 0.298635
C60   C     C_R   0.281211 0.728416 0.797280 0.298635
C61   C     C_R   0.803752 0.196590 0.750672 -0.176275
C62   C     C_R   0.196248 0.196590 0.249328 -0.176274
C63   C     C_R   0.197157 0.195673 0.749816 -0.180389
C64   C     C_R   0.802843 0.195673 0.250184 -0.180387
C65   C     C_R   0.303752 0.696590 0.250672 -0.176274
C66   C     C_R   0.696248 0.696590 0.749328 -0.176275
C67   C     C_R   0.697157 0.695673 0.249816 -0.180387
C68   C     C_R   0.302843 0.695673 0.750184 -0.180389
C69   C     C_R   0.729297 0.177041 0.755611 0.152530
C70   C     C_R   0.270703 0.177041 0.244389 0.152531
C71   C     C_R   0.229613 0.218073 0.796690 0.154877
C72   C     C_R   0.770390 0.218076 0.203309 0.154874
C73   C     C_R   0.229297 0.677041 0.255611 0.152531
C74   C     C_R   0.770703 0.677041 0.744388 0.152530
C75   C     C_R   0.729610 0.718076 0.296691 0.154874
C76   C     C_R   0.270385 0.718071 0.703310 0.154879
C77   C     C_R   0.176312 0.731215 0.256230 -0.186555
C78   C     C_R   0.823687 0.731215 0.743769 -0.186556
C79   C     C_R   0.783771 0.771065 0.296086 -0.179150
C80   C     C_R   0.216224 0.771061 0.703914 -0.179155
C81   C     C_R   0.676312 0.231215 0.756230 -0.186556
C82   C     C_R   0.323687 0.231215 0.243770 -0.186555
C83   C     C_R   0.283774 0.271062 0.796086 -0.179154
C84   C     C_R   0.716229 0.271066 0.203914 -0.179150
H13   H     H_    0.119292 0.716172 0.260170 0.183857
H14   H     H_    0.880708 0.716173 0.739830 0.183858
H15   H     H_    0.808719 0.788049 0.332022 0.182776
H16   H     H_    0.191272 0.788041 0.667979 0.182780
H17   H     H_    0.619292 0.216173 0.760170 0.183858
H18   H     H_    0.380708 0.216172 0.239830 0.183857
H19   H     H_    0.308725 0.288044 0.832021 0.182778
H20   H     H_    0.691281 0.288050 0.167978 0.182776
C85   C     C_R   0.196002 0.804157 0.249776 -0.092836
C86   C     C_R   0.803998 0.804157 0.750224 -0.092835
C87   C     C_R   0.803881 0.804256 0.249889 -0.088517
C88   C     C_R   0.196119 0.804257 0.750110 -0.088519
C89   C     C_R   0.696002 0.304157 0.749776 -0.092836
C90   C     C_R   0.303998 0.304157 0.250224 -0.092836
C91   C     C_R   0.303881 0.304257 0.749890 -0.088518
C92   C     C_R   0.696118 0.304256 0.250110 -0.088517
C93   C     C_R   0.066378 0.000434 0.026719 -0.151224
C94   C     C_R   0.933622 0.000434 0.973281 -0.151224
C95   C     C_R   0.933614 0.000466 0.026710 -0.144074
C96   C     C_R   0.066386 0.000466 0.973290 -0.144075
C97   C     C_R   0.566378 0.500434 0.526719 -0.151224
C98   C     C_R   0.433622 0.500434 0.473281 -0.151224
C99   C     C_R   0.433614 0.500466 0.526710 -0.144075
C100  C     C_R   0.566386 0.500466 0.473290 -0.144074
H21   H     H_    0.118284 0.000440 0.046808 0.185520
H22   H     H_    0.881716 0.000440 0.953192 0.185520
H23   H     H_    0.881707 0.000529 0.046792 0.188918
H24   H     H_    0.118293 0.000529 0.953208 0.188919
H25   H     H_    0.618284 0.500440 0.546808 0.185520
H26   H     H_    0.381716 0.500440 0.453192 0.185521
H27   H     H_    0.381707 0.500529 0.546792 0.188919
H28   H     H_    0.618293 0.500529 0.453208 0.188918
C101  C     C_R   0.000006 0.000326 0.946300 -0.014784
C102  C     C_R   0.999994 0.000326 0.053700 -0.014783
C103  C     C_R   0.500006 0.500326 0.446300 -0.014783
C104  C     C_R   0.499994 0.500326 0.553700 -0.014784
N1    N     N_R   0.101698 0.132236 0.417598 0.235307
O53   O     O_R   0.113019 0.186025 0.385869 -0.299334
O54   O     O_R   0.147294 0.077656 0.417444 -0.390258
N2    N     N_R   0.898305 0.132239 0.582401 0.235307
O55   O     O_R   0.886985 0.186028 0.614130 -0.299330
O56   O     O_R   0.852708 0.077660 0.582555 -0.390256
N3    N     N_R   0.601694 0.632239 0.917599 0.235308
O57   O     O_R   0.613014 0.686029 0.885870 -0.299330
O58   O     O_R   0.647292 0.577661 0.917445 -0.390256
N4    N     N_R   0.398301 0.632235 0.082402 0.235306
O59   O     O_R   0.386980 0.686024 0.114131 -0.299334
O60   O     O_R   0.352706 0.577655 0.082556 -0.390259
N5    N     N_R   0.048585 0.269247 0.458226 0.275789
O61   O     O_R   0.089279 0.311246 0.486719 -0.269680
O62   O     O_R   0.020611 0.295067 0.415876 -0.234517
N6    N     N_R   0.951425 0.269248 0.541775 0.275790
O63   O     O_R   0.910732 0.311250 0.513281 -0.269681
O64   O     O_R   0.979399 0.295067 0.584125 -0.234509
N7    N     N_R   0.548574 0.769248 0.958225 0.275789
O65   O     O_R   0.589266 0.811250 0.986719 -0.269682
O66   O     O_R   0.520599 0.795067 0.915875 -0.234505
N8    N     N_R   0.451414 0.769246 0.041774 0.275789
O67   O     O_R   0.410719 0.811246 0.013280 -0.269680
O68   O     O_R   0.479388 0.795067 0.084124 -0.234517
N9    N     N_R   0.898915 0.294010 0.743503 0.236852
O69   O     O_R   0.918021 0.348773 0.714515 -0.287497
O70   O     O_R   0.945643 0.268573 0.776802 -0.384397
N10   N     N_R   0.101085 0.294010 0.256496 0.236851
O71   O     O_R   0.081979 0.348773 0.285485 -0.287499
O72   O     O_R   0.054356 0.268573 0.223197 -0.384397
N11   N     N_R   0.191075 0.204054 0.653759 0.228044
O73   O     O_R   0.188463 0.134640 0.643129 -0.388407
O74   O     O_R   0.179530 0.250954 0.616963 -0.307144
N12   N     N_R   0.808917 0.204046 0.346241 0.228044
O75   O     O_R   0.811534 0.134630 0.356867 -0.388410
O76   O     O_R   0.820450 0.250941 0.383043 -0.307159
N13   N     N_R   0.398915 0.794010 0.243504 0.236851
O77   O     O_R   0.418021 0.848773 0.214515 -0.287498
O78   O     O_R   0.445643 0.768573 0.276802 -0.384397
N14   N     N_R   0.601085 0.794010 0.756496 0.236853
O79   O     O_R   0.581979 0.848773 0.785485 -0.287496
O80   O     O_R   0.554356 0.768573 0.723198 -0.384397
N15   N     N_R   0.691083 0.704046 0.153759 0.228044
O81   O     O_R   0.688466 0.634630 0.143133 -0.388409
O82   O     O_R   0.679548 0.750941 0.116958 -0.307158
N16   N     N_R   0.308930 0.704059 0.846240 0.228043
O83   O     O_R   0.311539 0.634645 0.856873 -0.388405
O84   O     O_R   0.320481 0.750961 0.883034 -0.307138
I1    I     I_    0.690028 0.067536 0.758183 -0.209908
I2    I     I_    0.309972 0.067536 0.241817 -0.209906
I3    I     I_    0.197229 0.180153 0.870912 -0.247519
I4    I     I_    0.802780 0.180161 0.129088 -0.247520
I5    I     I_    0.190028 0.567536 0.258183 -0.209906
I6    I     I_    0.809972 0.567536 0.741817 -0.209909
I7    I     I_    0.697221 0.680161 0.370912 -0.247520
I8    I     I_    0.302766 0.680150 0.629088 -0.247517

loop_
_geom_bond_atom_site_label_1
_geom_bond_atom_site_label_2
_geom_bond_distance
_ccdc_geom_bond_type
Zn16  O12   1.934680 S    
C27   C31   1.413375 A    
C33   C38   1.422908 A    
Zn4   O20   1.934354 S    
C29   C30   1.406191 A    
Zn5   O21   1.934772 S    
Zn2   O2    1.947064 S    
N1    O54   1.301777 A    
C35   C40   1.422905 A    
Zn14  O2    1.947213 S    
Zn9   O35   1.934872 S    
Zn7   O39   1.938598 S    
Zn10  O36   1.934872 S    
C60   C68   1.417629 A    
N10   O72   1.301548 A    
H2    C42   1.083153 S    
C61   C69   1.414121 A    
O18   C14   1.277726 A    
O50   C22   1.286107 A    
N5    O61   1.300825 A    
C1    C64   1.456262 S    
O49   C21   1.286105 A    
C27   C36   1.421581 A    
Zn5   O31   1.934872 S    
C59   C67   1.417629 A    
C2    C63   1.456262 S    
C26   C33   1.421580 A    
Zn6   O32   1.934872 S    
N12   O76   1.301442 A    
C60   N16   1.438701 S    
Zn7   O29   1.934811 S    
C20   C103  1.455719 S    
C26   N2    1.445282 S    
Zn10  O42   1.938746 S    
C53   N9    1.438439 S    
C74   C78   1.387001 A    
N6    O64   1.301088 A    
O36   C6    1.277169 A    
C73   C77   1.387001 A    
C47   H7    1.084017 S    
C56   C64   1.417629 A    
O11   C7    1.279961 A    
Zn15  O9    1.934593 S    
C40   C44   1.400816 A    
C54   C62   1.417552 A    
Zn3   O17   1.934441 S    
C23   C39   1.470414 S    
C43   C44   1.384109 A    
O25   C15   1.276368 A    
C100  H28   1.083210 S    
C21   C37   1.470414 S    
Zn1   O15   1.934355 S    
N3    O58   1.301777 A    
C52   H12   1.084020 S    
Zn2   O16   1.934354 S    
O47   C23   1.277214 A    
N1    O53   1.300356 A    
Zn14  O8    1.934680 S    
C82   H18   1.083691 S    
C16   C92   1.447162 S    
C94   C95   1.386395 A    
C50   C54   1.393079 A    
C46   H6    1.083794 S    
O10   C6    1.279945 A    
O17   C13   1.277726 A    
C75   I7    2.131352 S    
Zn3   O51   1.939088 S    
C48   C88   1.395230 A    
C28   C32   1.413375 A    
O31   C1    1.277169 A    
O52   C24   1.286105 A    
H3    C43   1.083153 S    
Zn12  O34   1.934811 S    
N15   O82   1.301442 A    
C56   N12   1.438702 S    
O28   C14   1.276386 A    
Zn1   O49   1.939088 S    
C35   C36   1.405172 A    
C96   H24   1.083210 S    
O32   C2    1.277170 A    
Zn3   O3    1.947064 S    
C48   C60   1.393223 A    
C83   H19   1.083703 S    
C38   C42   1.400813 A    
O30   C4    1.277376 A    
Zn8   O24   1.934712 S    
C84   C92   1.393495 A    
C37   C41   1.400815 A    
C65   C73   1.414121 A    
H4    C44   1.083152 S    
C28   N4    1.445283 S    
C63   C71   1.414195 A    
C55   N11   1.438704 S    
N13   O77   1.301409 A    
Zn16  O10   1.934592 S    
C80   C88   1.393497 A    
O44   C20   1.278022 A    
Zn8   O40   1.938598 S    
C94   C101  1.401846 A    
C93   H21   1.083144 S    
C19   C104  1.455719 S    
Zn6   O38   1.938746 S    
Zn11  O43   1.938598 S    
C93   C102  1.401846 A    
C32   N8    1.432367 S    
N10   O71   1.301407 A    
Zn13  O7    1.934679 S    
Zn9   O3    1.945778 S    
C58   C66   1.417550 A    
C70   I2    2.131044 S    
N16   O84   1.301448 A    
C81   H17   1.083689 S    
N5    O62   1.301087 A    
C7    C66   1.456363 S    
C69   I1    2.131043 S    
C4    C61   1.456363 S    
C70   C82   1.387001 A    
Zn6   O2    1.945777 S    
Zn4   O18   1.934443 S    
Zn11  O27   1.934712 S    
C95   C102  1.401692 A    
C82   C90   1.393500 A    
O51   C23   1.286106 A    
C52   C56   1.393227 A    
C5    C68   1.456262 S    
C75   C79   1.386873 A    
N3    O57   1.300355 A    
C11   C87   1.447162 S    
C6    C67   1.456263 S    
C76   C80   1.386872 A    
O26   C16   1.276368 A    
N6    O63   1.300826 A    
C12   C88   1.447162 S    
Zn9   O41   1.938746 S    
C51   C91   1.395231 A    
Zn10  O4    1.945777 S    
N7    O65   1.300826 A    
O38   C18   1.278041 A    
O19   C15   1.277631 A    
C24   C40   1.470414 S    
C97   C100  1.386395 A    
C71   I3    2.131355 S    
C100  C103  1.401692 A    
Zn7   O1    1.946071 S    
C26   C30   1.413375 A    
C50   H10   1.083791 S    
Zn8   O2    1.946072 S    
O41   C19   1.278041 A    
O5    C1    1.279945 A    
Zn15  O11   1.934679 S    
C54   N10   1.438438 S    
O39   C17   1.278022 A    
Zn15  O3    1.947213 S    
Zn11  O33   1.934811 S    
O34   C8    1.277376 A    
O16   C12   1.277631 A    
Zn13  O45   1.939154 S    
O21   C11   1.276368 A    
Zn7   O23   1.934712 S    
C57   C65   1.417552 A    
O40   C18   1.278022 A    
C66   C74   1.414121 A    
Zn3   O19   1.934355 S    
Zn16  O4    1.947213 S    
Zn11  O3    1.946071 S    
O14   C10   1.277726 A    
Zn12  O4    1.946072 S    
N14   O80   1.301546 A    
N9    O69   1.301408 A    
Zn13  O5    1.934593 S    
N11   O74   1.301445 A    
H1    C41   1.083152 S    
N2    O55   1.300357 A    
Zn5   O1    1.945778 S    
N8    O68   1.301089 A    
Zn10  O26   1.934772 S    
C78   C86   1.393500 A    
Zn15  O47   1.939154 S    
O33   C7    1.277376 A    
C72   C84   1.386873 A    
C98   C99   1.386395 A    
C3    C62   1.456363 S    
C25   C34   1.421580 A    
C30   N6    1.432367 S    
N11   O73   1.301546 A    
N2    O56   1.301778 A    
C8    C65   1.456363 S    
C96   C101  1.401692 A    
N4    O60   1.301776 A    
C31   N7    1.432368 S    
N13   O78   1.301547 A    
C83   C91   1.393494 A    
C79   C87   1.393494 A    
O27   C13   1.276386 A    
C29   N5    1.432369 S    
O24   C10   1.276386 A    
C98   C103  1.401846 A    
C84   H20   1.083700 S    
C69   C81   1.387001 A    
N12   O75   1.301543 A    
O48   C24   1.277215 A    
C77   H13   1.083691 S    
O12   C8    1.279961 A    
O23   C9    1.276386 A    
C72   I4    2.131353 S    
C67   C75   1.414195 A    
O29   C3    1.277376 A    
O8    C4    1.279961 A    
Zn4   O52   1.939088 S    
C41   C42   1.384109 A    
C74   I6    2.131042 S    
C93   C96   1.386395 A    
C45   C85   1.394961 A    
C50   C90   1.394961 A    
C73   I5    2.131042 S    
N16   O83   1.301547 A    
C49   H9    1.083794 S    
C28   C35   1.421580 A    
C9    C85   1.447054 S    
C51   H11   1.084020 S    
Zn1   O1    1.947064 S    
C98   H26   1.083144 S    
C45   C57   1.393079 A    
O35   C5    1.277170 A    
C97   H25   1.083144 S    
Zn2   O50   1.939088 S    
C95   H23   1.083210 S    
C49   C89   1.394961 A    
C48   H8    1.084020 S    
O15   C11   1.277631 A    
Zn4   O4    1.947064 S    
C25   N1    1.445284 S    
Zn9   O25   1.934772 S    
C68   C76   1.414198 A    
C33   C34   1.405172 A    
Zn16  O48   1.939154 S    
C71   C83   1.386873 A    
C36   C39   1.422906 A    
C15   C91   1.447161 S    
C99   C104  1.401692 A    
Zn2   O14   1.934443 S    
C47   C59   1.393228 A    
Zn14  O6    1.934592 S    
O37   C17   1.278041 A    
Zn5   O37   1.938746 S    
C13   C89   1.447054 S    
C64   C72   1.414195 A    
C62   C70   1.414121 A    
Zn1   O13   1.934441 S    
O22   C12   1.276368 A    
O20   C16   1.277631 A    
C27   N3    1.445283 S    
O46   C22   1.277214 A    
C55   C63   1.417628 A    
N14   O79   1.301408 A    
N9    O70   1.301546 A    
C79   H15   1.083703 S    
O9    C5    1.279945 A    
N7    O66   1.301089 A    
C80   H16   1.083702 S    
C97   C104  1.401846 A    
C57   N13   1.438438 S    
N8    O67   1.300825 A    
O45   C21   1.277215 A    
C81   C89   1.393500 A    
O43   C19   1.278022 A    
C58   N14   1.438440 S    
C52   C92   1.395230 A    
C18   C101  1.455719 S    
Zn13  O1    1.947213 S    
Zn12  O44   1.938598 S    
C78   H14   1.083689 S    
C76   I8    2.131354 S    
C17   C102  1.455719 S    
C47   C87   1.395230 A    
O13   C9    1.277726 A    
C59   N15   1.438703 S    
C46   C86   1.394959 A    
O7    C3    1.279961 A    
Zn12  O28   1.934712 S    
N4    O59   1.300359 A    
C51   C55   1.393225 A    
C31   C32   1.406190 A    
C10   C86   1.447054 S    
C22   C38   1.470414 S    
C99   H27   1.083210 S    
C39   C43   1.400814 A    
C53   C61   1.417552 A    
C94   H22   1.083144 S    
Zn8   O30   1.934811 S    
C49   C53   1.393077 A    
Zn6   O22   1.934772 S    
C46   C58   1.393079 A    
C45   H5    1.083792 S    
O42   C20   1.278041 A    
C14   C90   1.447054 S    
O6    C2    1.279945 A    
C25   C29   1.413375 A    
N15   O81   1.301544 A    
C77   C85   1.393500 A    
C34   C37   1.422906 A    
Zn14  O46   1.939154 S    
