data_mof_unit_65006.cif
_audit_creation_date              2012-10-26T20:54:24-0400
_audit_creation_method            fapswitch 2.2
_symmetry_space_group_name_H-M    P1
_symmetry_Int_Tables_number       1
_space_group_crystal_system       triclinic
_cell_length_a                    16.443267
_cell_length_b                    17.310576
_cell_length_c                    17.7397
_cell_angle_alpha                 90.242688
_cell_angle_beta                  90.558748
_cell_angle_gamma                 87.213478
_cell_volume                      5043.22511442

loop_
_atom_site_label
_atom_site_type_symbol
_atom_type_description
_atom_site_fract_x
_atom_site_fract_y
_atom_site_fract_z
_atom_type_partial_charge
C1    C     C_R   0.499377 0.502584 0.355632 0.580199
C2    C     C_R   0.546528 0.451075 0.233951 -0.159919
C3    C     C_R   0.446206 0.553632 0.842640 0.011975
C4    C     C_R   0.542927 0.446455 0.155486 0.012636
C5    C     C_R   0.502322 0.506834 0.885265 -0.003214
C6    C     C_R   0.491684 0.500237 0.115297 -0.004269
C7    C     C_1   0.497567 0.505599 0.966443 0.063382
C8    C     C_1   0.494415 0.502911 0.034073 0.059368
C9    C     C_R   0.826667 0.548994 0.548649 -0.114261
C10   C     C_R   0.172064 0.463873 0.442358 -0.112799
C11   C     C_R   0.740894 0.547927 0.547703 0.076286
C12   C     C_R   0.500619 0.497576 0.644534 0.563958
C13   C     C_R   0.257853 0.464398 0.443275 0.077069
C14   C     C_R   0.745141 0.452275 0.452257 0.070081
C15   C     C_R   0.255669 0.536743 0.556395 0.062922
C16   C     C_R   0.509457 0.349996 0.497036 0.567573
C17   C     C_R   0.490433 0.649810 0.495308 0.565212
C18   C     C_R   0.830985 0.451622 0.451474 -0.117721
C19   C     C_R   0.169805 0.537547 0.557517 -0.120240
C20   C     C_R   0.872977 0.500406 0.500106 0.028936
C21   C     C_R   0.126774 0.500627 0.500074 0.026074
C22   C     C_1   0.962581 0.500588 0.500173 0.004782
C23   C     C_R   0.559383 0.455956 0.848628 0.000839
C24   C     C_1   0.037160 0.500661 0.500170 0.004510
C25   C     C_R   0.510522 0.265814 0.495137 -0.028103
C26   C     C_R   0.487075 0.733324 0.483856 -0.022588
C27   C     C_R   0.452251 0.228457 0.451508 0.100954
C28   C     C_R   0.542189 0.768249 0.435476 0.107659
C29   C     C_R   0.438340 0.150655 0.465202 0.122163
C30   C     C_R   0.539532 0.849162 0.429178 0.119922
C31   C     C_R   0.490790 0.107701 0.515032 -0.013506
C32   C     C_R   0.479736 0.894142 0.468330 -0.016781
C33   C     C_R   0.553830 0.144285 0.554305 0.008245
C34   C     C_R   0.442375 0.556030 0.154502 0.000699
C35   C     C_R   0.420645 0.858255 0.512031 0.009153
C36   C     C_R   0.561682 0.223778 0.544818 -0.108327
C37   C     C_R   0.426353 0.778044 0.520257 -0.112566
C38   C     C_2   0.482020 0.024078 0.523371 -0.154607
C39   C     C_2   0.480925 0.978543 0.462414 -0.108688
C40   C     C_2   0.611936 0.100611 0.605147 0.271622
C41   C     C_2   0.351051 0.902771 0.547116 0.260885
C42   C     C_2   0.619345 0.409188 0.894649 0.312024
C43   C     C_2   0.386751 0.609919 0.111479 0.308207
C44   C     C_2   0.387956 0.611684 0.876574 0.245391
C45   C     C_R   0.559529 0.451503 0.769004 0.093605
C46   C     C_2   0.592825 0.383417 0.118814 0.251131
C47   C     C_R   0.445081 0.558380 0.234062 0.099968
C48   C     C_R   0.501857 0.497385 0.727227 -0.006795
C49   C     C_R   0.497528 0.505248 0.273271 0.009004
C50   C     C_R   0.445485 0.546691 0.764338 -0.174281
Cu1   Cu    Cu3+1 0.580420 0.500000 0.499980 1.003134
Cu2   Cu    Cu3+1 0.419580 0.500000 0.500020 1.003694
H1    H     H_    0.856524 0.587566 0.587071 0.117984
H2    H     H_    0.606730 0.253653 0.577256 0.197727
H3    H     H_    0.487596 0.003638 0.406911 0.196889
H4    H     H_    0.482371 0.998971 0.579414 0.131483
H5    H     H_    0.402438 0.582536 0.731493 0.110914
H6    H     H_    0.585527 0.409898 0.265159 0.115345
H7    H     H_    0.610952 0.038285 0.609955 0.121745
H8    H     H_    0.337564 0.962773 0.532795 0.156839
H9    H     H_    0.648224 0.435246 0.943112 0.126897
H10   H     H_    0.350598 0.587903 0.065423 0.142157
H11   H     H_    0.334403 0.631988 0.844782 0.117948
H12   H     H_    0.141396 0.435009 0.396703 0.126097
H13   H     H_    0.643745 0.355635 0.149292 0.119744
H14   H     H_    0.706049 0.585713 0.585372 0.134143
H15   H     H_    0.291472 0.436374 0.398043 0.160300
H16   H     H_    0.713694 0.414382 0.414444 0.127566
H17   H     H_    0.287617 0.566057 0.600826 0.125119
H18   H     H_    0.864259 0.413225 0.413086 0.117301
H19   H     H_    0.137327 0.566974 0.602959 0.117020
H20   H     H_    0.382851 0.749761 0.554976 0.175905
I1    I     I_    0.391255 0.287997 0.359759 -0.289985
I2    I     I_    0.624510 0.699551 0.366222 -0.211797
I3    I     I_    0.628724 0.904615 0.363321 -0.233955
I4    I     I_    0.331263 0.102376 0.417580 -0.268648
I5    I     I_    0.646183 0.375458 0.711935 -0.200763
I6    I     I_    0.370575 0.641984 0.295383 -0.196383
N1    N     N_R   0.701220 0.499980 0.499970 -0.217546
N2    N     N_R   0.298780 0.500020 0.500030 -0.222399
O1    O     O_R   0.567930 0.499990 0.391240 -0.497753
O2    O     O_2   0.306926 0.872503 0.592183 -0.479568
O3    O     O_2   0.634030 0.340711 0.881450 -0.397224
O4    O     O_2   0.383222 0.679208 0.124854 -0.400537
O5    O     O_2   0.400670 0.640303 0.938244 -0.479205
O6    O     O_2   0.575895 0.359254 0.056193 -0.466938
O7    O     O_R   0.432070 0.500010 0.608760 -0.513622
O8    O     O_R   0.432120 0.500000 0.391270 -0.487086
O9    O     O_R   0.567880 0.500000 0.608730 -0.487238
O10   O     O_R   0.575780 0.386400 0.499970 -0.504828
O11   O     O_R   0.424220 0.613600 0.500030 -0.497956
O12   O     O_R   0.439960 0.386410 0.500000 -0.474328
O13   O     O_R   0.560040 0.613590 0.500000 -0.487935
O14   O     O_2   0.662561 0.133904 0.642292 -0.448028

loop_
_geom_bond_atom_site_label_1
_geom_bond_atom_site_label_2
_ccdc_geom_bond_type
C18   H18   S    
C16   O10   A    
C23   C45   A    
C27   C29   A    
C14   C18   A    
C19   H19   S    
C17   O11   A    
C12   C48   S    
C28   I2    S    
C7    C8    T    
C47   C49   A    
C29   I4    S    
C4    C46   S    
C15   C19   A    
C23   C42   S    
C17   O13   A    
C17   C26   S    
C19   C21   A    
Cu1   O10   S    
C38   C39   D    
C1    O1    A    
C33   C36   A    
C32   C39   S    
C39   H3    S    
C31   C33   A    
Cu1   O1    S    
C11   H14   S    
C1    O8    A    
C48   C50   A    
C13   N2    A    
C44   H11   S    
C40   H7    S    
C43   O4    D    
C37   H20   S    
C3    C50   A    
C10   C21   A    
C15   H17   S    
C3    C44   S    
C33   C40   S    
C34   C43   S    
Cu1   Cu2   S    
C32   C35   A    
C12   O9    A    
Cu2   O8    S    
C46   H13   S    
C4    C6    A    
C5    C7    S    
C6    C8    S    
C6    C34   A    
C2    C4    A    
C2    C49   A    
C9    C20   A    
C15   N2    A    
C5    C23   A    
C14   N1    A    
C9    C11   A    
C42   H9    S    
C11   N1    A    
Cu1   O13   S    
C20   C22   S    
C16   O12   A    
C22   C24   T    
Cu2   O12   S    
C9    H1    S    
C44   O5    D    
C13   H15   S    
C45   C48   A    
C16   C25   S    
C12   O7    A    
C35   C37   A    
C50   H5    S    
Cu2   O7    S    
C10   H12   S    
C42   O3    D    
C41   H8    S    
C40   O14   D    
C3    C5    A    
C10   C13   A    
C2    H6    S    
C26   C37   A    
C25   C27   A    
C26   C28   A    
C31   C38   S    
C28   C30   A    
C29   C31   A    
Cu2   N2    S    
Cu1   O9    S    
C30   C32   A    
C30   I3    S    
C41   O2    D    
C18   C20   A    
C35   C41   S    
Cu1   N1    S    
C36   H2    S    
C25   C36   A    
C38   H4    S    
C21   C24   S    
C14   H16   S    
Cu2   O11   S    
C45   I5    S    
C34   C47   A    
C47   I6    S    
C27   I1    S    
C1    C49   S    
C43   H10   S    
C46   O6    D    
