data_mof_unit_65650.cif
_audit_creation_date              2012-12-10T20:20:37-0500
_audit_creation_method            fapswitch 2.2
_symmetry_space_group_name_H-M    P1
_symmetry_Int_Tables_number       1
_space_group_crystal_system       triclinic
_cell_length_a                    41.514575
_cell_length_b                    35.550504
_cell_length_c                    21.350289
_cell_angle_alpha                 89.999636
_cell_angle_beta                  58.506429
_cell_angle_gamma                 89.999908
_cell_volume                      26868.6447745

loop_
_atom_site_label
_atom_site_type_symbol
_atom_type_description
_atom_site_fract_x
_atom_site_fract_y
_atom_site_fract_z
_atom_type_partial_charge
C1    C     C_R   0.926579 0.499915 0.077056 0.930441
C2    C     C_R   0.326522 0.533156 0.686065 -0.126312
C3    C     C_R   0.000002 0.807387 0.499999 0.168617
C4    C     C_1   0.500001 0.267548 0.499991 -0.077146
C5    C     C_1   0.000002 0.767548 0.499998 -0.077145
C6    C     C_1   0.000002 0.734019 0.499998 -0.044001
C7    C     C_1   0.500000 0.234019 0.499990 -0.044001
C8    C     C_R   0.967688 0.674967 0.550729 -0.255727
C9    C     C_R   0.032314 0.674967 0.449266 -0.255729
C10   C     C_R   0.467687 0.174967 0.550726 -0.255728
C11   C     C_R   0.532313 0.174966 0.449260 -0.255729
C12   C     C_R   0.967318 0.635792 0.553043 -0.029950
C13   C     C_R   0.173480 0.033168 0.314097 -0.126309
C14   C     C_R   0.032683 0.635791 0.446952 -0.029955
C15   C     C_R   0.467318 0.135792 0.553042 -0.029955
C16   C     C_R   0.532682 0.135791 0.446949 -0.029952
C17   C     C_R   0.000000 0.615266 0.499998 -0.120046
C18   C     C_R   0.500000 0.115266 0.499997 -0.120044
C19   C     C_3   0.999888 0.535636 0.270969 0.023535
C20   C     C_3   0.000107 0.535637 0.729035 0.023528
C21   C     C_3   0.499889 0.035636 0.270967 0.023533
C22   C     C_3   0.500112 0.035637 0.729030 0.023533
C23   C     C_R   0.000002 0.694151 0.499998 0.160530
C24   C     C_R   0.826520 0.033166 0.685924 -0.126310
C25   C     C_R   0.500000 0.194151 0.499991 0.160531
C26   C     C_R   0.505005 0.673501 0.437817 0.001066
C27   C     C_R   0.494992 0.673500 0.562185 0.001077
C28   C     C_R   0.005001 0.173500 0.437819 0.001072
C29   C     C_R   0.994999 0.173500 0.562177 0.001072
C30   C     C_R   0.504712 0.634224 0.439100 -0.274956
C31   C     C_R   0.495286 0.634224 0.560902 -0.274815
C32   C     C_R   0.004707 0.134224 0.439103 -0.274889
C33   C     C_R   0.995293 0.134224 0.560895 -0.274880
C34   C     C_R   0.499999 0.614505 0.500000 -0.025236
C35   C     C_R   0.634086 0.534094 0.357898 -0.054887
C36   C     C_R   0.000000 0.114505 0.499999 -0.025238
C37   C     C_R   0.499998 0.693348 0.500001 0.080202
C38   C     C_R   0.000000 0.193347 0.499998 0.080204
C39   C     C_1   0.499998 0.733575 0.500002 0.127105
C40   C     C_1   0.000000 0.233575 0.499997 0.127104
C41   C     C_1   0.000001 0.267223 0.499997 -0.006165
C42   C     C_1   0.499999 0.767223 0.500002 -0.006163
C43   C     C_R   0.973836 0.326968 0.488259 0.114031
C44   C     C_R   0.026166 0.326968 0.511734 0.114034
C45   C     C_R   0.473835 0.826968 0.488260 0.114035
C46   C     C_R   0.365918 0.534078 0.642425 -0.054852
C47   C     C_R   0.526163 0.826968 0.511742 0.114030
C48   C     C_R   0.973890 0.366384 0.489774 -0.211069
C49   C     C_R   0.026110 0.366383 0.510222 -0.211069
C50   C     C_R   0.473891 0.866384 0.489774 -0.211067
C51   C     C_R   0.526108 0.866383 0.510227 -0.211067
C52   C     C_R   0.000000 0.385781 0.499999 -0.093438
C53   C     C_R   0.500000 0.885781 0.500000 -0.093437
C54   C     C_3   0.000205 0.500119 0.311113 -0.051438
C55   C     C_3   0.999795 0.500119 0.688887 -0.051442
C56   C     C_3   0.500205 0.000119 0.311113 -0.051439
C57   C     C_R   0.134084 0.034087 0.357741 -0.054871
C58   C     C_3   0.499795 0.000120 0.688887 -0.051439
C59   C     C_R   0.000001 0.307507 0.499997 0.050089
C60   C     C_R   0.499999 0.807507 0.500001 0.050089
C61   C     C_3   0.969022 0.481864 0.303028 -0.278246
C62   C     C_3   0.030981 0.481869 0.696970 -0.278239
C63   C     C_3   0.469021 0.981866 0.303029 -0.278244
C64   C     C_3   0.530978 0.981865 0.696972 -0.278246
C65   C     C_3   0.000466 0.464431 0.230256 0.116392
C66   C     C_3   0.999539 0.464432 0.769740 0.116397
C67   C     C_3   0.500464 0.964431 0.230258 0.116393
C68   C     C_R   0.865916 0.034086 0.642281 -0.054868
C69   C     C_3   0.499535 0.964432 0.769744 0.116393
C70   C     C_3   0.031601 0.482320 0.239541 -0.257794
C71   C     C_3   0.968401 0.482315 0.760457 -0.257803
C72   C     C_3   0.531601 0.982318 0.239542 -0.257796
C73   C     C_3   0.468399 0.982320 0.760459 -0.257795
C74   C     C_3   0.030987 0.517844 0.198606 0.001909
C75   C     C_3   0.969010 0.517840 0.801396 0.001916
C76   C     C_3   0.530988 0.017843 0.198605 0.001912
C77   C     C_3   0.469012 0.017844 0.801394 0.001910
C78   C     C_3   0.999350 0.575266 0.299436 -0.452836
C79   C     C_R   0.614183 0.499760 0.384062 -0.149993
C80   C     C_3   0.998978 0.605953 0.249466 -0.319931
C81   C     C_3   0.999739 0.644965 0.278510 -0.855584
C82   C     C_3   0.000638 0.575266 0.700574 -0.452827
C83   C     C_3   0.001006 0.605953 0.750546 -0.319933
C84   C     C_3   0.000238 0.644965 0.721508 -0.855582
C85   C     C_3   0.499354 0.075266 0.299432 -0.452833
C86   C     C_3   0.498983 0.105953 0.249461 -0.319929
C87   C     C_3   0.499746 0.144965 0.278502 -0.855590
C88   C     C_3   0.500649 0.075266 0.700564 -0.452834
C89   C     C_3   0.501020 0.105953 0.750533 -0.319932
C90   C     C_R   0.385817 0.499762 0.615941 -0.150029
C91   C     C_3   0.500259 0.144965 0.721489 -0.855581
C92   C     C_3   0.882596 0.447483 0.207423 -0.418292
C93   C     C_3   0.868074 0.458180 0.287800 -0.340345
C94   C     C_3   0.882038 0.430579 0.323180 -0.917439
C95   C     C_3   0.117397 0.447488 0.792566 -0.418284
C96   C     C_3   0.131916 0.458189 0.712191 -0.340355
C97   C     C_3   0.117964 0.430581 0.676800 -0.917470
C98   C     C_3   0.382599 0.947484 0.207427 -0.418286
C99   C     C_3   0.368079 0.958183 0.287803 -0.340350
C100  C     C_3   0.382038 0.930579 0.323188 -0.917455
C101  C     C_R   0.114183 0.999761 0.384061 -0.150010
C102  C     C_3   0.617400 0.947484 0.792575 -0.418279
C103  C     C_3   0.631923 0.958181 0.712196 -0.340350
C104  C     C_3   0.617960 0.930578 0.676816 -0.917451
C105  C     C_3   0.801176 0.435119 0.250548 -0.448290
C106  C     C_3   0.790702 0.408925 0.206688 -0.332116
C107  C     C_3   0.765185 0.376928 0.254567 -0.890789
C108  C     C_3   0.198817 0.435119 0.749423 -0.448342
C109  C     C_3   0.209288 0.408915 0.793277 -0.332108
C110  C     C_3   0.234786 0.376908 0.745400 -0.890755
C111  C     C_3   0.301179 0.935118 0.250560 -0.448316
C112  C     C_R   0.073421 0.499915 0.922942 0.930414
C113  C     C_R   0.885817 0.999761 0.615939 -0.150013
C114  C     C_3   0.290706 0.908921 0.206702 -0.332111
C115  C     C_3   0.265199 0.876917 0.254579 -0.890776
C116  C     C_3   0.698819 0.935116 0.749446 -0.448318
C117  C     C_3   0.709294 0.908921 0.793306 -0.332115
C118  C     C_3   0.734796 0.876914 0.745436 -0.890774
C119  C     C_2   0.932026 0.618748 0.613353 0.400883
C120  C     C_2   0.067973 0.618747 0.386639 0.400886
C121  C     C_2   0.432027 0.118748 0.613357 0.400884
C122  C     C_2   0.567974 0.118747 0.386638 0.400881
C123  C     C_2   0.510707 0.691872 0.369947 0.382315
C124  C     C_R   0.633485 0.464854 0.366577 0.094778
C125  C     C_2   0.489289 0.691871 0.630056 0.382444
C126  C     C_2   0.010697 0.191871 0.369953 0.382373
C127  C     C_2   0.989303 0.191872 0.630042 0.382380
C128  C     C_2   0.933805 0.536837 0.276289 0.320380
C129  C     C_2   0.066189 0.536849 0.723715 0.320353
C130  C     C_2   0.433807 0.036841 0.276287 0.320369
C131  C     C_2   0.566194 0.036839 0.723711 0.320375
C132  C     C_3   0.946748 0.304889 0.473955 -0.397017
C133  C     C_3   0.919857 0.328466 0.460545 -0.386504
C134  C     C_3   0.895126 0.303371 0.444660 -0.845883
C135  C     C_R   0.366511 0.464865 0.633118 0.094744
C136  C     C_3   0.053254 0.304888 0.526035 -0.397016
C137  C     C_3   0.080148 0.328464 0.539440 -0.386507
C138  C     C_3   0.104880 0.303369 0.555320 -0.845882
C139  C     C_3   0.446748 0.804889 0.473956 -0.397022
C140  C     C_3   0.419856 0.828466 0.460546 -0.386491
C141  C     C_3   0.395125 0.803371 0.444662 -0.845911
C142  C     C_3   0.553250 0.804887 0.526048 -0.397010
C143  C     C_3   0.580140 0.828464 0.539460 -0.386520
C144  C     C_3   0.604870 0.803369 0.555347 -0.845849
C145  C     C_3   0.001249 0.423351 0.208147 -0.376939
C146  C     C_R   0.133487 0.964859 0.366725 0.094762
C147  C     C_3   0.998892 0.396508 0.266659 -0.371490
C148  C     C_3   0.999163 0.355528 0.245240 -0.856644
C149  C     C_3   0.998761 0.423352 0.791846 -0.376937
C150  C     C_3   0.001123 0.396508 0.733331 -0.371502
C151  C     C_3   0.000854 0.355528 0.754749 -0.856648
C152  C     C_3   0.501246 0.923351 0.208149 -0.376938
C153  C     C_3   0.498888 0.896508 0.266662 -0.371492
C154  C     C_3   0.499158 0.855528 0.245243 -0.856657
C155  C     C_3   0.498752 0.923352 0.791854 -0.376937
C156  C     C_3   0.501109 0.896509 0.733343 -0.371496
C157  C     C_R   0.866513 0.964860 0.633254 0.094758
C158  C     C_3   0.500837 0.855528 0.754763 -0.856639
C159  C     C_2   0.066356 0.537354 0.142096 0.352849
C160  C     C_2   0.933638 0.537345 0.857909 0.352841
C161  C     C_2   0.566358 0.037352 0.142094 0.352844
C162  C     C_2   0.433643 0.037354 0.857904 0.352846
C163  C     C_2   0.614121 0.570927 0.375863 0.411768
C164  C     C_2   0.385886 0.570901 0.624787 0.411777
C165  C     C_2   0.114118 0.070914 0.375547 0.411776
C166  C     C_2   0.885883 0.070913 0.624497 0.411775
C167  C     C_3   0.610862 0.428417 0.395219 -0.404965
C168  C     C_R   0.673090 0.465115 0.322691 -0.163023
C169  C     C_3   0.633902 0.391804 0.373328 -0.381367
C170  C     C_3   0.607978 0.357603 0.405020 -0.843908
C171  C     C_3   0.389128 0.428442 0.604184 -0.404860
C172  C     C_3   0.366087 0.391834 0.625855 -0.381383
C173  C     C_3   0.392008 0.357644 0.593936 -0.843962
C174  C     C_3   0.110867 0.928429 0.395510 -0.404916
C175  C     C_3   0.133908 0.891819 0.373725 -0.381377
C176  C     C_3   0.107985 0.857623 0.405527 -0.843935
C177  C     C_3   0.889132 0.928431 0.604449 -0.404908
C178  C     C_3   0.866091 0.891821 0.626218 -0.381378
C179  C     C_R   0.326905 0.465120 0.677000 -0.162995
C180  C     C_3   0.892014 0.857626 0.594401 -0.843941
C181  C     C_R   0.173093 0.965118 0.322842 -0.163009
C182  C     C_R   0.826907 0.965118 0.677136 -0.163010
C183  C     C_R   0.692604 0.499006 0.296909 0.064332
C184  C     C_R   0.426579 0.999915 0.077057 0.930426
C185  C     C_R   0.307395 0.498993 0.703086 0.064342
C186  C     C_R   0.192605 0.999000 0.296911 0.064338
C187  C     C_R   0.807395 0.998999 0.703087 0.064339
C188  C     C_1   0.732779 0.498847 0.255088 -0.047695
C189  C     C_1   0.267221 0.498835 0.744901 -0.047696
C190  C     C_1   0.232779 0.998842 0.255093 -0.047696
C191  C     C_1   0.767221 0.998841 0.744904 -0.047699
C192  C     C_1   0.766525 0.498401 0.222352 -0.048045
C193  C     C_1   0.233474 0.498390 0.777635 -0.048046
C194  C     C_1   0.266526 0.998396 0.222358 -0.048046
C195  C     C_R   0.573421 0.999915 0.922943 0.930432
C196  C     C_1   0.733474 0.998395 0.777639 -0.048048
C197  C     C_R   0.827340 0.526262 0.139010 -0.202280
C198  C     C_R   0.172662 0.526253 0.860983 -0.202271
C199  C     C_R   0.327340 0.026258 0.139013 -0.202275
C200  C     C_R   0.672661 0.026258 0.860983 -0.202276
C201  C     C_R   0.000116 0.499932 0.121568 0.979674
C202  C     C_R   0.999884 0.499932 0.878431 0.979663
C203  C     C_R   0.500116 0.999932 0.121568 0.979669
C204  C     C_R   0.499884 0.999932 0.878432 0.979670
C205  C     C_R   0.866229 0.526993 0.105194 -0.176025
C206  C     C_3   0.000247 0.499746 0.188834 -0.075628
C207  C     C_R   0.133773 0.526988 0.894802 -0.176063
C208  C     C_R   0.366228 0.026991 0.105196 -0.176049
C209  C     C_R   0.633772 0.026991 0.894801 -0.176046
C210  C     C_R   0.885097 0.499522 0.121033 -0.079686
C211  C     C_R   0.114903 0.499522 0.878961 -0.079687
C212  C     C_R   0.385097 0.999522 0.121036 -0.079687
C213  C     C_R   0.614903 0.999522 0.878964 -0.079684
C214  C     C_R   0.864108 0.471605 0.175500 0.067903
C215  C     C_R   0.135888 0.471607 0.824486 0.067911
C216  C     C_R   0.364110 0.971605 0.175506 0.067907
C217  C     C_3   0.999753 0.499747 0.811166 -0.075619
C218  C     C_R   0.635890 0.971605 0.824495 0.067905
C219  C     C_R   0.824625 0.468526 0.203754 0.110460
C220  C     C_R   0.175372 0.468525 0.796227 0.110466
C221  C     C_R   0.324626 0.968525 0.203762 0.110463
C222  C     C_R   0.675373 0.968524 0.796240 0.110464
C223  C     C_R   0.806713 0.497140 0.186811 0.089573
C224  C     C_R   0.193286 0.497133 0.813175 0.089581
C225  C     C_R   0.306713 0.997137 0.186818 0.089578
C226  C     C_R   0.693286 0.997136 0.813181 0.089581
C227  C     C_R   0.000000 0.573605 0.499999 0.920299
C228  C     C_3   0.500247 0.999747 0.188834 -0.075626
C229  C     C_R   0.500000 0.073605 0.499999 0.920302
C230  C     C_R   0.000110 0.499874 0.378270 0.896976
C231  C     C_R   0.999890 0.499874 0.621730 0.896974
C232  C     C_R   0.500110 0.999874 0.378270 0.896975
C233  C     C_R   0.499890 0.999874 0.621730 0.896978
C234  C     C_R   0.000000 0.426683 0.500000 0.867301
C235  C     C_R   0.500000 0.926683 0.500000 0.867301
C236  C     C_R   0.500000 0.573251 0.500000 0.853491
C237  C     C_R   0.000000 0.073251 0.500000 0.853492
C238  C     C_R   0.573099 0.500043 0.426554 0.829541
C239  C     C_3   0.499752 0.999747 0.811166 -0.075624
C240  C     C_R   0.426901 0.500044 0.573446 0.829548
C241  C     C_R   0.073099 0.000044 0.426554 0.829546
C242  C     C_R   0.926901 0.000044 0.573446 0.829543
C243  C     C_3   0.969164 0.517382 0.261285 0.011474
C244  C     C_3   0.030833 0.517387 0.738717 0.011475
C245  C     C_3   0.469165 0.017383 0.261284 0.011475
C246  C     C_3   0.530836 0.017383 0.738715 0.011475
C247  C     C_R   0.500000 0.426655 0.500000 0.849972
C248  C     C_R   0.000000 0.926655 0.500000 0.849973
C249  C     C_R   0.501411 0.326729 0.555356 -0.174867
C250  C     C_R   0.673482 0.533179 0.314250 -0.126308
C251  C     C_R   0.498590 0.326732 0.444632 -0.174809
C252  C     C_R   0.001414 0.826730 0.555360 -0.174839
C253  C     C_R   0.998589 0.826731 0.444638 -0.174833
C254  C     C_R   0.501394 0.365804 0.555460 -0.217648
C255  C     C_R   0.498606 0.365806 0.444533 -0.217637
C256  C     C_R   0.001396 0.865805 0.555462 -0.217641
C257  C     C_R   0.998606 0.865805 0.444538 -0.217640
C258  C     C_R   0.500000 0.385594 0.499998 -0.028244
C259  C     C_R   0.000000 0.885594 0.500000 -0.028248
C260  C     C_R   0.500001 0.307387 0.499993 0.168620
H1    H     H_    0.689227 0.439306 0.308192 0.133247
H2    H     H_    0.118299 0.549093 0.934156 0.208621
H3    H     H_    0.586433 0.951008 0.821969 0.224103
H4    H     H_    0.779705 0.359840 0.276119 0.264248
H5    H     H_    0.738475 0.388354 0.301312 0.254892
H6    H     H_    0.758196 0.358444 0.221377 0.252167
H7    H     H_    0.775767 0.424677 0.184404 0.229714
H8    H     H_    0.816911 0.396816 0.159640 0.223558
H9    H     H_    0.815902 0.417804 0.270934 0.212890
H10   H     H_    0.775224 0.445581 0.300493 0.206670
H11   H     H_    0.220251 0.359827 0.723870 0.264229
H12   H     H_    0.261497 0.388322 0.698638 0.254854
H13   H     H_    0.381703 0.049097 0.065844 0.208617
H14   H     H_    0.241775 0.358419 0.778583 0.252188
H15   H     H_    0.224237 0.424658 0.815544 0.229744
H16   H     H_    0.183076 0.396817 0.840336 0.223564
H17   H     H_    0.184091 0.417811 0.729030 0.212922
H18   H     H_    0.224772 0.445581 0.699483 0.206627
H19   H     H_    0.279728 0.859832 0.276116 0.264238
H20   H     H_    0.238489 0.888337 0.301336 0.254874
H21   H     H_    0.258209 0.858433 0.221393 0.252179
H22   H     H_    0.275763 0.924669 0.184430 0.229729
H23   H     H_    0.316916 0.896818 0.159647 0.223562
H24   H     H_    0.618297 0.049098 0.934152 0.208614
H25   H     H_    0.315906 0.917806 0.270948 0.212905
H26   H     H_    0.275226 0.945580 0.300503 0.206648
H27   H     H_    0.720261 0.859826 0.723914 0.264238
H28   H     H_    0.761504 0.888329 0.698669 0.254875
H29   H     H_    0.741789 0.858433 0.778622 0.252178
H30   H     H_    0.724240 0.924670 0.815568 0.229730
H31   H     H_    0.683083 0.896822 0.840368 0.223563
H32   H     H_    0.684091 0.917802 0.729064 0.212909
H33   H     H_    0.724772 0.945576 0.699500 0.206642
H34   H     H_    0.904977 0.630827 0.627797 0.054575
H35   H     H_    0.502528 0.311628 0.598276 0.137852
H36   H     H_    0.095023 0.630826 0.372190 0.054577
H37   H     H_    0.404978 0.130827 0.627805 0.054577
H38   H     H_    0.595023 0.130827 0.372189 0.054576
H39   H     H_    0.512563 0.674614 0.326213 0.070166
H40   H     H_    0.487436 0.674612 0.673788 0.070197
H41   H     H_    0.012543 0.174613 0.326227 0.070179
H42   H     H_    0.987458 0.174614 0.673769 0.070181
H43   H     H_    0.913627 0.546436 0.331490 0.074962
H44   H     H_    0.086365 0.546452 0.668515 0.074961
H45   H     H_    0.413630 0.046441 0.331488 0.074960
H46   H     H_    0.497473 0.311633 0.401711 0.137826
H47   H     H_    0.586372 0.046439 0.668510 0.074960
H48   H     H_    0.912940 0.286244 0.394596 0.266757
H49   H     H_    0.877709 0.284379 0.491902 0.266332
H50   H     H_    0.875985 0.321127 0.435397 0.246538
H51   H     H_    0.901194 0.345734 0.509950 0.228942
H52   H     H_    0.936405 0.347335 0.412626 0.227632
H53   H     H_    0.963895 0.286834 0.424923 0.244089
H54   H     H_    0.929435 0.286166 0.521832 0.211410
H55   H     H_    0.087067 0.286241 0.605385 0.266757
H56   H     H_    0.122296 0.284378 0.508078 0.266334
H57   H     H_    0.002532 0.811630 0.598279 0.137839
H58   H     H_    0.124022 0.321125 0.564580 0.246539
H59   H     H_    0.098809 0.345732 0.490034 0.228944
H60   H     H_    0.063601 0.347333 0.587360 0.227631
H61   H     H_    0.036108 0.286833 0.575068 0.244088
H62   H     H_    0.070566 0.286166 0.478158 0.211410
H63   H     H_    0.412939 0.786244 0.394598 0.266754
H64   H     H_    0.377708 0.784379 0.491904 0.266325
H65   H     H_    0.375984 0.821127 0.435399 0.246541
H66   H     H_    0.401194 0.845734 0.509952 0.228943
H67   H     H_    0.436404 0.847335 0.412627 0.227632
H68   H     H_    0.997472 0.811631 0.401719 0.137839
H69   H     H_    0.463895 0.786835 0.424923 0.244086
H70   H     H_    0.429434 0.786166 0.521833 0.211407
H71   H     H_    0.587056 0.786241 0.605411 0.266758
H72   H     H_    0.622288 0.784377 0.508106 0.266342
H73   H     H_    0.624011 0.821124 0.564612 0.246534
H74   H     H_    0.598804 0.845732 0.490056 0.228943
H75   H     H_    0.563592 0.847333 0.587379 0.227633
H76   H     H_    0.536102 0.786833 0.575080 0.244086
H77   H     H_    0.570564 0.786166 0.478171 0.211413
H78   H     H_    0.974185 0.349610 0.240694 0.259409
H79   H     H_    0.502541 0.380437 0.598736 0.161336
H80   H     H_    0.025359 0.349296 0.191938 0.265291
H81   H     H_    0.998108 0.336818 0.287934 0.262622
H82   H     H_    0.023287 0.401344 0.273663 0.229847
H83   H     H_    0.972468 0.401842 0.320175 0.214600
H84   H     H_    0.977102 0.418185 0.200649 0.204614
H85   H     H_    0.027903 0.418251 0.154923 0.211350
H86   H     H_    0.025832 0.349613 0.759299 0.259409
H87   H     H_    0.974658 0.349295 0.808050 0.265292
H88   H     H_    0.001912 0.336818 0.712054 0.262620
H89   H     H_    0.976730 0.401342 0.726321 0.229848
H90   H     H_    0.497458 0.380441 0.401260 0.161291
H91   H     H_    0.027549 0.401844 0.679817 0.214601
H92   H     H_    0.022907 0.418190 0.799348 0.204612
H93   H     H_    0.972107 0.418248 0.845068 0.211353
H94   H     H_    0.474180 0.849611 0.240697 0.259410
H95   H     H_    0.525354 0.849295 0.191941 0.265291
H96   H     H_    0.498103 0.836818 0.287938 0.262622
H97   H     H_    0.523282 0.901344 0.273668 0.229847
H98   H     H_    0.472463 0.901842 0.320177 0.214599
H99   H     H_    0.477100 0.918187 0.200650 0.204613
H100  H     H_    0.527900 0.918250 0.154926 0.211350
H101  H     H_    0.002544 0.880439 0.598735 0.161314
H102  H     H_    0.525816 0.849610 0.759310 0.259409
H103  H     H_    0.474641 0.849296 0.808066 0.265292
H104  H     H_    0.501892 0.836819 0.712070 0.262622
H105  H     H_    0.476715 0.901345 0.726338 0.229848
H106  H     H_    0.527534 0.901842 0.679827 0.214600
H107  H     H_    0.522898 0.918186 0.799353 0.204614
H108  H     H_    0.472098 0.918251 0.845078 0.211351
H109  H     H_    0.085300 0.549030 0.157711 0.090808
H110  H     H_    0.914692 0.549018 0.842297 0.090798
H111  H     H_    0.585303 0.049027 0.157708 0.090804
H112  H     H_    0.310765 0.439319 0.691264 0.133214
H113  H     H_    0.997457 0.880439 0.401265 0.161312
H114  H     H_    0.414699 0.049029 0.842289 0.090805
H115  H     H_    0.583622 0.572365 0.410616 0.055700
H116  H     H_    0.416384 0.572351 0.590009 0.055716
H117  H     H_    0.083619 0.072358 0.410313 0.055706
H118  H     H_    0.916381 0.072357 0.589731 0.055708
H119  H     H_    0.591134 0.359064 0.465966 0.264718
H120  H     H_    0.588488 0.356246 0.384090 0.269499
H121  H     H_    0.625232 0.331528 0.388417 0.247008
H122  H     H_    0.650726 0.389139 0.312494 0.227613
H123  H     H_    0.653310 0.392007 0.394553 0.223334
H124  H     H_    0.942914 0.690770 0.590269 0.130517
H125  H     H_    0.593744 0.429883 0.456219 0.209141
H126  H     H_    0.591024 0.426861 0.375051 0.205503
H127  H     H_    0.408847 0.359207 0.533000 0.264599
H128  H     H_    0.411503 0.356190 0.614846 0.269583
H129  H     H_    0.374752 0.331572 0.610378 0.247022
H130  H     H_    0.349269 0.389069 0.686672 0.227645
H131  H     H_    0.346672 0.392132 0.604647 0.223295
H132  H     H_    0.406225 0.430020 0.543193 0.209314
H133  H     H_    0.408986 0.426781 0.624293 0.205323
H134  H     H_    0.091143 0.859134 0.466469 0.264660
H135  H     H_    0.057088 0.690769 0.409726 0.130518
H136  H     H_    0.088492 0.856220 0.384608 0.269541
H137  H     H_    0.125240 0.831550 0.389003 0.247016
H138  H     H_    0.150729 0.889106 0.312899 0.227631
H139  H     H_    0.153319 0.892068 0.394942 0.223315
H140  H     H_    0.093759 0.929950 0.456505 0.209225
H141  H     H_    0.091019 0.926822 0.375371 0.205416
H142  H     H_    0.908855 0.859144 0.533460 0.264652
H143  H     H_    0.911507 0.856216 0.615320 0.269546
H144  H     H_    0.874759 0.831553 0.610915 0.247017
H145  H     H_    0.849270 0.889101 0.687043 0.227632
H146  H     H_    0.442914 0.190770 0.590266 0.130519
H147  H     H_    0.846680 0.892077 0.605002 0.223313
H148  H     H_    0.906238 0.929960 0.543454 0.209237
H149  H     H_    0.908981 0.926816 0.624584 0.205402
H150  H     H_    0.557087 0.190769 0.409719 0.130515
H151  H     H_    0.508536 0.618883 0.391791 0.153568
H152  H     H_    0.491462 0.618882 0.608210 0.153581
H153  H     H_    0.008526 0.118882 0.391798 0.153576
H154  H     H_    0.991474 0.118882 0.608200 0.153576
H155  H     H_    0.954336 0.382561 0.481590 0.141123
H156  H     H_    0.189231 0.939312 0.308457 0.133231
H157  H     H_    0.045664 0.382561 0.518406 0.141125
H158  H     H_    0.454337 0.882562 0.481588 0.141121
H159  H     H_    0.545662 0.882560 0.518413 0.141122
H160  H     H_    0.943703 0.467356 0.347651 0.150041
H161  H     H_    0.056302 0.467365 0.652345 0.150050
H162  H     H_    0.443702 0.967359 0.347652 0.150044
H163  H     H_    0.556297 0.967358 0.652349 0.150044
H164  H     H_    0.057104 0.467941 0.232186 0.152182
H165  H     H_    0.942901 0.467933 0.767810 0.152178
H166  H     H_    0.557102 0.967939 0.232188 0.152180
H167  H     H_    0.810768 0.939314 0.691504 0.133231
H168  H     H_    0.442897 0.967941 0.767814 0.152181
H169  H     H_    0.689471 0.559084 0.293920 0.182810
H170  H     H_    0.310536 0.559048 0.706631 0.182805
H171  H     H_    0.189468 0.059067 0.293652 0.182808
H172  H     H_    0.810533 0.059065 0.706385 0.182807
H173  H     H_    0.974605 0.649014 0.334469 0.261508
H174  H     H_    0.025750 0.648565 0.280600 0.274181
H175  H     H_    0.999427 0.666760 0.241583 0.249187
H176  H     H_    0.023984 0.602980 0.193069 0.239251
H177  H     H_    0.973139 0.603446 0.246562 0.241506
H178  H     H_    0.813303 0.548208 0.126785 0.159391
H179  H     H_    0.974015 0.578124 0.355554 0.200158
H180  H     H_    0.024860 0.578542 0.302964 0.258271
H181  H     H_    0.025371 0.649019 0.665548 0.261509
H182  H     H_    0.974226 0.648561 0.719420 0.274184
H183  H     H_    0.000548 0.666761 0.758436 0.249185
H184  H     H_    0.976001 0.602976 0.806943 0.239250
H185  H     H_    0.026846 0.603451 0.753448 0.241506
H186  H     H_    0.025971 0.578128 0.644455 0.200155
H187  H     H_    0.975127 0.578538 0.697048 0.258278
H188  H     H_    0.474613 0.149016 0.334462 0.261509
H189  H     H_    0.186701 0.548195 0.873211 0.159396
H190  H     H_    0.525758 0.148564 0.280591 0.274180
H191  H     H_    0.499435 0.166761 0.241575 0.249185
H192  H     H_    0.523989 0.102978 0.193064 0.239250
H193  H     H_    0.473143 0.103447 0.246558 0.241507
H194  H     H_    0.474020 0.078125 0.355550 0.200157
H195  H     H_    0.524864 0.078541 0.302959 0.258274
H196  H     H_    0.525392 0.149016 0.665530 0.261508
H197  H     H_    0.474247 0.148565 0.719400 0.274182
H198  H     H_    0.500570 0.166761 0.758415 0.249188
H199  H     H_    0.476014 0.102980 0.806930 0.239251
H200  H     H_    0.313301 0.048202 0.126787 0.159394
H201  H     H_    0.526860 0.103447 0.753437 0.241505
H202  H     H_    0.525983 0.078125 0.644445 0.200157
H203  H     H_    0.475139 0.078542 0.697036 0.258273
H204  H     H_    0.870939 0.401937 0.324797 0.265254
H205  H     H_    0.913324 0.429701 0.291827 0.264158
H206  H     H_    0.872065 0.439649 0.380248 0.250581
H207  H     H_    0.878205 0.486788 0.289504 0.253168
H208  H     H_    0.836792 0.459052 0.321507 0.220401
H209  H     H_    0.877868 0.417222 0.201986 0.198478
H210  H     H_    0.913563 0.451003 0.178027 0.224108
H211  H     H_    0.686700 0.048203 0.873207 0.159393
H212  H     H_    0.129076 0.401944 0.675173 0.265253
H213  H     H_    0.086679 0.429689 0.708152 0.264167
H214  H     H_    0.127935 0.439654 0.619735 0.250583
H215  H     H_    0.121775 0.486793 0.710495 0.253156
H216  H     H_    0.163198 0.459075 0.678486 0.220405
H217  H     H_    0.122124 0.417227 0.797999 0.198491
H218  H     H_    0.086430 0.451010 0.821967 0.224087
H219  H     H_    0.370934 0.901939 0.324808 0.265253
H220  H     H_    0.413323 0.929696 0.291834 0.264163
H221  H     H_    0.372065 0.939650 0.380254 0.250582
H222  H     H_    0.881705 0.549100 0.065845 0.208613
H223  H     H_    0.378213 0.986789 0.289505 0.253163
H224  H     H_    0.336796 0.959060 0.321510 0.220402
H225  H     H_    0.377872 0.917224 0.201992 0.198482
H226  H     H_    0.413566 0.951006 0.178030 0.224100
H227  H     H_    0.629061 0.901937 0.675200 0.265254
H228  H     H_    0.586675 0.929699 0.708168 0.264161
H229  H     H_    0.627934 0.939648 0.619748 0.250582
H230  H     H_    0.621792 0.986789 0.710490 0.253163
H231  H     H_    0.663205 0.959054 0.678490 0.220400
H232  H     H_    0.622125 0.917224 0.798014 0.198480
O1    O     O_R   0.944560 0.468710 0.055440 -0.649726
O2    O     O_R   0.444560 0.499880 0.607950 -0.612297
O3    O     O_R   0.055440 0.999880 0.392050 -0.612296
O4    O     O_R   0.944560 0.999880 0.607950 -0.612295
O5    O     O_R   0.500000 0.444470 0.552540 -0.625144
O6    O     O_R   0.500000 0.444470 0.447460 -0.625212
O7    O     O_R   0.000000 0.944470 0.552540 -0.625175
O8    O     O_R   0.000000 0.944470 0.447460 -0.625180
O9    O     O_R   0.944560 0.531300 0.055450 -0.581150
O10   O     O_R   0.055440 0.531300 0.944550 -0.581137
O11   O     O_R   0.444560 0.031300 0.055450 -0.581142
O12   O     O_R   0.055440 0.468710 0.944560 -0.649727
O13   O     O_R   0.555440 0.031300 0.944550 -0.581145
O14   O     O_R   0.000010 0.468710 0.093020 -0.668014
O15   O     O_R   0.999990 0.468710 0.906980 -0.668018
O16   O     O_R   0.500010 0.968710 0.093020 -0.668015
O17   O     O_R   0.499990 0.968710 0.906980 -0.668016
O18   O     O_R   0.000010 0.531300 0.093030 -0.564603
O19   O     O_R   0.999990 0.531300 0.906970 -0.564602
O20   O     O_R   0.500010 0.031300 0.093030 -0.564602
O21   O     O_R   0.499990 0.031300 0.906970 -0.564604
O22   O     O_R   0.031280 0.555400 0.468730 -0.585601
O23   O     O_R   0.444560 0.968710 0.055440 -0.649727
O24   O     O_R   0.968720 0.555400 0.531270 -0.585598
O25   O     O_R   0.531280 0.055400 0.468730 -0.585599
O26   O     O_R   0.468720 0.055400 0.531270 -0.585600
O27   O     O_R   0.031290 0.499960 0.375690 -0.605179
O28   O     O_R   0.968710 0.499960 0.624310 -0.605184
O29   O     O_R   0.531290 0.999960 0.375690 -0.605179
O30   O     O_R   0.468710 0.999960 0.624310 -0.605182
O31   O     O_R   0.968700 0.499940 0.438280 -0.642374
O32   O     O_R   0.031300 0.499940 0.561720 -0.642373
O33   O     O_R   0.468700 0.999940 0.438280 -0.642374
O34   O     O_R   0.555440 0.968710 0.944560 -0.649728
O35   O     O_R   0.531300 0.999940 0.561720 -0.642373
O36   O     O_R   0.031310 0.444530 0.468680 -0.627032
O37   O     O_R   0.968690 0.444530 0.531320 -0.627031
O38   O     O_R   0.531310 0.944530 0.468680 -0.627031
O39   O     O_R   0.468690 0.944530 0.531320 -0.627031
O40   O     O_R   0.500010 0.555340 0.552490 -0.623218
O41   O     O_R   0.499990 0.555340 0.447510 -0.623152
O42   O     O_R   0.000010 0.055340 0.552490 -0.623188
O43   O     O_R   0.999990 0.055340 0.447510 -0.623184
O44   O     O_2   0.932624 0.593262 0.650954 -0.586841
O45   O     O_R   0.555450 0.499900 0.497080 -0.613723
O46   O     O_2   0.067372 0.593261 0.349041 -0.586838
O47   O     O_2   0.432628 0.093262 0.650956 -0.586841
O48   O     O_2   0.567373 0.093260 0.349041 -0.586840
O49   O     O_2   0.513750 0.725880 0.361062 -0.596120
O50   O     O_2   0.486243 0.725878 0.638944 -0.596114
O51   O     O_2   0.013746 0.225879 0.361061 -0.596117
O52   O     O_2   0.986254 0.225879 0.638933 -0.596116
O53   O     O_2   0.927549 0.542178 0.227173 -0.587679
O54   O     O_2   0.072445 0.542192 0.772831 -0.587664
O55   O     O_2   0.427551 0.042183 0.227171 -0.587673
O56   O     O_R   0.444550 0.499900 0.502920 -0.613739
O57   O     O_2   0.572450 0.042180 0.772827 -0.587677
O58   O     O_2   0.074060 0.540249 0.078839 -0.598988
O59   O     O_2   0.925934 0.540238 0.921166 -0.598998
O60   O     O_2   0.574062 0.040245 0.078836 -0.598991
O61   O     O_2   0.425939 0.040248 0.921161 -0.598990
O62   O     O_2   0.631581 0.600330 0.352012 -0.567446
O63   O     O_2   0.368431 0.600283 0.648941 -0.567455
O64   O     O_2   0.131575 0.100308 0.351547 -0.567449
O65   O     O_2   0.868426 0.100304 0.648517 -0.567450
O66   O     O_R   0.055450 0.999900 0.497080 -0.613732
O67   O     O_R   0.944550 0.999900 0.502920 -0.613733
O68   O     O_R   0.555440 0.499880 0.392050 -0.612295
Zn1   Zn    Zn3+2 0.000000 0.458210 0.000000 0.921257
Zn2   Zn    Zn3+2 0.499990 0.499910 0.429870 0.950475
Zn3   Zn    Zn3+2 0.000010 0.999910 0.570130 0.950542
Zn4   Zn    Zn3+2 0.999990 0.999910 0.429870 0.950533
Zn5   Zn    Zn3+2 0.500000 0.958210 0.000000 0.921256
Zn6   Zn    Zn3+2 0.000000 0.541790 0.000000 1.067845
Zn7   Zn    Zn3+2 0.500000 0.041790 0.000000 1.067843
Zn8   Zn    Zn3+2 0.041800 0.499960 0.458210 0.976118
Zn9   Zn    Zn3+2 0.958200 0.499960 0.541790 0.976117
Zn10  Zn    Zn3+2 0.541800 0.999960 0.458210 0.976119
Zn11  Zn    Zn3+2 0.458200 0.999960 0.541790 0.976116
Zn12  Zn    Zn3+2 0.500010 0.499910 0.570130 0.950600

loop_
_geom_bond_atom_site_label_1
_geom_bond_atom_site_label_2
_ccdc_geom_bond_type
O14   Zn1   S    
C70   H164  S    
C117  H30   S    
C76   C228  S    
C93   H208  S    
C114  C115  S    
C52   C234  S    
C73   H168  S    
C21   C76   S    
O2    Zn12  S    
C106  H7    S    
C209  H24   S    
C74   C159  S    
C91   H196  S    
C202  C217  S    
C242  O67   A    
O8    Zn4   S    
O3    Zn4   S    
C83   H184  S    
C106  C107  S    
C176  H136  S    
C143  C144  S    
C55   C62   S    
C221  C225  A    
C45   C139  S    
C8    C23   A    
C108  C109  S    
O29   Zn10  S    
C132  H54   S    
C256  H101  S    
C16   C122  S    
C125  O50   D    
C167  H125  S    
C160  H110  S    
C124  C168  A    
C127  O52   D    
C114  H22   S    
C56   C72   S    
C107  H5    S    
C201  C206  S    
C184  C212  S    
C148  H78   S    
C158  H103  S    
C144  H71   S    
C255  H90   S    
C19   C243  S    
O13   Zn7   S    
C81   H173  S    
O16   Zn5   S    
C4    C260  S    
C10   H146  S    
C9    H135  S    
C119  H34   S    
O27   Zn8   S    
C172  H131  S    
C204  C239  S    
C173  H127  S    
C196  C226  S    
C19   C74   S    
C116  H33   S    
C50   C53   A    
C86   H193  S    
C27   C31   A    
C28   C32   A    
C140  C141  S    
C66   C149  S    
C62   C66   S    
C232  O33   A    
C181  H156  S    
C195  O34   A    
C122  O48   D    
C182  H167  S    
C209  C213  A    
C186  C190  S    
C3    C253  A    
C251  C260  A    
C250  H169  S    
C235  O39   A    
C178  C180  S    
C175  C176  S    
C54   C70   S    
C208  C212  A    
C155  H107  S    
C229  O26   A    
C69   C239  S    
C118  H27   S    
C134  H50   S    
O4    Zn3   S    
C46   C90   A    
C176  H137  S    
C238  O68   A    
C247  O6    A    
C26   C123  S    
C100  H220  S    
C241  O3    A    
C145  H85   S    
C78   H179  S    
C36   C237  S    
O19   Zn6   S    
C146  C181  A    
C156  H106  S    
C85   H195  S    
C123  H39   S    
C192  C223  S    
C130  O55   D    
C22   C58   S    
C139  C140  S    
C71   H165  S    
O67   Zn4   S    
C228  C245  S    
C54   C61   S    
C200  C209  A    
C156  C158  S    
C183  C188  S    
C110  H12   S    
C5    C6    T    
O20   Zn7   S    
C45   C50   A    
C146  C174  S    
C148  H80   S    
C143  H75   S    
C184  O23   A    
C61   C65   S    
C48   C52   A    
C64   C246  S    
C88   C89   S    
C81   H175  S    
C98   C99   S    
C248  O8    A    
C160  O59   D    
C257  C259  A    
C155  C156  S    
C163  O62   D    
C140  H66   S    
C113  C157  A    
O31   Zn9   S    
C55   C71   S    
C236  O40   A    
C68   C166  S    
C115  H20   S    
C61   C243  S    
C15   C18   A    
C256  C259  A    
C129  H44   S    
C20   C82   S    
C204  O21   A    
C147  C148  S    
C197  H178  S    
C58   C233  S    
O32   Zn8   S    
C167  C169  S    
O11   Zn7   S    
C85   C86   S    
C126  H41   S    
C162  O61   D    
C141  H65   S    
C24   C187  A    
C32   C36   A    
C194  C225  S    
C30   H151  S    
C32   H153  S    
C66   C217  S    
C142  H76   S    
C184  O11   A    
C97   H213  S    
C13   C57   A    
C11   C25   A    
C44   C59   A    
C65   C70   S    
C67   C72   S    
C174  C175  S    
C142  H77   S    
C134  H48   S    
C91   H198  S    
C191  C196  T    
C83   H185  S    
C193  C224  S    
C29   C33   A    
C150  H91   S    
C105  C219  S    
C141  H64   S    
C98   H226  S    
C29   C38   A    
C162  H114  S    
C118  H29   S    
C176  H134  S    
C89   C91   S    
C96   H215  S    
C169  H123  S    
C133  H52   S    
O15   Zn1   S    
O28   Zn9   S    
C237  O42   A    
C110  H14   S    
C2    H170  S    
C207  C211  A    
C204  O17   A    
C14   C17   A    
C76   C161  S    
C4    C7    T    
O41   Zn2   S    
C130  C245  S    
O38   Zn10  S    
C180  H143  S    
C240  O2    A    
O10   Zn6   S    
C58   C64   S    
C100  H221  S    
C63   C245  S    
C153  H98   S    
C195  C213  S    
C30   C34   A    
C112  C211  S    
C120  H36   S    
C94   H205  S    
C242  O4    A    
C22   C246  S    
C125  H40   S    
C9    C23   A    
C128  H43   S    
C157  C177  S    
C177  H148  S    
O39   Zn11  S    
C116  H32   S    
C35   C250  A    
O7    Zn3   S    
C20   C75   S    
C241  O66   A    
C51   C53   A    
C19   C78   S    
C231  O28   A    
C102  H232  S    
C131  C246  S    
C12   C119  S    
C83   C84   S    
C154  H95   S    
C8    C12   A    
C168  C183  A    
C165  O64   D    
C31   C34   A    
C136  H61   S    
C200  C226  A    
C64   C69   S    
C112  O10   A    
C138  H58   S    
C234  O37   A    
C80   H176  S    
C19   C54   S    
C170  H119  S    
C171  H133  S    
C229  O25   A    
C29   C127  S    
O35   Zn10  S    
C104  H228  S    
C249  C260  A    
C108  H17   S    
C137  H60   S    
C200  H211  S    
C232  O29   A    
C131  O57   D    
C139  H69   S    
C207  H2    S    
C131  H47   S    
C164  O63   D    
C73   C77   S    
C11   H150  S    
C198  C207  A    
C118  H28   S    
O26   Zn11  S    
C136  C137  S    
C197  C223  A    
C93   H207  S    
C181  C186  A    
C26   C30   A    
O33   Zn11  S    
C129  C244  S    
C57   C101  A    
C79   C124  A    
C106  H8    S    
C188  C192  T    
O21   Zn7   S    
C2    C185  A    
C231  O32   A    
C82   H186  S    
C90   C135  A    
O23   Zn5   S    
C175  H138  S    
C84   H181  S    
C166  H118  S    
C205  C210  A    
C254  C258  A    
C178  H147  S    
C35   C79   A    
C199  C208  A    
C111  H26   S    
C116  C222  S    
C102  C103  S    
C240  O56   A    
C48   H155  S    
C109  H16   S    
C102  C218  S    
C94   H206  S    
C253  C257  A    
C114  H23   S    
C94   H204  S    
C152  C153  S    
C113  C242  S    
C119  O44   D    
C150  C151  S    
C79   C238  S    
C158  H104  S    
C144  H72   S    
C54   C230  S    
C72   H166  S    
C75   C160  S    
C44   C136  S    
O12   Zn1   S    
C98   H225  S    
C10   C25   A    
C197  C205  A    
C152  H99   S    
C127  H42   S    
C138  H55   S    
C92   H209  S    
C80   H177  S    
C115  H21   S    
C91   H197  S    
C227  O24   A    
C104  H229  S    
C89   H199  S    
C129  O54   D    
C103  H230  S    
C254  H79   S    
C199  H200  S    
C164  H116  S    
C161  O60   D    
C57   C165  S    
C24   H172  S    
C95   C215  S    
C33   H154  S    
C112  O12   A    
C216  C221  A    
C174  H140  S    
C159  H109  S    
C179  H112  S    
C87   H190  S    
C88   H202  S    
O6    Zn2   S    
C12   C17   A    
C121  H37   S    
C69   C73   S    
C107  H4    S    
O45   Zn12  S    
C135  C171  S    
O40   Zn12  S    
C123  O49   D    
C163  H115  S    
C68   C113  A    
C147  H82   S    
O68   Zn2   S    
C233  O30   A    
C255  C258  A    
C249  C254  A    
C1    O9    A    
C117  H31   S    
C247  O5    A    
C195  O13   A    
C203  C228  S    
C145  C147  S    
C28   C126  S    
C39   C42   T    
C78   H180  S    
C105  H9    S    
C249  H35   S    
C183  C250  A    
C21   C85   S    
C203  O16   A    
C143  H74   S    
C55   C231  S    
C85   H194  S    
C151  H88   S    
C62   H161  S    
C201  O14   A    
C126  O51   D    
C86   C87   S    
C84   H183  S    
C180  H142  S    
C121  O47   D    
C82   C83   S    
C35   C163  S    
C132  H53   S    
C198  C224  A    
C9    C14   A    
C167  H126  S    
C50   H158  S    
C124  C167  S    
C11   C16   A    
C251  C255  A    
C66   C71   S    
C213  C218  A    
C49   C52   A    
C107  H6    S    
C158  H102  S    
C185  C189  S    
C198  H189  S    
C208  H13   S    
C81   H174  S    
C144  H73   S    
C14   C120  S    
C239  C246  S    
C133  C134  S    
C161  H111  S    
C247  C258  S    
O56   Zn2   S    
C173  H128  S    
C115  H19   S    
C20   C244  S    
C128  O53   D    
C13   C186  A    
C227  O22   A    
C86   H192  S    
O9    Zn6   S    
C8    H124  S    
C63   H162  S    
C89   H201  S    
C22   C77   S    
C3    C5    S    
C18   C229  S    
C21   C56   S    
C47   C51   A    
C26   C37   A    
C62   C244  S    
C179  C185  A    
C130  H45   S    
C105  C106  S    
C99   H224  S    
C7    C25   S    
C214  C219  A    
O30   Zn11  S    
C151  H86   S    
C37   C39   S    
C149  C150  S    
C38   C40   S    
C27   C125  S    
C206  C243  S    
C177  H149  S    
C92   C93   S    
C155  H108  S    
C111  C114  S    
C78   C80   S    
C230  O31   A    
C105  H10   S    
C99   H223  S    
C217  C244  S    
C24   C68   A    
C134  H49   S    
C219  C223  A    
C108  C220  S    
C175  H139  S    
C177  C178  S    
C141  H63   S    
C103  C104  S    
C77   C239  S    
C128  C243  S    
C75   C217  S    
C142  C143  S    
C166  O65   D    
O22   Zn8   S    
C88   H203  S    
C100  H219  S    
C1    O1    A    
C96   H216  S    
C169  H122  S    
C133  H51   S    
O37   Zn9   S    
C44   C49   A    
C211  C215  A    
C171  C172  S    
C45   C60   A    
C93   C94   S    
C149  H92   S    
C156  H105  S    
C117  C118  S    
C17   C227  S    
C169  C170  S    
C95   C96   S    
C72   C76   S    
C34   C236  S    
C180  H144  S    
C2    C46   A    
C47   C142  S    
C153  H97   S    
C69   C155  S    
O25   Zn10  S    
C43   C132  S    
C27   C37   A    
C203  O20   A    
C10   C15   A    
C172  H130  S    
C110  H11   S    
C77   C162  S    
C222  C226  A    
C248  C259  S    
C116  C117  S    
C56   C232  S    
C205  H222  S    
C111  C221  S    
C13   H171  S    
C70   C74   S    
C103  H231  S    
C202  O19   A    
C47   C60   A    
C230  O27   A    
C173  H129  S    
C212  C216  A    
C253  H68   S    
C154  H96   S    
C132  C133  S    
C248  O7    A    
O24   Zn9   S    
C234  O36   A    
C22   C88   S    
C145  H84   S    
C101  C241  S    
C168  H1    S    
C53   C235  S    
C187  C191  S    
C252  C256  A    
C170  H120  S    
C238  O45   A    
C46   C164  S    
C92   C214  S    
C20   C55   S    
C108  H18   S    
C67   C152  S    
C218  C222  A    
C147  H83   S    
C63   C67   S    
C101  C146  A    
O17   Zn5   S    
C33   C36   A    
C95   H218  S    
C3    C252  A    
C41   C59   S    
C42   C60   S    
C235  O38   A    
C97   H214  S    
C21   C245  S    
C65   C206  S    
C170  H121  S    
C210  C214  A    
O5    Zn12  S    
O66   Zn3   S    
C87   H188  S    
C122  H38   S    
O36   Zn8   S    
C233  O35   A    
C189  C193  T    
C82   H187  S    
C61   H160  S    
C84   H182  S    
C99   C100  S    
C159  O58   D    
C28   C38   A    
C43   C48   A    
C96   C97   S    
C31   H152  S    
C111  H25   S    
C56   C63   S    
C257  H113  S    
C136  H62   S    
C199  C225  A    
C178  H145  S    
C95   H217  S    
C40   C41   T    
C237  O43   A    
C64   H163  S    
C215  C220  A    
C171  H132  S    
C65   C145  S    
C201  O18   A    
C220  C224  A    
C172  C173  S    
C74   C206  S    
C98   C216  S    
C15   C121  S    
C1    C210  S    
C102  H3    S    
C51   H159  S    
C80   C81   S    
C152  H100  S    
C97   H212  S    
C138  H56   S    
C92   H210  S    
C43   C59   A    
C149  H93   S    
C137  C138  S    
C49   H157  S    
C90   C240  S    
C148  H81   S    
C120  O46   D    
C202  O15   A    
C135  C179  A    
C137  H59   S    
C71   C75   S    
O43   Zn4   S    
C67   C228  S    
C154  H94   S    
C251  H46   S    
C165  H117  S    
C6    C23   S    
C252  H57   S    
C140  H67   S    
C182  C187  A    
C150  H89   S    
C151  H87   S    
C174  H141  S    
O18   Zn6   S    
C190  C194  T    
C87   H191  S    
C236  O41   A    
O1    Zn1   S    
O34   Zn5   S    
C16   C18   A    
C157  C182  A    
C109  C110  S    
C104  H227  S    
C153  C154  S    
C58   C73   S    
O42   Zn3   S    
C109  H15   S    
C139  H70   S    
