data_mof_unit_42177.cif
_audit_creation_date              2012-12-11T15:34:01-0500
_audit_creation_method            fapswitch 2.2
_symmetry_space_group_name_H-M    P1
_symmetry_Int_Tables_number       1
_space_group_crystal_system       triclinic
_cell_length_a                    15.066115
_cell_length_b                    15.075911
_cell_length_c                    34.928228
_cell_angle_alpha                 90.57314
_cell_angle_beta                  90.016154
_cell_angle_gamma                 60.035241
_cell_volume                      6872.55116831

loop_
_atom_site_label
_atom_site_type_symbol
_atom_type_description
_atom_site_fract_x
_atom_site_fract_y
_atom_site_fract_z
_atom_type_partial_charge
Br1   Br    Br    0.853135 0.490970 0.580920 -0.501617
Br2   Br    Br    0.485137 0.161291 0.321361 -0.548247
Br3   Br    Br    0.211388 0.438851 0.158493 -0.460816
C1    C     C_R   0.302654 0.608218 0.555776 0.546581
C2    C     C_R   0.233394 0.712541 0.386815 -0.122263
C3    C     C_R   0.749031 0.130964 0.267349 -0.106993
C4    C     C_R   0.755474 0.125104 0.227556 -0.110743
C5    C     C_R   0.670937 0.191790 0.205231 0.022989
C6    C     C_R   0.717687 0.230416 0.347745 -0.157775
C7    C     C_R   0.702826 0.252272 0.386789 -0.137475
C8    C     C_R   0.558678 0.222830 0.385956 -0.091304
C9    C     C_R   0.738933 0.599738 0.646984 -0.087041
C10   C     C_R   0.573381 0.200657 0.346821 0.165520
C11   C     C_R   0.650572 0.208978 0.327230 0.035337
C12   C     C_R   0.620235 0.253291 0.405854 -0.009946
C13   C     C_R   0.213107 0.715424 0.347853 -0.121472
C14   C     C_R   0.086691 0.707107 0.093428 -0.002620
C15   C     C_R   0.122446 0.606262 0.105916 0.403258
C16   C     C_R   0.162754 0.577393 0.142730 0.194222
C17   C     C_R   0.166832 0.649879 0.167297 -0.026295
C18   C     C_R   0.138693 0.747462 0.153655 -0.178624
C19   C     C_R   0.099286 0.775779 0.117046 -0.196407
C20   C     C_R   0.260910 0.649395 0.225797 -0.110459
C21   C     C_R   0.208174 0.634148 0.330136 0.026784
C22   C     C_R   0.556374 0.716889 0.651575 -0.132271
C23   C     C_R   0.250116 0.627665 0.408521 0.021067
C24   C     C_R   0.735961 0.025454 0.943328 0.544342
C25   C     C_R   0.745917 0.722752 0.945107 0.540576
C26   C     C_R   0.038253 0.733980 0.948332 0.543892
C27   C     C_R   0.723055 0.038698 0.052865 0.544181
C28   C     C_R   0.733429 0.734502 0.054714 0.538444
C29   C     C_R   0.652352 0.664657 0.669169 0.000712
C30   C     C_R   0.027920 0.744551 0.057783 0.571511
C31   C     C_R   0.545618 0.697285 0.613395 -0.160450
C32   C     C_R   0.671593 0.674603 0.788414 0.344043
C33   C     C_R   0.660786 0.671555 0.710953 0.346995
C34   C     C_R   0.763519 0.599547 0.849356 -0.121119
C35   C     C_R   0.780373 0.610225 0.887883 -0.128890
C36   C     C_R   0.626187 0.776711 0.889743 -0.130679
C37   C     C_R   0.609040 0.765756 0.851214 -0.122790
C38   C     C_R   0.679974 0.678972 0.830303 0.034351
C39   C     C_R   0.611064 0.588951 0.555067 0.571402
C40   C     C_R   0.268514 0.648645 0.265518 -0.118213
C41   C     C_R   0.714318 0.700850 0.907969 0.023162
C42   C     C_R   0.723073 0.072613 0.905466 0.022121
C43   C     C_R   0.632846 0.102073 0.884701 -0.122186
C44   C     C_R   0.628997 0.122612 0.845795 -0.116023
C45   C     C_R   0.714831 0.115000 0.827035 0.030348
C46   C     C_R   0.802099 0.093945 0.848269 -0.120735
C47   C     C_R   0.806332 0.072647 0.887257 -0.124836
C48   C     C_R   0.746363 0.185249 0.767356 -0.107050
C49   C     C_R   0.739947 0.196461 0.727673 -0.099614
C50   C     C_R   0.702997 0.144113 0.705107 0.032118
C51   C     C_R   0.202867 0.629832 0.288228 0.026264
C52   C     C_R   0.590401 0.300341 0.553504 0.543887
C53   C     C_R   0.676287 0.077490 0.722821 -0.105808
C54   C     C_R   0.681852 0.067052 0.762450 -0.106138
C55   C     C_R   0.714935 0.122418 0.785048 0.026607
C56   C     C_R   0.591559 0.181113 0.647759 -0.097960
C57   C     C_R   0.564533 0.217995 0.610679 -0.112720
C58   C     C_R   0.723345 0.220605 0.604269 -0.116738
C59   C     C_R   0.750549 0.183298 0.641345 -0.116176
C60   C     C_R   0.683257 0.166614 0.663892 0.030518
C61   C     C_R   0.628399 0.241712 0.589110 0.018008
C62   C     C_R   0.132297 0.607793 0.270717 -0.105759
C63   C     C_R   0.091915 0.697179 0.911274 0.023205
C64   C     C_R   0.300634 0.610019 0.445943 0.544524
C65   C     C_R   0.120590 0.758860 0.890845 -0.123969
C66   C     C_R   0.144561 0.740614 0.852039 -0.115046
C67   C     C_R   0.141567 0.659734 0.833111 0.033571
C68   C     C_R   0.122623 0.592114 0.854144 -0.115229
C69   C     C_R   0.097654 0.610843 0.893012 -0.121241
C70   C     C_R   0.216025 0.559132 0.772731 -0.067222
C71   C     C_R   0.225722 0.554211 0.732882 0.390675
C72   C     C_R   0.166879 0.642426 0.710857 0.035518
C73   C     C_R   0.124238 0.609250 0.230976 -0.071274
C74   C     C_R   0.097143 0.734317 0.729351 -0.170078
C75   C     C_R   0.088612 0.739202 0.769089 -0.130780
C76   C     C_R   0.607899 0.589677 0.445263 0.545954
C77   C     C_R   0.149089 0.652109 0.791072 -0.027948
C78   C     C_R   0.198453 0.719149 0.653313 -0.124162
C79   C     C_R   0.229526 0.712134 0.615323 -0.124650
C80   C     C_R   0.227098 0.553394 0.607749 -0.116950
C81   C     C_R   0.195332 0.560842 0.645757 -0.053000
C82   C     C_R   0.184631 0.641724 0.669238 0.056225
C83   C     C_R   0.248016 0.627137 0.592609 0.019372
C84   C     C_R   0.187810 0.631045 0.208342 0.059112
C85   C     C_R   0.691562 0.718595 0.090499 0.016938
C86   C     C_R   0.605620 0.800539 0.108290 -0.125008
C87   C     C_R   0.578746 0.791381 0.145690 -0.119559
C88   C     C_R   0.587828 0.302963 0.443738 0.542734
C89   C     C_R   0.637154 0.700117 0.165845 0.027690
C90   C     C_R   0.718379 0.615956 0.147004 -0.111930
C91   C     C_R   0.745214 0.625050 0.109695 -0.112369
C92   C     C_R   0.633175 0.605015 0.223506 -0.115542
C93   C     C_R   0.633156 0.595190 0.263125 -0.115966
C94   C     C_R   0.620508 0.675638 0.287335 0.022557
C95   C     C_R   0.215306 0.554002 0.352375 -0.112057
C96   C     C_R   0.603495 0.767730 0.271351 -0.107446
C97   C     C_R   0.604343 0.777329 0.231669 -0.105604
C98   C     C_R   0.621270 0.695250 0.207384 0.026775
C99   C     C_R   0.550045 0.735777 0.353203 -0.114457
C100  C     C_R   0.630576 0.625050 0.591882 0.032722
C101  C     C_R   0.548512 0.715954 0.392083 -0.119675
C102  C     C_R   0.704637 0.552684 0.383858 -0.121345
C103  C     C_R   0.705537 0.572148 0.345003 -0.119294
C104  C     C_R   0.626350 0.662128 0.329159 0.027687
C105  C     C_R   0.623741 0.622456 0.407467 0.023340
C106  C     C_R   0.236257 0.550686 0.391362 -0.119090
C107  C     C_R   0.699723 0.100803 0.088135 0.019125
C108  C     C_R   0.775868 0.115485 0.105291 -0.125527
C109  C     C_R   0.763375 0.152632 0.142720 -0.122807
C110  C     C_R   0.674499 0.175998 0.163468 0.026059
C111  C     C_R   0.594350 0.170704 0.145122 -0.103136
C112  C     C_R   0.729077 0.580126 0.608504 0.156066
C113  C     C_R   0.606849 0.133361 0.107688 -0.114146
C114  C     C_R   0.580833 0.266381 0.223325 -0.106765
C115  C     C_R   0.574614 0.272390 0.263158 -0.072041
C116  C     C_R   0.657860 0.203083 0.285301 0.055044
Cr1   Cr    Cr6+3 0.421670 0.426920 0.499620 1.028776
Cr2   Cr    Cr6+3 0.427030 0.651190 0.500980 1.020527
Cr3   Cr    Cr6+3 0.651280 0.421870 0.499380 1.056768
Cr4   Cr    Cr6+3 0.910810 0.908010 0.001130 1.015482
Cr5   Cr    Cr6+3 0.682800 0.909890 0.998370 1.020117
Cr6   Cr    Cr6+3 0.908370 0.682300 0.002180 1.083973
F1    F     F_    0.296687 0.464896 0.716188 -0.645325
F2    F     F_    0.116036 0.536609 0.082855 -0.587276
H1    H     H_    0.876970 0.050087 0.902486 0.127915
H2    H     H_    0.869018 0.088048 0.834273 0.104984
H3    H     H_    0.469099 0.734134 0.601544 0.140242
H4    H     H_    0.774566 0.237399 0.588197 0.147183
H5    H     H_    0.117685 0.825513 0.904107 0.130166
H6    H     H_    0.076077 0.561847 0.907996 0.130813
H7    H     H_    0.182562 0.501593 0.657174 0.166054
H8    H     H_    0.263341 0.491357 0.789358 0.134344
H9    H     H_    0.160966 0.792463 0.836355 0.113035
H10   H     H_    0.050430 0.802895 0.713040 0.120686
H11   H     H_    0.034931 0.811264 0.782745 0.127212
H12   H     H_    0.822560 0.170925 0.652863 0.113546
H13   H     H_    0.190892 0.782264 0.670838 0.111047
H14   H     H_    0.848621 0.550065 0.901208 0.132617
H15   H     H_    0.244991 0.770196 0.604530 0.131402
H16   H     H_    0.120379 0.529008 0.839993 0.112665
H17   H     H_    0.239891 0.487417 0.590820 0.135174
H18   H     H_    0.562472 0.873517 0.094157 0.133663
H19   H     H_    0.811559 0.560398 0.096709 0.153351
H20   H     H_    0.766229 0.515209 0.327004 0.111284
H21   H     H_    0.643925 0.524298 0.274921 0.109510
H22   H     H_    0.644592 0.541257 0.205475 0.108465
H23   H     H_    0.759656 0.249514 0.714869 0.120521
H24   H     H_    0.514703 0.856868 0.159355 0.114286
H25   H     H_    0.593498 0.830690 0.289561 0.136090
H26   H     H_    0.814303 0.561602 0.659801 0.163085
H27   H     H_    0.596441 0.847261 0.220087 0.121676
H28   H     H_    0.488430 0.805870 0.341528 0.118830
H29   H     H_    0.485183 0.771194 0.409561 0.129912
H30   H     H_    0.765429 0.544883 0.161873 0.117293
H31   H     H_    0.763740 0.479982 0.394780 0.132240
H32   H     H_    0.847808 0.092267 0.090750 0.129719
H33   H     H_    0.546526 0.123622 0.095090 0.144274
H34   H     H_    0.772121 0.228527 0.784339 0.114353
H35   H     H_    0.504627 0.330458 0.276768 0.145208
H36   H     H_    0.515106 0.319055 0.206661 0.132596
H37   H     H_    0.488336 0.768531 0.667812 0.144221
H38   H     H_    0.825373 0.157967 0.156161 0.108900
H39   H     H_    0.814214 0.077841 0.284152 0.112423
H40   H     H_    0.825264 0.065869 0.214250 0.109162
H41   H     H_    0.777978 0.236143 0.333085 0.112603
H42   H     H_    0.751799 0.275145 0.401370 0.137857
H43   H     H_    0.525133 0.188079 0.160605 0.141337
H44   H     H_    0.495663 0.221389 0.400278 0.160934
H45   H     H_    0.560147 0.140879 0.829995 0.116932
H46   H     H_    0.073128 0.853588 0.108149 0.150738
H47   H     H_    0.205507 0.779075 0.331197 0.109954
H48   H     H_    0.818493 0.530896 0.834135 0.133633
H49   H     H_    0.324807 0.663974 0.278567 0.113019
H50   H     H_    0.309860 0.667191 0.208693 0.115620
H51   H     H_    0.080900 0.593425 0.287807 0.112601
H52   H     H_    0.065485 0.597687 0.217942 0.141033
H53   H     H_    0.211211 0.490822 0.339178 0.131416
H54   H     H_    0.248384 0.484471 0.407412 0.137440
H55   H     H_    0.141466 0.804053 0.172215 0.131552
H56   H     H_    0.649314 0.034877 0.706083 0.113148
H57   H     H_    0.243008 0.773299 0.399245 0.133169
H58   H     H_    0.573594 0.847193 0.904565 0.129462
H59   H     H_    0.543314 0.827797 0.837377 0.132719
H60   H     H_    0.567160 0.103446 0.897932 0.132783
H61   H     H_    0.659485 0.016273 0.775551 0.118341
H62   H     H_    0.537620 0.169910 0.664555 0.127517
H63   H     H_    0.490863 0.233490 0.599815 0.139181
N1    N     N_R   0.751800 0.603580 0.767322 -0.231978
N2    N     N_R   0.746411 0.601902 0.729360 -0.229531
N3    N     N_R   0.580556 0.742730 0.732030 -0.231928
N4    N     N_R   0.586091 0.744642 0.770014 -0.235568
O1    O     O_R   0.502070 0.323090 0.541280 -0.516187
O2    O     O_R   0.831550 0.656950 0.958960 -0.520158
O3    O     O_R   0.998590 0.685540 0.963930 -0.497564
O4    O     O_R   0.338340 0.520690 0.539540 -0.498538
O5    O     O_R   0.008220 0.831200 0.045060 -0.532989
O6    O     O_R   0.813270 0.997930 0.038810 -0.504129
O7    O     O_R   0.657500 0.016560 0.039940 -0.515623
O8    O     O_R   0.685680 0.820940 0.038120 -0.505734
O9    O     O_R   0.822130 0.666070 0.043610 -0.496176
O10   O     O_R   0.989860 0.694000 0.042400 -0.426739
O11   O     O_3   0.833990 0.833400 0.000560 -0.252015
O12   O     O_R   0.520720 0.641670 0.461580 -0.503410
O13   O     O_R   0.324760 0.674070 0.543580 -0.520156
O14   O     O_R   0.522400 0.640310 0.540110 -0.514382
O15   O     O_R   0.675940 0.500630 0.542210 -0.454311
O16   O     O_R   0.641790 0.337020 0.538150 -0.497977
O17   O     O_R   0.500260 0.324550 0.456580 -0.516676
O18   O     O_R   0.336660 0.522040 0.461020 -0.500766
O19   O     O_R   0.322940 0.675540 0.458880 -0.518181
O20   O     O_R   0.674120 0.502090 0.457500 -0.511248
O21   O     O_R   0.640110 0.338380 0.459630 -0.503252
O22   O     O_3   0.499990 0.499990 0.499990 -0.248185
O23   O     O_R   0.017640 0.822070 0.960410 -0.521813
O24   O     O_R   0.822000 0.989470 0.960340 -0.502932
O25   O     O_R   0.666920 0.007430 0.955290 -0.516846
O26   O     O_R   0.694410 0.812480 0.959650 -0.503749

loop_
_geom_bond_atom_site_label_1
_geom_bond_atom_site_label_2
_ccdc_geom_bond_type
C91   H19   S    
C78   H13   S    
C52   O1    A    
Cr5   O26   S    
Cr6   O10   S    
C24   O25   A    
C90   C91   A    
Cr5   O11   S    
C8    C10   A    
C70   C71   A    
C3    C116  A    
C63   C65   A    
C92   C93   A    
C9    H26   S    
C79   H15   S    
C73   H52   S    
C39   C100  S    
C46   C47   A    
C3    H39   S    
C44   H45   S    
C54   C55   A    
C4    C5    A    
C51   C62   A    
C74   C75   A    
C33   N3    A    
C7    H42   S    
C86   H18   S    
C81   H7    S    
C59   C60   A    
C62   C73   A    
C27   C107  S    
C80   C81   A    
C21   C95   A    
C23   C64   S    
C29   C33   S    
Cr4   O5    S    
C74   H10   S    
C113  H33   S    
C7    C12   A    
C80   H17   S    
C99   C101  A    
C75   C77   A    
C1    C83   S    
C62   H51   S    
C30   O5    A    
C22   H37   S    
C106  H54   S    
C17   C84   S    
C20   C40   A    
C53   C54   A    
Cr4   O11   S    
C26   C63   S    
C15   C16   A    
Cr6   O11   S    
C65   H5    S    
Br2   C10   S    
C108  H32   S    
C115  C116  A    
C89   C90   A    
C28   O8    A    
C88   O21   A    
C32   N4    A    
C107  C108  A    
C8    C12   A    
C72   C82   S    
C76   O20   A    
C63   C69   A    
C16   C17   A    
C65   C66   A    
C2    C13   A    
Cr1   O4    S    
Cr3   O16   S    
C49   H23   S    
C39   O14   A    
C67   C68   A    
C92   H22   S    
C59   H12   S    
C6    C7    A    
C2    H57   S    
C28   O9    A    
C22   C31   A    
C9    C112  A    
C85   C86   A    
C24   C42   S    
Cr1   O17   S    
C1    O4    A    
Cr4   O23   S    
Cr5   O25   S    
Cr6   O3    S    
C56   C57   A    
C25   O26   A    
C95   C106  A    
C20   C84   A    
C18   C19   A    
C9    C29   A    
C34   C38   A    
C66   C67   A    
C14   C30   S    
Cr2   O12   S    
C75   H11   S    
C13   H47   S    
C109  C110  A    
C94   C96   A    
C5    C114  A    
C78   C79   A    
C52   C61   S    
C18   H55   S    
C93   H21   S    
C102  C105  A    
C85   C91   A    
Cr1   O1    S    
C71   C72   A    
C67   C77   S    
C48   C49   A    
C54   H61   S    
Cr2   O22   S    
C70   H8    S    
Cr4   O6    S    
C64   O18   A    
C81   C82   A    
C88   O17   A    
C36   C37   A    
Cr6   O2    S    
C27   O6    A    
C42   C43   A    
C46   H2    S    
C25   C41   S    
C114  H36   S    
C103  H20   S    
N1    N2    A    
Cr5   O8    S    
C94   C104  S    
C58   C61   A    
C100  C112  A    
C6    C11   A    
C35   C41   A    
C34   C35   A    
C115  H35   S    
C15   F2    S    
C34   H48   S    
C40   H49   S    
C40   C51   A    
C87   C89   A    
C44   C45   A    
C23   C106  A    
C93   C94   A    
C14   C15   A    
Cr3   O15   S    
C99   C104  A    
C48   C55   A    
C101  H29   S    
C90   H30   S    
C72   C74   A    
C73   C84   A    
C3    C4    A    
C39   O15   A    
C5    C110  S    
C89   C98   S    
C57   H63   S    
C37   C38   A    
Cr4   O24   S    
C11   C116  S    
C66   H9    S    
C26   O3    A    
C43   H60   S    
C35   H14   S    
C56   H62   S    
C47   H1    S    
Cr2   O13   S    
C95   H53   S    
C107  C113  A    
C8    H44   S    
C101  C105  A    
C19   H46   S    
C49   C50   A    
C1    O13   A    
C68   H16   S    
C110  C111  A    
C96   H25   S    
C50   C53   A    
C97   H27   S    
C111  H43   S    
C27   O7    A    
C4    H40   S    
C43   C44   A    
Cr6   O9    S    
C32   N1    A    
C28   C85   S    
C108  C109  A    
C33   N2    A    
C6    H41   S    
C14   C19   A    
C87   H24   S    
C111  C113  A    
C45   C55   S    
C36   C41   A    
C53   H56   S    
Cr1   O22   S    
C76   O12   A    
C102  C103  A    
C30   O10   A    
C56   C60   A    
C31   C100  A    
C96   C97   A    
Cr5   O7    S    
C57   C61   A    
C68   C69   A    
C102  H31   S    
C79   C83   A    
C114  C115  A    
C52   O16   A    
C50   C60   S    
C69   H6    S    
C71   F1    S    
C42   C47   A    
C22   C29   A    
C45   C46   A    
C109  H38   S    
C26   O23   A    
C97   C98   A    
C25   O2    A    
C70   C77   A    
Cr3   O22   S    
C76   C105  S    
C48   H34   S    
Br3   C16   S    
C58   C59   A    
C32   C38   S    
C20   H50   S    
C64   O19   A    
Cr3   O21   S    
C58   H4    S    
C12   C88   S    
C2    C23   A    
C36   H58   S    
Cr3   O20   S    
Cr1   O18   S    
C80   C83   A    
C37   H59   S    
C17   C18   A    
C31   H3    S    
C24   O24   A    
C13   C21   A    
N3    N4    A    
C103  C104  A    
Br1   C112  S    
Cr2   O14   S    
C86   C87   A    
C10   C11   A    
C21   C51   S    
C99   H28   S    
C78   C82   A    
C92   C98   A    
Cr2   O19   S    
