data_mof_unit_47613.cif
_audit_creation_date              2012-12-11T14:17:33-0500
_audit_creation_method            fapswitch 2.2
_symmetry_space_group_name_H-M    P1
_symmetry_Int_Tables_number       1
_space_group_crystal_system       triclinic
_cell_length_a                    6.945288
_cell_length_b                    13.636406
_cell_length_c                    20.435465
_cell_angle_alpha                 102.310712
_cell_angle_beta                  90.325679
_cell_angle_gamma                 90.356085
_cell_volume                      1890.82899305

loop_
_atom_site_label
_atom_site_type_symbol
_atom_type_description
_atom_site_fract_x
_atom_site_fract_y
_atom_site_fract_z
_atom_type_partial_charge
O1    O     O_R   0.506860 0.599390 0.449240 -0.540963
O2    O     O_R   0.180220 0.594600 0.586780 -0.543144
O3    O     O_R   0.004500 0.400610 0.550760 -0.541654
C1    C     C_R   0.349205 0.616023 0.613491 0.739083
O4    O     O_R   0.177490 0.611290 0.451970 -0.541574
O5    O     O_R   0.001750 0.417420 0.414990 -0.541372
C2    C     C_R   0.346181 0.638876 0.436384 0.697149
O6    O     O_R   0.509610 0.582580 0.585010 -0.544250
O7    O     O_3   0.337420 0.436370 0.488020 -0.370401
V1    V     V_3+5 0.064680 0.511800 0.502220 1.426540
O8    O     O_R   0.671710 0.405400 0.413220 -0.542088
C3    C     C_R   0.839619 0.383757 0.386640 0.742245
O9    O     O_R   0.674440 0.388710 0.548030 -0.538921
C4    C     C_R   0.843550 0.362279 0.565054 0.713085
V2    V     V_3+5 0.564010 0.488200 0.497780 1.436066
O10   O     O_3   0.841140 0.563630 0.511980 -0.373198
C5    C     C_R   0.931208 0.112149 0.611422 0.213437
H1    H     H_    0.950558 0.988014 0.697135 0.162735
C6    C     C_R   0.856609 0.283065 0.603579 -0.110491
C7    C     C_R   0.847259 0.313933 0.927886 -0.240653
C8    C     C_R   0.864336 0.390899 0.893544 -0.091928
C9    C     C_R   0.888642 0.370824 0.824116 0.203721
C10   C     C_R   0.879889 0.269116 0.786320 0.049639
C11   C     C_R   0.880339 0.190862 0.823210 0.043835
C12   C     C_R   0.878648 0.241079 0.714290 0.028741
C13   C     C_R   0.913741 0.139514 0.681960 0.091129
C14   C     C_R   0.927318 0.066128 0.720347 -0.159062
C15   C     C_R   0.904033 0.090699 0.789176 -0.205763
C16   C     C_R   0.834578 0.309007 0.673071 -0.277534
C17   C     C_R   0.908175 0.184767 0.572497 0.141795
C18   C     C_R   0.862208 0.214310 0.893942 -0.074071
H2    H     H_    0.779425 0.382497 0.693491 0.130505
H3    H     H_    0.833807 0.332430 0.981933 0.117805
H4    H     H_    0.868691 0.467725 0.921856 0.141506
H5    H     H_    0.909099 0.030041 0.815768 0.113600
C19   C     C_2   0.005253 0.287960 0.285551 -0.140048
C20   C     C_2   0.841911 0.315052 0.319951 -0.282676
H6    H     H_    0.142369 0.316410 0.307822 0.136545
H7    H     H_    0.703242 0.287087 0.299410 0.137318
C21   C     C_2   0.013963 0.220321 0.217771 -0.142707
C22   C     C_2   0.858959 0.182515 0.180636 -0.295390
H8    H     H_    0.156858 0.202035 0.197717 0.143062
H9    H     H_    0.714776 0.200001 0.199165 0.140791
C23   C     C_2   0.204160 0.790617 0.782215 -0.126142
C24   C     C_2   0.363154 0.815200 0.820106 -0.294447
H10   H     H_    0.066481 0.821221 0.801267 0.129739
H11   H     H_    0.501553 0.784785 0.802371 0.127412
C25   C     C_2   0.202791 0.721927 0.714756 -0.117387
C26   C     C_2   0.361200 0.684319 0.680272 -0.307264
H12   H     H_    0.061543 0.702580 0.692494 0.135867
H13   H     H_    0.504320 0.703346 0.700431 0.125542
C27   C     C_R   0.325162 0.893300 0.396442 -0.095680
H14   H     H_    0.302813 0.836399 0.486094 0.112149
H15   H     H_    0.301432 0.968877 0.424373 0.162433
C28   C     C_R   0.353162 0.718777 0.399403 -0.030831
C29   C     C_R   0.347163 0.691682 0.078062 0.197515
C30   C     C_R   0.333096 0.617991 0.115445 -0.155918
C31   C     C_R   0.335529 0.643391 0.184710 -0.180243
C32   C     C_R   0.354747 0.744321 0.220134 0.054116
C33   C     C_R   0.362096 0.822163 0.183103 -0.032380
C34   C     C_R   0.359651 0.768962 0.291545 0.059621
C35   C     C_R   0.350192 0.870909 0.326177 0.051237
C36   C     C_R   0.362762 0.948044 0.290230 0.003472
C37   C     C_R   0.371542 0.924510 0.219877 0.077031
C38   C     C_R   0.372306 0.694455 0.330090 -0.192792
C39   C     C_R   0.324341 0.817673 0.432394 -0.186888
C40   C     C_R   0.359876 0.793414 0.111046 -0.081345
H16   H     H_    0.397018 0.616501 0.308061 0.091606
H17   H     H_    0.315920 0.581373 0.208987 0.117598
H18   H     H_    0.318871 0.539655 0.090745 0.116949
O11   O     O_R   0.203230 0.917310 0.915020 -0.536421
O12   O     O_R   0.535500 0.888690 0.048040 -0.550514
O13   O     O_R   0.711080 0.082610 0.085000 -0.548106
C41   C     C_R   0.367582 0.866330 0.067928 0.743883
O14   O     O_R   0.532630 0.905370 0.913230 -0.547235
O15   O     O_R   0.708190 0.099410 0.949230 -0.539201
C42   C     C_R   0.364160 0.884055 0.886577 0.764634
O16   O     O_R   0.206120 0.900510 0.050790 -0.535996
O17   O     O_3   0.375360 0.063570 0.011990 -0.375883
V3    V     V_3+5 0.648170 0.988200 0.997780 1.415870
O18   O     O_R   0.038240 0.111390 0.951940 -0.541517
C43   C     C_R   0.869583 0.136747 0.934101 0.701014
O19   O     O_R   0.041120 0.094710 0.086750 -0.548635
C44   C     C_R   0.872736 0.115525 0.113589 0.730602
V4    V     V_3+5 0.148810 0.011930 0.002180 1.428044
O20   O     O_3   0.871750 0.936430 0.988010 -0.369115
N1    N     N_3   0.933333 0.156714 0.501298 -0.667189
H19   H     H_    0.044101 0.200604 0.487823 0.234905
H20   H     H_    0.806207 0.172403 0.477982 0.252420
C45   C     C_2   0.375219 0.055906 0.324881 0.380496
H21   H     H_    0.296152 0.111834 0.305210 0.078567
O21   O     O_2   0.482115 0.083742 0.373000 -0.544743
N2    N     N_3   0.344203 0.664037 0.005995 -0.672409
H22   H     H_    0.317765 0.587093 0.989595 0.230289
H23   H     H_    0.481886 0.677600 0.989313 0.221358
N3    N     N_3   0.398441 0.007912 0.188427 -0.713578
H24   H     H_    0.527201 0.999705 0.162073 0.252354
H25   H     H_    0.278733 0.016319 0.159275 0.242825
N4    N     N_3   0.974645 0.010459 0.579435 -0.685624
H26   H     H_    0.103085 0.010461 0.552979 0.248829
H27   H     H_    0.864557 0.983387 0.545089 0.257621
N5    N     N_3   0.954798 0.453911 0.797232 -0.685235
H28   H     H_    0.052616 0.431182 0.758381 0.242282
H29   H     H_    0.837434 0.492492 0.783148 0.221994

loop_
_geom_bond_atom_site_label_1
_geom_bond_atom_site_label_2
_ccdc_geom_bond_type
N1    H19   S    
N2    H22   S    
O11   C42   A    
C2    C28   S    
C1    O6    A    
O18   C43   A    
C45   H21   S    
C33   C40   A    
V4    O20   S    
C13   C14   A    
C18   C43   S    
C5    C13   A    
C19   C20   D    
C16   H2    S    
O5    C3    A    
V2    O10   S    
C29   C30   A    
C3    C20   S    
V3    O20   S    
O11   V4    S    
O8    V2    S    
O19   C44   A    
C15   H5    S    
C23   H10   S    
C26   H13   S    
N3    H25   S    
C10   C11   A    
O1    V2    S    
C30   H18   S    
O14   V3    S    
O13   C44   A    
C21   H8    S    
C32   C33   A    
N2    H23   S    
O9    C4    A    
C5    C17   A    
C22   H9    S    
C34   C35   A    
C28   C38   A    
C27   H15   S    
C24   H11   S    
C12   C16   A    
C29   N2    S    
C32   C34   A    
O15   V3    S    
C19   C21   S    
C37   N3    S    
O12   C41   A    
O15   C43   A    
O4    C2    A    
C8    H4    S    
C12   C13   A    
C22   C44   S    
C27   C35   A    
O17   V3    S    
O2    C1    A    
C35   C36   A    
O14   C42   A    
C45   O21   D    
N4    H26   S    
O9    V2    S    
C38   H16   S    
N3    H24   S    
C40   C41   S    
N5    H29   S    
H14   C39   S    
C5    N4    S    
O3    C4    A    
C7    H3    S    
O16   V4    S    
C25   C26   D    
O19   V4    S    
O6    V2    S    
N1    H20   S    
C6    C16   A    
O17   V4    S    
C28   C39   A    
C27   C39   A    
C23   C24   D    
O7    V1    S    
C21   C22   D    
N4    H27   S    
O1    C2    A    
C4    C6    S    
H1    C14   S    
C11   C15   A    
O5    V1    S    
O8    C3    A    
C31   H17   S    
C29   C40   A    
C9    N5    S    
C1    C26   S    
C33   C37   A    
C19   H6    S    
C31   C32   A    
C11   C18   A    
O4    V1    S    
O12   V3    S    
O3    V1    S    
V1    O10   S    
C30   C31   A    
C36   C45   S    
C25   H12   S    
O13   V3    S    
C10   C12   A    
O7    V2    S    
N5    H28   S    
C36   C37   A    
C34   C38   A    
C7    C8    A    
C20   H7    S    
C41   O16   A    
C14   C15   A    
C9    C10   A    
C24   C42   S    
C17   N1    S    
C8    C9    A    
C6    C17   A    
O18   V4    S    
C23   C25   S    
C7    C18   A    
O2    V1    S    
