data_mof_unit_12300.cif
_audit_creation_date              2012-12-11T14:29:30-0500
_audit_creation_method            fapswitch 2.2
_symmetry_space_group_name_H-M    P1
_symmetry_Int_Tables_number       1
_space_group_crystal_system       triclinic
_cell_length_a                    6.935475
_cell_length_b                    14.702954
_cell_length_c                    16.309024
_cell_angle_alpha                 90.408559
_cell_angle_beta                  90.011845
_cell_angle_gamma                 89.902599
_cell_volume                      1663.01858924

loop_
_atom_site_label
_atom_site_type_symbol
_atom_type_description
_atom_site_fract_x
_atom_site_fract_y
_atom_site_fract_z
_atom_type_partial_charge
O1    O     O_R   0.494400 0.416610 0.413880 -0.546419
O2    O     O_R   0.823920 0.406790 0.585520 -0.545087
O3    O     O_R   0.994250 0.583390 0.586120 -0.530728
C1    C     C_R   0.654796 0.385171 0.613638 0.740761
O4    O     O_R   0.824110 0.405730 0.414490 -0.544584
O5    O     O_R   0.994440 0.582310 0.413870 -0.524830
C2    C     C_R   0.654706 0.384518 0.385829 0.742783
O6    O     O_R   0.494210 0.417690 0.586130 -0.545709
O7    O     O_3   0.660810 0.557940 0.500000 -0.356470
V1    V     V_3+5 0.935650 0.489250 0.500000 1.439760
O8    O     O_R   0.324160 0.593210 0.414480 -0.546689
C3    C     C_R   0.155689 0.614155 0.385868 0.735643
O9    O     O_R   0.323970 0.594270 0.585510 -0.536769
C4    C     C_R   0.153553 0.618973 0.611835 0.710200
V2    V     V_3+5 0.435660 0.510750 0.500000 1.440977
O10   O     O_3   0.160630 0.442060 0.500000 -0.380553
H1    H     H_    0.181262 0.940917 0.513757 0.119002
C5    C     C_R   0.087425 0.561574 0.778739 -0.140521
C6    C     C_R   0.050806 0.531247 0.858001 -0.113199
C7    C     C_R   0.033449 0.593238 0.922346 -0.125469
C8    C     C_R   0.054647 0.686005 0.908128 -0.147995
C9    C     C_R   0.093313 0.718819 0.828523 0.075441
C10   C     C_R   0.107312 0.655462 0.762068 0.071605
C11   C     C_R   0.123534 0.812761 0.814893 -0.172989
C12   C     C_R   0.163961 0.843294 0.734560 0.067645
C13   C     C_R   0.147760 0.782265 0.666532 0.028331
C14   C     C_R   0.136737 0.686661 0.680697 -0.186200
C15   C     C_R   0.211940 0.935292 0.720003 -0.145677
C16   C     C_R   0.232833 0.967467 0.640603 -0.135028
C17   C     C_R   0.188052 0.911520 0.574472 -0.130959
C18   C     C_R   0.134772 0.820968 0.587005 -0.040045
H2    H     H_    0.098599 0.510564 0.730823 0.101054
H3    H     H_    0.035006 0.459204 0.869460 0.117755
H4    H     H_    0.004311 0.569314 0.983727 0.108599
H5    H     H_    0.041331 0.731544 0.960217 0.076349
H6    H     H_    0.232844 0.983585 0.769501 0.111267
H7    H     H_    0.269626 0.038048 0.630537 0.117846
C19   C     C_2   0.990324 0.706008 0.279315 -0.088184
C20   C     C_2   0.150689 0.684674 0.321850 -0.254323
H8    H     H_    0.855784 0.671999 0.293760 0.144134
H9    H     H_    0.283430 0.721792 0.312416 0.187815
C21   C     C_2   0.980975 0.779112 0.216439 -0.234599
C22   C     C_2   0.129670 0.804560 0.168098 0.251558
H10   H     H_    0.841005 0.810827 0.207684 0.129096
C23   C     C_2   0.779546 0.209464 0.782702 -0.126118
C24   C     C_2   0.613988 0.179838 0.816794 -0.305007
H11   H     H_    0.915941 0.182603 0.804672 0.135226
H12   H     H_    0.475681 0.205320 0.796441 0.124086
C25   C     C_2   0.791789 0.277912 0.715743 -0.139209
C26   C     C_2   0.638399 0.317715 0.680062 -0.303458
H13   H     H_    0.935740 0.295744 0.695216 0.130931
H14   H     H_    0.493282 0.301327 0.699281 0.126342
C27   C     C_2   0.780700 0.227820 0.201188 -0.013335
C28   C     C_2   0.619305 0.181107 0.178521 -0.339131
H15   H     H_    0.487089 0.189075 0.213109 0.140663
C29   C     C_2   0.790939 0.288560 0.274773 -0.175858
C30   C     C_2   0.637507 0.319586 0.316753 -0.318300
H16   H     H_    0.933436 0.311731 0.293237 0.138677
H17   H     H_    0.492575 0.301463 0.298140 0.136004
O11   O     O_R   0.770210 0.079270 0.910680 -0.539681
O12   O     O_R   0.440150 0.091160 0.082270 -0.525778
O13   O     O_R   0.269970 0.914530 0.082860 -0.522053
C31   C     C_R   0.609735 0.114524 0.109584 0.755969
O14   O     O_R   0.440480 0.090100 0.911240 -0.549360
O15   O     O_R   0.270310 0.913460 0.910610 -0.544653
C32   C     C_R   0.609082 0.111884 0.883205 0.737930
O16   O     O_R   0.769870 0.080340 0.082930 -0.533810
O17   O     O_3   0.603660 0.938980 0.996790 -0.372310
V3    V     V_3+5 0.328750 0.007610 0.996740 1.465103
O18   O     O_R   0.940600 0.902510 0.911180 -0.539554
C33   C     C_R   0.110293 0.879727 0.883720 0.680159
O19   O     O_R   0.940270 0.903570 0.082200 -0.557872
C34   C     C_R   0.110168 0.879886 0.108512 0.636969
V4    V     V_3+5 0.828770 0.986010 0.996670 1.444436
O20   O     O_3   0.103730 0.054750 0.996710 -0.357719
O21   O     O_3   0.307815 0.762373 0.174890 -0.550740
C35   C     C_3   0.330935 0.700820 0.108776 0.116166
H18   H     H_    0.336252 0.737418 0.049308 0.114890
H19   H     H_    0.211577 0.650122 0.107319 0.110251
C36   C     C_3   0.520186 0.649725 0.119012 -0.709302
H20   H     H_    0.521098 0.613042 0.178326 0.214903
H21   H     H_    0.537955 0.599686 0.068235 0.178610
H22   H     H_    0.642817 0.698144 0.117659 0.215522
C37   C     C_1   0.956749 0.222548 0.153713 0.308433
N1    N     N_1   0.097854 0.219115 0.115968 -0.353929
C38   C     C_1   0.013224 0.781709 0.524667 0.258108
N2    N     N_1   0.909055 0.753323 0.475483 -0.336792

loop_
_geom_bond_atom_site_label_1
_geom_bond_atom_site_label_2
_ccdc_geom_bond_type
C22   C34   S    
C6    C7    A    
C1    O6    A    
C20   H9    S    
C27   C28   D    
C12   C15   A    
C13   C14   A    
C27   C37   S    
C15   C16   A    
C24   C32   S    
O5    C3    A    
C19   C20   D    
C30   H17   S    
C28   C31   S    
O17   V4    S    
V2    O10   S    
C29   C30   D    
C5    C6    A    
O12   C31   A    
O8    V2    S    
O17   V3    S    
C25   H13   S    
O18   V4    S    
C26   H14   S    
O13   C34   A    
O18   C33   A    
O1    V2    S    
C10   C14   A    
C4    C14   S    
O7    V1    S    
C35   H18   S    
C7    H4    S    
C35   H19   S    
O11   C32   A    
C13   C18   A    
C18   C38   S    
O9    C4    A    
H1    C17   S    
C21   H10   S    
C36   H22   S    
C24   H12   S    
O21   C35   S    
C23   H11   S    
C31   O16   A    
V4    O20   S    
C5    C10   A    
C11   C12   A    
O19   V4    S    
C6    H3    S    
O4    C2    A    
C38   N2    T    
C36   H20   S    
C12   C13   A    
O15   C33   A    
O13   V3    S    
C1    C26   S    
O14   C32   A    
O2    C1    A    
C16   C17   A    
C23   C25   S    
O16   V4    S    
O14   V3    S    
C37   N1    T    
O3    C4    A    
C36   H21   S    
O6    V2    S    
O9    V2    S    
C9    C11   A    
C5    H2    S    
C21   C22   D    
O2    V1    S    
C27   C29   S    
O12   V3    S    
C22   O21   S    
C28   H15   S    
O1    C2    A    
O19   C34   A    
O5    V1    S    
O8    C3    A    
C19   C21   S    
C8    H5    S    
C3    C20   S    
O7    V2    S    
O4    V1    S    
O3    V1    S    
V1    O10   S    
C19   H8    S    
C35   C36   S    
C17   C18   A    
O15   V3    S    
O11   V4    S    
C29   H16   S    
V3    O20   S    
C23   C24   D    
C7    C8    A    
C15   H6    S    
C25   C26   D    
C16   H7    S    
C9    C10   A    
C8    C9    A    
C2    C30   S    
C11   C33   S    
