data_mof_unit_45743.cif
_audit_creation_date              2012-12-10T18:05:50-0500
_audit_creation_method            fapswitch 2.2
_symmetry_space_group_name_H-M    P1
_symmetry_Int_Tables_number       1
_space_group_crystal_system       triclinic
_cell_length_a                    12.774735
_cell_length_b                    13.087338
_cell_length_c                    14.943694
_cell_angle_alpha                 93.576171
_cell_angle_beta                  102.465073
_cell_angle_gamma                 81.274956
_cell_volume                      2410.13512573

loop_
_atom_site_label
_atom_site_type_symbol
_atom_type_description
_atom_site_fract_x
_atom_site_fract_y
_atom_site_fract_z
_atom_type_partial_charge
C1    C     C_R   0.439062 0.690562 0.484466 0.828338
C2    C     C_R   0.586254 0.458759 0.106654 0.154246
C3    C     C_R   0.305444 0.590443 0.013806 0.434219
C4    C     C_R   0.310358 0.596483 0.922154 -0.270431
C5    C     C_R   0.404696 0.556248 0.891370 -0.069106
C6    C     C_R   0.495854 0.508293 0.952931 0.011588
C7    C     C_R   0.589850 0.463225 0.921696 0.144764
C8    C     C_R   0.680573 0.416219 0.982818 -0.198982
C9    C     C_R   0.678752 0.414008 0.075083 -0.207714
C10   C     C_R   0.409082 0.561786 0.799446 0.459519
C11   C     C_R   0.500255 0.510728 0.768606 -0.179601
C12   C     C_R   0.500140 0.503283 0.672478 0.884467
C13   C     C_R   0.590867 0.464039 0.829327 -0.339054
C14   C     C_R   0.716366 0.051702 0.460103 0.434954
C15   C     C_R   0.596610 0.197797 0.505840 -0.159448
C16   C     C_R   0.296493 0.841611 0.480794 -0.193121
C17   C     C_R   0.266534 0.948010 0.483596 -0.140312
C18   C     C_R   0.341919 0.013163 0.479775 -0.173670
C19   C     C_R   0.447709 0.971994 0.468097 0.101274
C20   C     C_R   0.470244 0.865453 0.449222 0.084313
C21   C     C_R   0.532204 0.032484 0.475245 0.033114
C22   C     C_R   0.631772 0.989926 0.450258 0.039078
C23   C     C_R   0.560892 0.308678 0.510146 0.888134
C24   C     C_R   0.642046 0.888747 0.413524 -0.243989
C25   C     C_R   0.562550 0.827363 0.413263 -0.179869
C26   C     C_R   0.520596 0.133839 0.509021 -0.230784
C27   C     C_R   0.696291 0.156191 0.485179 -0.206067
C28   C     C_R   0.400002 0.799848 0.467591 -0.101128
C29   C     C_R   0.088173 0.364133 0.349972 0.313409
C30   C     C_R   0.794928 0.635996 0.606440 0.014366
C31   C     C_R   0.890171 0.678106 0.617469 -0.299165
C32   C     C_R   0.968913 0.634106 0.569858 -0.077968
C33   C     C_R   0.955944 0.543691 0.513805 0.012750
C34   C     C_R   0.498402 0.500643 0.327382 0.926773
C35   C     C_R   0.853735 0.508006 0.498866 0.159781
C36   C     C_R   0.038506 0.489679 0.469601 -0.094461
C37   C     C_R   0.011187 0.415840 0.398312 -0.136125
C38   C     C_R   0.909329 0.387045 0.380436 -0.300397
C39   C     C_R   0.833710 0.426643 0.432288 0.425708
C40   C     C_R   0.148429 0.501542 0.496007 0.412263
C41   C     C_R   0.196820 0.375891 0.382120 0.449238
C42   C     C_R   0.585244 0.456402 0.198467 -0.346363
C43   C     C_R   0.494497 0.502092 0.230851 -0.135964
C44   C     C_R   0.402646 0.552263 0.172616 0.367427
C45   C     C_R   0.399519 0.550812 0.077803 -0.112611
C46   C     C_R   0.493656 0.506006 0.045810 -0.019553
H1    H     H_    0.655767 0.419469 0.245026 0.180015
H2    H     H_    0.711142 0.855469 0.385223 0.160689
H3    H     H_    0.450456 0.166356 0.535806 0.173048
H4    H     H_    0.239700 0.792185 0.491068 0.158415
H5    H     H_    0.314310 0.095076 0.483755 0.163521
H6    H     H_    0.186184 0.980154 0.492803 0.164574
H7    H     H_    0.573717 0.749779 0.383912 0.174516
H8    H     H_    0.889807 0.326684 0.329215 0.194900
H9    H     H_    0.731960 0.671902 0.641053 0.142249
H10   H     H_    0.035918 0.676314 0.574342 0.193510
H11   H     H_    0.901625 0.746798 0.660619 0.158585
H12   H     H_    0.238533 0.630463 0.874878 0.211579
H13   H     H_    0.661105 0.426343 0.804153 0.176124
H14   H     H_    0.752636 0.381128 0.959213 0.140485
H15   H     H_    0.749453 0.377205 0.121819 0.142142
H16   H     H_    0.758502 0.204412 0.487682 0.202800
N1    N     N_R   0.222190 0.444670 0.452360 -0.209192
N2    N     N_R   0.776970 0.554790 0.547140 -0.112297
O1    O     O_R   0.366740 0.627160 0.477250 -0.639132
O2    O     O_R   0.544830 0.662520 0.507680 -0.630938
O3    O     O_R   0.410940 0.482340 0.616930 -0.575935
O4    O     O_R   0.589030 0.517700 0.647360 -0.635431
O5    O     O_R   0.455170 0.337480 0.492320 -0.568984
O6    O     O_R   0.633260 0.372840 0.522750 -0.548764
O7    O     O_R   0.410970 0.482300 0.352640 -0.570686
O8    O     O_R   0.589060 0.517660 0.383070 -0.576956
Zn1   Zn    Zn3+2 0.381090 0.476390 0.479680 1.002314
Zn2   Zn    Zn3+2 0.618910 0.523610 0.520320 0.967973
O9    O     O_3   0.817815 0.014667 0.443880 -0.772363
H17   H     H_    0.835536 0.940792 0.459349 0.324966
O10   O     O_3   0.280183 0.305716 0.358251 -0.567560
C47   C     C_3   0.283806 0.309850 0.264783 0.141742
H18   H     H_    0.269962 0.390760 0.241063 0.147772
H19   H     H_    0.223871 0.264946 0.221593 0.181048
C48   C     C_3   0.394315 0.257584 0.250698 -0.801097
H20   H     H_    0.404487 0.173931 0.264908 0.254356
H21   H     H_    0.401116 0.266222 0.178790 0.198395
H22   H     H_    0.460317 0.292231 0.297540 0.257037
O11   O     O_3   0.059296 0.294011 0.278934 -0.591090
C49   C     C_3   0.012146 0.349583 0.198294 0.043623
H23   H     H_    0.069889 0.396627 0.180383 0.119698
H24   H     H_    0.937462 0.402373 0.205906 0.150716
C50   C     C_3   0.981918 0.273675 0.119006 -0.827819
H25   H     H_    0.921974 0.227413 0.133897 0.263244
H26   H     H_    0.945855 0.316562 0.055290 0.199618
H27   H     H_    0.055081 0.220766 0.108303 0.255510
O12   O     O_3   0.320799 0.606038 0.211010 -0.749066
H28   H     H_    0.304011 0.676020 0.185200 0.366333
O13   O     O_3   0.183640 0.560334 0.572427 -0.739135
H29   H     H_    0.247373 0.588195 0.562981 0.390671
O14   O     O_3   0.741105 0.383260 0.417624 -0.733477
H30   H     H_    0.741704 0.324428 0.372419 0.298895
O15   O     O_3   0.208096 0.624642 0.039538 -0.599228
C51   C     C_3   0.146298 0.542104 0.026686 0.142792
H31   H     H_    0.190086 0.474722 0.068158 0.131669
H32   H     H_    0.126938 0.517390 0.952970 0.134831
C52   C     C_3   0.040247 0.577633 0.057407 -0.819013
H33   H     H_    0.995334 0.645915 0.018347 0.262942
H34   H     H_    0.989328 0.514459 0.044825 0.192359
H35   H     H_    0.056646 0.598693 0.131778 0.262155
O16   O     O_3   0.323803 0.616572 0.739953 -0.579349
C53   C     C_3   0.347244 0.717888 0.734074 0.086093
H36   H     H_    0.399131 0.718267 0.683186 0.132116
H37   H     H_    0.388938 0.749686 0.801227 0.129862
C54   C     C_3   0.242047 0.789947 0.702767 -0.807522
H38   H     H_    0.190181 0.792734 0.753959 0.252549
H39   H     H_    0.259849 0.869108 0.695442 0.209861
H40   H     H_    0.197521 0.762434 0.635752 0.252900

loop_
_geom_bond_atom_site_label_1
_geom_bond_atom_site_label_2
_ccdc_geom_bond_type
C16   C28   A    
C21   C26   A    
O12   H28   S    
C30   N2    A    
C23   O5    A    
O13   H29   S    
O9    H17   S    
O14   H30   S    
C7    C8    A    
C45   C46   A    
C2    C46   A    
C12   O4    A    
C40   N1    A    
C9    H15   S    
C36   C37   A    
C19   C21   A    
C25   H7    S    
C41   O10   S    
C5    C6    A    
C47   H19   S    
C39   O14   S    
C20   C25   A    
O4    Zn2   S    
O2    Zn2   S    
C33   C36   A    
O1    Zn1   S    
C53   H36   S    
C18   C19   A    
C44   O12   S    
C52   H34   S    
C31   C32   A    
C8    C9    A    
O6    Zn2   S    
C1    C28   S    
C1    O1    A    
O16   C53   S    
O5    Zn1   S    
C35   N2    A    
O3    Zn1   S    
C14   C27   A    
C50   H26   S    
C29   O11   S    
O10   C47   S    
C15   C23   S    
C21   C22   A    
C23   O6    A    
C10   O16   S    
C17   H6    S    
C48   H21   S    
C18   H5    S    
C17   C18   A    
C12   O3    A    
C24   H2    S    
C36   C40   A    
C24   C25   A    
O8    Zn2   S    
C26   H3    S    
O7    Zn1   S    
C47   H18   S    
C16   C17   A    
C15   C26   A    
C20   C28   A    
O11   C49   S    
C3    C45   A    
C51   C52   S    
C48   H20   S    
C52   H35   S    
C35   C39   A    
C43   C44   A    
C37   C38   A    
C27   H16   S    
C15   C27   A    
O15   C51   S    
C38   H8    S    
C30   C31   A    
C51   H32   S    
C1    O2    A    
C54   H39   S    
C50   H27   S    
C22   C24   A    
C42   C43   A    
C41   N1    A    
C40   O13   S    
C29   C37   A    
C3    C4    A    
C34   O8    A    
C48   H22   S    
C44   C45   A    
C6    C46   A    
C54   H38   S    
C29   C41   A    
C49   H23   S    
C34   C43   S    
C16   H4    S    
C4    C5    A    
C49   C50   S    
C11   C12   S    
C6    C7    A    
C13   H13   S    
N1    Zn1   S    
C30   H9    S    
C53   C54   S    
C32   C33   A    
C14   C22   A    
C19   C20   A    
C5    C10   A    
C14   O9    S    
C11   C13   A    
C47   C48   S    
C31   H11   S    
C38   C39   A    
C2    C42   A    
C51   H31   S    
C33   C35   A    
C53   H37   S    
C54   H40   S    
C49   H24   S    
C42   H1    S    
C10   C11   A    
C3    O15   S    
C7    C13   A    
C4    H12   S    
C52   H33   S    
N2    Zn2   S    
C50   H25   S    
C2    C9    A    
C34   O7    A    
C32   H10   S    
C8    H14   S    
