data_mof_unit_21554.cif
_audit_creation_date              2012-12-10T17:18:54-0500
_audit_creation_method            fapswitch 2.2
_symmetry_space_group_name_H-M    P1
_symmetry_Int_Tables_number       1
_space_group_crystal_system       triclinic
_cell_length_a                    10.264663
_cell_length_b                    10.803746
_cell_length_c                    13.582237
_cell_angle_alpha                 92.931195
_cell_angle_beta                  101.56639
_cell_angle_gamma                 95.700253
_cell_volume                      1464.43780036

loop_
_atom_site_label
_atom_site_type_symbol
_atom_type_description
_atom_site_fract_x
_atom_site_fract_y
_atom_site_fract_z
_atom_type_partial_charge
C1    C     C_R   0.051360 0.731777 0.490884 0.934624
C2    C     C_2   0.995506 0.062502 0.465292 -0.149941
C3    C     C_2   0.433921 0.498164 0.519478 0.512108
C4    C     C_2   0.572778 0.472764 0.506765 0.653902
C5    C     C_R   0.094466 0.512509 0.686133 0.878966
C6    C     C_R   0.904799 0.484211 0.313819 0.884131
C7    C     C_R   0.142513 0.507846 0.794527 -0.084307
C8    C     C_R   0.846661 0.452041 0.207094 -0.047639
C9    C     C_R   0.121013 0.548075 0.967806 0.026777
C10   C     C_R   0.841630 0.334132 0.048488 -0.002946
C11   C     C_R   0.070222 0.549245 0.864232 -0.207380
C12   C     C_R   0.945904 0.267627 0.503330 0.949123
C13   C     C_R   0.910050 0.381664 0.145259 -0.291366
C14   C     C_R   0.262409 0.458865 0.827573 -0.124887
C15   C     C_R   0.716020 0.475723 0.172149 -0.227413
C16   C     C_R   0.309729 0.443638 0.929204 0.078755
C17   C     C_R   0.638374 0.411904 0.085211 0.046808
C18   C     C_R   0.241764 0.493804 0.001181 0.010145
C19   C     C_R   0.702296 0.346330 0.018701 0.105061
C20   C     C_R   0.431575 0.391589 0.960888 -0.003731
C21   C     C_R   0.498808 0.418008 0.061515 -0.134909
C22   C     C_2   0.046482 0.610058 0.035732 0.369487
C23   C     C_R   0.423179 0.449518 0.134465 0.414613
C24   C     C_2   0.921210 0.273595 0.983674 0.365983
C25   C     C_R   0.489265 0.314930 0.896829 0.426288
C26   C     C_R   0.295996 0.485946 0.103577 -0.173276
C27   C     C_R   0.623189 0.291163 0.927620 -0.280741
C28   C     C_2   0.075790 0.862515 0.476202 -0.330446
C29   C     C_2   0.910971 0.134499 0.495880 -0.332103
C30   C     C_2   0.973006 0.930272 0.468212 -0.142375
H1    H     H_    0.241238 0.507162 0.161250 0.222229
H2    H     H_    0.175984 0.903582 0.473428 0.165365
H3    H     H_    0.939343 0.612300 0.011531 0.088559
H4    H     H_    0.009824 0.232307 0.018397 0.083891
H5    H     H_    0.523177 0.367980 0.243593 0.366503
H6    H     H_    0.465832 0.204990 0.774322 0.340373
H7    H     H_    0.521545 0.295919 0.476375 0.333400
H8    H     H_    0.351355 0.624824 0.581594 0.371233
H9    H     H_    0.747013 0.714196 0.593931 0.364986
H10   H     H_    0.238072 0.345505 0.346333 0.367941
H11   H     H_    0.663294 0.228841 0.879721 0.200281
H12   H     H_    0.673033 0.540487 0.216424 0.207528
H13   H     H_    0.321724 0.437590 0.773046 0.226178
H14   H     H_    0.013150 0.364846 0.171935 0.150922
H15   H     H_    0.977441 0.588699 0.837965 0.157001
H16   H     H_    0.087622 0.101079 0.444778 0.196383
H17   H     H_    0.872573 0.889773 0.471156 0.196477
H18   H     H_    0.819191 0.095407 0.516458 0.169159
N1    N     N_2   0.322180 0.446120 0.460900 -0.014843
N2    N     N_2   0.677820 0.553880 0.539100 0.026842
O1    O     O_R   0.935190 0.693030 0.507870 -0.632712
O2    O     O_2   0.895169 0.276180 0.892159 -0.570896
O3    O     O_3   0.465554 0.436739 0.235860 -0.712739
O4    O     O_3   0.410422 0.254250 0.809836 -0.774189
O5    O     O_3   0.593360 0.358833 0.465611 -0.752338
O6    O     O_3   0.429036 0.577980 0.600812 -0.751484
O7    O     O_3   0.656970 0.667358 0.573557 -0.679843
O8    O     O_3   0.331758 0.374150 0.379985 -0.685558
O9    O     O_R   0.064810 0.306970 0.492130 -0.622619
O10   O     O_R   0.142080 0.658430 0.482770 -0.626748
O11   O     O_R   0.857920 0.341570 0.517230 -0.555801
O12   O     O_R   0.969700 0.527180 0.651960 -0.606197
O13   O     O_R   0.030300 0.472820 0.348040 -0.616446
O14   O     O_R   0.176600 0.492580 0.626860 -0.616954
O15   O     O_R   0.823400 0.507420 0.373140 -0.586918
O16   O     O_2   0.103349 0.665463 0.115716 -0.566897
Zn1   Zn    Zn3+2 0.861850 0.523100 0.516760 1.028483
Zn2   Zn    Zn3+2 0.138150 0.476900 0.483240 0.986134

loop_
_geom_bond_atom_site_label_1
_geom_bond_atom_site_label_2
_ccdc_geom_bond_type
C6    O13   A    
C24   O2    D    
C1    C28   S    
C9    C18   A    
C8    C13   A    
C6    O15   A    
N1    Zn2   S    
C12   C29   S    
C25   C27   A    
C19   C27   A    
N2    Zn1   S    
O11   Zn1   S    
C15   H12   S    
N2    O7    S    
C18   C26   A    
C2    C30   S    
C10   C19   A    
C16   C20   A    
H7    O5    S    
C28   C30   D    
C3    N1    D    
C26   H1    S    
O1    Zn1   S    
C2    H16   S    
C7    C11   A    
C12   O11   A    
C9    C11   A    
H5    O3    S    
O12   Zn1   S    
C2    C29   D    
O14   Zn2   S    
C17   C19   A    
C23   C26   A    
C5    O12   A    
C23   O3    S    
C8    C15   A    
C5    C7    S    
C21   C23   A    
C4    O5    S    
C25   O4    S    
O9    Zn2   S    
C14   C16   A    
C9    C22   S    
C11   H15   S    
H10   O8    S    
H6    O4    S    
C20   C25   A    
C29   H18   S    
C3    C4    S    
H9    O7    S    
C30   H17   S    
C28   H2    S    
H8    O6    S    
C20   C21   A    
O10   Zn2   S    
C16   C18   A    
C3    O6    S    
C1    O10   A    
C15   C17   A    
C22   H3    S    
C27   H11   S    
O13   Zn2   S    
C22   O16   D    
C6    C8    S    
C1    O1    A    
C10   C24   S    
C13   H14   S    
C12   O9    A    
C7    C14   A    
C24   H4    S    
N1    O8    S    
C5    O14   A    
C4    N2    D    
C14   H13   S    
O15   Zn1   S    
C10   C13   A    
C17   C21   A    
