data_mof_unit_15320.cif
_audit_creation_date              2012-12-11T16:56:06-0500
_audit_creation_method            fapswitch 2.2
_symmetry_space_group_name_H-M    P1
_symmetry_Int_Tables_number       1
_space_group_crystal_system       triclinic
_cell_length_a                    6.997923
_cell_length_b                    14.588276
_cell_length_c                    16.141892
_cell_angle_alpha                 90.391568
_cell_angle_beta                  89.995751
_cell_angle_gamma                 90.070211
_cell_volume                      1647.84780926

loop_
_atom_site_label
_atom_site_type_symbol
_atom_type_description
_atom_site_fract_x
_atom_site_fract_y
_atom_site_fract_z
_atom_type_partial_charge
O1    O     O_R   0.505830 0.583360 0.413880 -0.540486
O2    O     O_R   0.175830 0.595460 0.585520 -0.542670
O3    O     O_R   0.005520 0.416640 0.586120 -0.539141
C1    C     C_R   0.344974 0.615298 0.615823 0.703785
O4    O     O_R   0.176120 0.594390 0.414490 -0.539391
O5    O     O_R   0.005810 0.415570 0.413870 -0.539718
C2    C     C_R   0.344863 0.615988 0.385974 0.699067
O6    O     O_R   0.505540 0.584430 0.586130 -0.540154
O7    O     O_3   0.339200 0.441330 0.500000 -0.369438
V1    V     V_3+5 0.064350 0.510880 0.500000 1.377667
O8    O     O_R   0.676100 0.404540 0.414480 -0.538267
C3    C     C_R   0.844848 0.383405 0.385213 0.694907
O9    O     O_R   0.675810 0.405610 0.585510 -0.541645
C4    C     C_R   0.844998 0.383546 0.613339 0.732659
V2    V     V_3+5 0.564340 0.489120 0.500000 1.377955
O10   O     O_3   0.839360 0.558670 0.500000 -0.378707
C5    C     C_2   0.721947 0.208778 0.786030 -0.133266
C6    C     C_2   0.885751 0.181591 0.822524 -0.311563
H1    H     H_    0.587189 0.180116 0.806997 0.137991
H2    H     H_    0.022153 0.209585 0.803657 0.127405
C7    C     C_2   0.709466 0.277343 0.718067 -0.138728
C8    C     C_2   0.861448 0.315320 0.680229 -0.309291
H3    H     H_    0.566660 0.296477 0.698370 0.135593
H4    H     H_    0.005347 0.296859 0.698095 0.129888
C9    C     C_R   0.722043 0.187766 0.237686 0.153472
C10   C     C_R   0.880955 0.182997 0.185273 -0.108865
C11   C     C_R   0.034816 0.242136 0.203211 -0.187093
H5    H     H_    0.159641 0.241813 0.163997 0.140064
C12   C     C_R   0.023539 0.306625 0.268526 -0.184865
H6    H     H_    0.140961 0.353697 0.278024 0.132711
C13   C     C_R   0.857541 0.314277 0.317637 -0.121103
C14   C     C_R   0.710396 0.251585 0.301947 0.108524
C15   C     C_3   0.503137 0.267202 0.287157 -0.426482
C16   C     C_3   0.515929 0.197057 0.217254 -0.411294
H7    H     H_    0.474071 0.337900 0.265248 0.167016
H8    H     H_    0.413931 0.243806 0.339960 0.176137
H9    H     H_    0.493672 0.226829 0.154776 0.168061
H10   H     H_    0.434934 0.133037 0.229855 0.170816
C17   C     C_R   0.524554 0.730924 0.702358 0.012658
C18   C     C_R   0.357847 0.680643 0.686718 -0.093029
C19   C     C_R   0.211853 0.687901 0.745805 -0.194376
H11   H     H_    0.090909 0.643543 0.740638 0.143573
C20   C     C_R   0.227236 0.748757 0.813967 -0.192382
H12   H     H_    0.120636 0.750039 0.861277 0.149960
C21   C     C_R   0.382615 0.807938 0.822726 -0.117567
C22   C     C_R   0.534591 0.794003 0.768209 0.063088
C23   C     C_3   0.734766 0.768593 0.789923 0.292077
C24   C     C_3   0.720839 0.694879 0.720888 -0.022102
H13   H     H_    0.819424 0.706020 0.667865 0.130952
C25   C     C_R   0.493326 0.753575 0.317574 0.078654
C26   C     C_R   0.352373 0.685641 0.319642 -0.113525
C27   C     C_R   0.208913 0.690461 0.258370 -0.176643
H14   H     H_    0.091681 0.641980 0.258527 0.116526
C28   C     C_R   0.222448 0.754055 0.192834 -0.194669
H15   H     H_    0.114671 0.752551 0.144699 0.123512
C29   C     C_R   0.377071 0.816465 0.187918 -0.117407
C30   C     C_R   0.501812 0.819343 0.256031 0.007138
C31   C     C_3   0.714016 0.831022 0.265808 -0.167769
C32   C     C_3   0.704192 0.753676 0.331065 -0.059146
H16   H     H_    0.792308 0.810221 0.208726 0.110732
H17   H     H_    0.771110 0.688974 0.308753 0.133160
O11   O     O_R   0.229930 0.912420 0.917160 -0.545093
O12   O     O_R   0.559420 0.902500 0.088780 -0.540336
O13   O     O_R   0.729660 0.081330 0.089380 -0.535836
C33   C     C_R   0.390596 0.881831 0.118106 0.695739
O14   O     O_R   0.559650 0.901420 0.917750 -0.536788
O15   O     O_R   0.729880 0.080250 0.917130 -0.535398
C34   C     C_R   0.391049 0.877655 0.890455 0.705221
O16   O     O_R   0.229700 0.913500 0.089410 -0.541299
O17   O     O_3   0.396250 0.055540 0.003280 -0.369943
V3    V     V_3+5 0.671130 0.986010 0.003260 1.383289
O18   O     O_R   0.059600 0.091310 0.917720 -0.543771
C35   C     C_R   0.890979 0.113032 0.889580 0.743080
O19   O     O_R   0.059370 0.092380 0.088750 -0.542957
C36   C     C_R   0.890368 0.115403 0.116429 0.704873
V4    V     V_3+5 0.171120 0.007820 0.003230 1.375175
O20   O     O_3   0.896130 0.938240 0.003240 -0.382303
C37   C     C_3   0.755747 0.730606 0.879737 -0.699593
H18   H     H_    0.799515 0.784539 0.924331 0.219804
H19   H     H_    0.620938 0.699107 0.902150 0.186141
H20   H     H_    0.864752 0.676251 0.883946 0.175602
C38   C     C_3   0.863973 0.851843 0.768881 -0.758801
H21   H     H_    0.977656 0.833107 0.724274 0.203244
H22   H     H_    0.783472 0.908413 0.738933 0.179773
H23   H     H_    0.928888 0.881941 0.825433 0.230532
C39   C     C_3   0.716257 0.593317 0.749622 -0.744905
H24   H     H_    0.715799 0.546557 0.695669 0.221776
H25   H     H_    0.843432 0.573777 0.785825 0.183056
H26   H     H_    0.588815 0.578768 0.788464 0.213327
C40   C     C_R   0.776591 0.923729 0.300550 0.165190
C41   C     C_R   0.968501 0.950179 0.291507 -0.142556
C42   C     C_R   0.040703 0.026319 0.334222 -0.131506
C43   C     C_R   0.922153 0.076703 0.387012 -0.080997
C44   C     C_R   0.729401 0.053113 0.394675 -0.136264
C45   C     C_R   0.655747 0.978102 0.350734 -0.140537
H27   H     H_    0.063863 0.910329 0.253246 0.123744
H28   H     H_    0.189284 0.045476 0.327288 0.102956
H29   H     H_    0.978699 0.135063 0.420796 0.103504
H30   H     H_    0.636909 0.093038 0.434719 0.108790
H31   H     H_    0.507247 0.959927 0.359639 0.104538
C46   C     C_3   0.759644 0.777372 0.420822 -0.701660
H32   H     H_    0.737919 0.716890 0.460604 0.225580
H33   H     H_    0.912873 0.796985 0.423644 0.210578
H34   H     H_    0.670833 0.833377 0.447053 0.200066

loop_
_geom_bond_atom_site_label_1
_geom_bond_atom_site_label_2
_ccdc_geom_bond_type
O14   C34   A    
O12   C33   A    
C43   C44   A    
C11   C12   A    
C16   H9    S    
C19   H11   S    
O18   V4    S    
C30   C31   S    
C40   C45   A    
C21   C22   A    
C10   C11   A    
C46   H32   S    
O19   V4    S    
C25   C32   S    
O5    C3    A    
C39   H25   S    
O13   V3    S    
C31   H16   S    
V2    O10   S    
C15   H8    S    
C29   C30   A    
O16   V4    S    
C23   C38   S    
C15   H7    S    
C41   H27   S    
C28   H15   S    
O8    V2    S    
O14   V3    S    
O17   V3    S    
O15   C35   A    
O7    V1    S    
C6    H2    S    
C41   C42   A    
C1    O6    A    
C9    C16   S    
C9    C14   A    
C46   H33   S    
O1    C2    A    
C7    C8    D    
C19   C20   A    
O11   V4    S    
C27   C28   A    
C42   H28   S    
C25   C26   A    
C28   C29   A    
C32   H17   S    
O19   C36   A    
C26   C27   A    
C32   C46   S    
C1    C18   S    
V4    O20   S    
C17   C18   A    
O4    C2    A    
C45   H31   S    
C24   C39   S    
C9    C10   A    
C5    C7    S    
C16   H10   S    
O2    C1    A    
C20   H12   S    
C12   H6    S    
C20   C21   A    
C23   C24   S    
C21   C34   S    
C5    C6    D    
C37   H19   S    
C31   C40   S    
O3    C4    A    
C17   C22   A    
O1    V2    S    
C24   H13   S    
O12   V3    S    
O6    V2    S    
C38   H22   S    
O9    V2    S    
C3    C13   S    
O17   V4    S    
C8    H4    S    
O2    V1    S    
V3    O20   S    
C27   H14   S    
C22   C23   S    
C18   C19   A    
C39   H24   S    
C25   C30   A    
C13   C14   A    
O18   C35   A    
C39   H26   S    
O5    V1    S    
O8    C3    A    
C46   H34   S    
C38   H23   S    
O11   C34   A    
C6    C35   S    
C4    C8    S    
C7    H3    S    
C31   C32   S    
C2    C26   S    
O4    V1    S    
C12   C13   A    
O3    V1    S    
V1    O10   S    
C14   C15   S    
C37   H18   S    
C37   H20   S    
C40   C41   A    
C44   H30   S    
C33   O16   A    
C42   C43   A    
C5    H1    S    
O13   C36   A    
C15   C16   S    
O15   V3    S    
O7    V2    S    
C44   C45   A    
C10   C36   S    
C38   H21   S    
C11   H5    S    
C23   C37   S    
O9    C4    A    
C43   H29   S    
C29   C33   S    
C17   C24   S    
