data_mof_unit_20734.cif
_audit_creation_date              2012-12-10T18:47:04-0500
_audit_creation_method            fapswitch 2.2
_symmetry_space_group_name_H-M    P1
_symmetry_Int_Tables_number       1
_space_group_crystal_system       triclinic
_cell_length_a                    10.795492
_cell_length_b                    9.878605
_cell_length_c                    14.941553
_cell_angle_alpha                 89.870295
_cell_angle_beta                  91.166288
_cell_angle_gamma                 89.085423
_cell_volume                      1592.89457029

loop_
_atom_site_label
_atom_site_type_symbol
_atom_type_description
_atom_site_fract_x
_atom_site_fract_y
_atom_site_fract_z
_atom_type_partial_charge
C1    C     C_R   0.260387 0.501136 0.507357 0.875612
C2    C     C_R   0.739613 0.498864 0.492643 0.875611
C3    C     C_R   0.273234 0.502696 0.041733 -0.211065
C4    C     C_R   0.726766 0.497304 0.958267 -0.211065
C5    C     C_R   0.064784 0.379244 0.521958 -0.046170
C6    C     C_R   0.935216 0.620756 0.478042 -0.046170
C7    C     C_R   0.940129 0.374411 0.499608 -0.042265
C8    C     C_R   0.059871 0.625589 0.500391 -0.042265
C9    C     C_R   0.873124 0.496825 0.485613 -0.157647
C10   C     C_R   0.126876 0.503175 0.514387 -0.157647
C11   C     C_R   0.573521 0.070616 0.559289 0.000592
C12   C     C_R   0.426479 0.929384 0.440711 0.000592
C13   C     C_R   0.425707 0.073584 0.441209 -0.000788
C14   C     C_R   0.574293 0.926416 0.558790 -0.000788
C15   C     C_R   0.499285 0.500159 0.327444 0.893945
C16   C     C_R   0.500715 0.499841 0.672555 0.893945
C17   C     C_R   0.615075 0.498112 0.814760 -0.086200
C18   C     C_R   0.384925 0.501888 0.185239 -0.086200
C19   C     C_R   0.501395 0.499478 0.767815 -0.131333
C20   C     C_R   0.498605 0.500521 0.232185 -0.131333
C21   C     C_R   0.387481 0.500716 0.811009 0.009641
C22   C     C_R   0.612519 0.499284 0.188991 0.009641
C23   C     C_R   0.386735 0.500941 0.904148 0.132216
C24   C     C_R   0.613265 0.499059 0.095852 0.132216
C25   C     C_R   0.500480 0.499836 0.953060 0.018739
C26   C     C_R   0.499520 0.500163 0.046939 0.018739
C27   C     C_R   0.615103 0.498380 0.908331 0.074921
C28   C     C_R   0.384897 0.501620 0.091669 0.074921
C29   C     C_R   0.274235 0.502337 0.949241 -0.177245
C30   C     C_R   0.725765 0.497663 0.050759 -0.177245
H1    H     H_    0.186006 0.503194 0.913388 0.178536
H2    H     H_    0.813993 0.496806 0.086612 0.178536
H3    H     H_    0.184041 0.503784 0.073578 0.160136
H4    H     H_    0.815959 0.496216 0.926422 0.160135
N1    N     N_R   0.500000 0.857200 0.500000 -0.127772
N2    N     N_R   0.500000 0.142800 0.500000 -0.127772
O1    O     O_R   0.316770 0.614620 0.499990 -0.618674
O2    O     O_R   0.683230 0.385380 0.500010 -0.618674
O3    O     O_R   0.683230 0.614620 0.500010 -0.615098
O4    O     O_R   0.316770 0.385380 0.499990 -0.615099
O5    O     O_R   0.499980 0.614680 0.367850 -0.619811
O6    O     O_R   0.500020 0.385320 0.632150 -0.619811
O7    O     O_R   0.500020 0.614680 0.632150 -0.620738
O8    O     O_R   0.499980 0.385320 0.367850 -0.620739
Zn1   Zn    Zn3+2 0.500000 0.653120 0.500000 0.981085
Zn2   Zn    Zn3+2 0.500000 0.346880 0.500000 0.981085
C31   C     C_1   0.730570 0.496252 0.766196 0.197004
N3    N     N_1   0.822431 0.494700 0.727545 -0.191893
C32   C     C_1   0.269431 0.503748 0.233804 0.197004
N4    N     N_1   0.177569 0.505300 0.272455 -0.191893
N5    N     N_3   0.272456 0.501752 0.760532 -0.466696
H5    H     H_    0.269974 0.415664 0.719993 0.194329
H6    H     H_    0.268906 0.587609 0.719444 0.192989
N6    N     N_3   0.727544 0.498248 0.239468 -0.466696
H7    H     H_    0.731094 0.412391 0.280556 0.192989
H8    H     H_    0.730025 0.584336 0.280007 0.194329
C33   C     C_1   0.125488 0.257814 0.558334 0.217650
N7    N     N_1   0.173629 0.161594 0.587711 -0.181629
C34   C     C_1   0.874512 0.742186 0.441666 0.217650
N8    N     N_1   0.826371 0.838406 0.412289 -0.181629
C35   C     C_1   0.886287 0.242402 0.483974 0.233353
N9    N     N_1   0.844814 0.136912 0.470633 -0.188879
C36   C     C_1   0.113713 0.757598 0.516026 0.233353
N10   N     N_1   0.155186 0.863088 0.529367 -0.188879
C37   C     C_1   0.650528 0.141839 0.622937 0.254207
N11   N     N_1   0.712932 0.197604 0.674294 -0.193872
C38   C     C_1   0.349471 0.858161 0.377063 0.254207
N12   N     N_1   0.287068 0.802396 0.325705 -0.193872
C39   C     C_1   0.344483 0.147959 0.380352 0.254431
N13   N     N_1   0.278579 0.206367 0.331361 -0.191610
C40   C     C_1   0.655517 0.852041 0.619648 0.254431
N14   N     N_1   0.721420 0.793633 0.668639 -0.191610

loop_
_geom_bond_atom_site_label_1
_geom_bond_atom_site_label_2
_ccdc_geom_bond_type
O4    Zn2   S    
C38   N12   T    
N6    H8    S    
N2    Zn2   S    
C1    O1    A    
C25   C27   A    
C5    C7    A    
C14   C40   S    
C2    O2    A    
C26   C28   A    
C31   N3    T    
C5    C33   S    
O3    Zn1   S    
C40   N14   T    
C6    C9    A    
C23   C25   A    
C20   C22   A    
C34   N8    T    
C22   N6    S    
C12   C38   S    
C36   N10   T    
C12   N1    A    
C30   H2    S    
O7    Zn1   S    
C16   O7    A    
C33   N7    T    
C39   N13   T    
C13   C39   S    
C16   C19   S    
C23   C29   A    
C6    C34   S    
C8    C10   A    
C3    C28   A    
C17   C19   A    
C24   C26   A    
C15   O8    A    
C32   N4    T    
N5    H6    S    
C18   C20   A    
C21   C23   A    
C4    H4    S    
C35   N9    T    
C11   C14   A    
C22   C24   A    
O2    Zn2   S    
C24   C30   A    
C3    H3    S    
C8    C36   S    
O1    Zn1   S    
N5    H5    S    
C17   C27   A    
C16   O6    A    
C21   N5    S    
C4    C27   A    
C18   C28   A    
C12   C13   A    
C15   O5    A    
C13   N2    A    
C3    C29   A    
C37   N11   T    
O6    Zn2   S    
C14   N1    A    
C7    C9    A    
O5    Zn1   S    
N6    H7    S    
C7    C35   S    
C6    C8    A    
C1    O4    A    
C5    C10   A    
C25   C26   A    
C29   H1    S    
C2    C9    S    
C11   C37   S    
C2    O3    A    
C4    C30   A    
C1    C10   S    
C17   C31   S    
C18   C32   S    
O8    Zn2   S    
C15   C20   S    
C19   C21   A    
C11   N2    A    
N1    Zn1   S    
