data_mof_unit_35581.cif
_audit_creation_date              2012-12-10T17:51:24-0500
_audit_creation_method            fapswitch 2.2
_symmetry_space_group_name_H-M    P1
_symmetry_Int_Tables_number       1
_space_group_crystal_system       triclinic
_cell_length_a                    9.953762
_cell_length_b                    10.622479
_cell_length_c                    16.706328
_cell_angle_alpha                 92.56192
_cell_angle_beta                  85.919866
_cell_angle_gamma                 89.293221
_cell_volume                      1759.96924298

loop_
_atom_site_label
_atom_site_type_symbol
_atom_type_description
_atom_site_fract_x
_atom_site_fract_y
_atom_site_fract_z
_atom_type_partial_charge
Br1   Br    Br    0.246031 0.746066 0.641865 -0.525115
C1    C     C_R   0.499781 0.739001 0.497215 0.904956
C2    C     C_R   0.527090 0.450297 0.262526 -0.020209
C3    C     C_R   0.387685 0.861104 0.364199 -0.173495
C4    C     C_R   0.481986 0.496694 0.653083 0.892713
C5    C     C_R   0.334004 0.923406 0.301728 -0.130128
C6    C     C_R   0.335347 0.054346 0.301559 -0.134284
C7    C     C_R   0.390455 0.123332 0.363841 -0.175613
C8    C     C_R   0.444085 0.061760 0.428107 0.099454
C9    C     C_R   0.442497 0.929873 0.428372 0.092555
C10   C     C_R   0.499766 0.871067 0.492163 -0.078970
C11   C     C_R   0.561822 0.938444 0.552224 -0.166999
C12   C     C_R   0.346522 0.447198 0.777599 -0.170635
C13   C     C_R   0.563531 0.066994 0.551878 -0.193226
C14   C     C_R   0.502999 0.127790 0.491543 -0.098072
C15   C     C_R   0.839272 0.629579 0.622388 -0.136591
C16   C     C_R   0.500985 0.260592 0.497492 0.861480
C17   C     C_R   0.889204 0.656777 0.696123 -0.260973
C18   C     C_R   0.025238 0.641848 0.704272 -0.216759
C19   C     C_R   0.112469 0.618622 0.635660 0.295561
C20   C     C_R   0.062354 0.561611 0.563806 0.101762
C21   C     C_R   0.918225 0.563167 0.561290 0.138611
C22   C     C_R   0.936750 0.440538 0.440539 -0.106125
C23   C     C_R   0.425262 0.337332 0.154297 -0.163237
C24   C     C_R   0.079496 0.441463 0.440168 -0.106879
C25   C     C_R   0.517985 0.492640 0.346900 0.816167
C26   C     C_R   0.472046 0.472304 0.738368 -0.029480
C27   C     C_R   0.589586 0.460349 0.778920 -0.224479
C28   C     C_R   0.582289 0.421695 0.857134 -0.144267
C29   C     C_R   0.457064 0.392869 0.895609 0.206171
C30   C     C_R   0.339275 0.407922 0.855880 -0.181370
C31   C     C_R   0.415165 0.392099 0.231132 -0.226562
C32   C     C_R   0.650354 0.450597 0.216321 -0.198013
C33   C     C_R   0.659337 0.398570 0.138115 -0.172403
C34   C     C_R   0.545625 0.345273 0.106165 0.211417
C35   C     C_2   0.444119 0.363105 0.980304 -0.226225
C36   C     C_2   0.547468 0.320877 0.019405 -0.242652
H1    H     H_    0.687593 0.478977 0.750000 0.169325
H2    H     H_    0.739372 0.662114 0.614513 0.203846
H3    H     H_    0.824089 0.697925 0.745355 0.166764
H4    H     H_    0.319996 0.386426 0.266367 0.145181
H5    H     H_    0.063462 0.675868 0.760328 0.181520
H6    H     H_    0.139276 0.392892 0.391400 0.131599
H7    H     H_    0.738813 0.492133 0.240226 0.150202
H8    H     H_    0.642294 0.292116 0.987373 0.146707
H9    H     H_    0.241623 0.389185 0.885506 0.126553
H10   H     H_    0.337384 0.293137 0.131429 0.123795
H11   H     H_    0.254262 0.455024 0.747430 0.161004
H12   H     H_    0.752860 0.405468 0.101321 0.122744
H13   H     H_    0.350209 0.392804 0.013276 0.148756
H14   H     H_    0.674656 0.417698 0.887322 0.125061
H15   H     H_    0.606692 0.891226 0.600277 0.149434
H16   H     H_    0.387454 0.759294 0.360900 0.147625
H17   H     H_    0.292407 0.869854 0.252938 0.137001
H18   H     H_    0.294782 0.102584 0.252670 0.132343
H19   H     H_    0.392350 0.224523 0.360502 0.140641
H20   H     H_    0.609123 0.119523 0.599824 0.156869
H21   H     H_    0.889992 0.391270 0.391987 0.142060
N1    N     N_R   0.857140 0.501200 0.500750 -0.113667
N2    N     N_R   0.142740 0.501280 0.500770 -0.109376
O1    O     O_R   0.385310 0.683220 0.500000 -0.562732
O2    O     O_R   0.614640 0.683250 0.500010 -0.640836
O3    O     O_R   0.371780 0.500010 0.615800 -0.593159
O4    O     O_R   0.601110 0.500030 0.615800 -0.644135
O5    O     O_R   0.385360 0.316750 0.499990 -0.614559
O6    O     O_R   0.614690 0.316780 0.500000 -0.608646
O7    O     O_R   0.398890 0.499970 0.384200 -0.637787
O8    O     O_R   0.628220 0.499990 0.384200 -0.615959
Zn1   Zn    Zn3+2 0.346870 0.499980 0.499990 0.971468
Zn2   Zn    Zn3+2 0.653130 0.500020 0.500010 0.942275

loop_
_geom_bond_atom_site_label_1
_geom_bond_atom_site_label_2
_ccdc_geom_bond_type
C12   H11   S    
C15   C21   A    
C10   C11   A    
C23   C31   A    
C28   C29   A    
C24   N2    A    
C6    H18   S    
C3    H16   S    
C22   H21   S    
C36   H8    S    
C8    C9    A    
C16   O5    A    
C18   C19   A    
C18   H5    S    
C27   H1    S    
C29   C30   A    
C31   H4    S    
C25   O8    A    
C24   H6    S    
C32   C33   A    
C8    C14   A    
C6    C7    A    
O6    Zn2   S    
C20   C21   A    
O7    Zn1   S    
C22   N1    A    
C23   H10   S    
O2    Zn2   S    
C7    H19   S    
C16   O6    A    
C5    C6    A    
N2    Zn1   S    
C5    H17   S    
O5    Zn1   S    
C25   O7    A    
O8    Zn2   S    
C27   C28   A    
C34   C36   S    
C11   C13   A    
C17   C18   A    
O4    Zn2   S    
C22   C24   A    
C2    C31   A    
C23   C34   A    
C9    C10   A    
C1    C10   S    
N1    Zn2   S    
C3    C9    A    
O3    Zn1   S    
C21   N1    A    
C30   H9    S    
C35   H13   S    
C19   C20   A    
C4    O3    A    
C20   N2    A    
C15   C17   A    
C33   C34   A    
C28   H14   S    
O1    Zn1   S    
C26   C27   A    
C14   C16   S    
C13   H20   S    
C2    C32   A    
C13   C14   A    
C35   C36   D    
Br1   C19   S    
C17   H3    S    
C15   H2    S    
C11   H15   S    
C4    C26   S    
C32   H7    S    
C3    C5    A    
C12   C30   A    
C2    C25   S    
C12   C26   A    
C1    O2    A    
C4    O4    A    
C7    C8    A    
C33   H12   S    
C1    O1    A    
C29   C35   S    
