data_mof_unit_26604.cif
_audit_creation_date              2012-12-11T19:09:43-0500
_audit_creation_method            fapswitch 2.2
_symmetry_space_group_name_H-M    P1
_symmetry_Int_Tables_number       1
_space_group_crystal_system       triclinic
_cell_length_a                    8.189994
_cell_length_b                    15.201371
_cell_length_c                    26.988709
_cell_angle_alpha                 99.037655
_cell_angle_beta                  92.54215
_cell_angle_gamma                 81.224073
_cell_volume                      3278.79177546

loop_
_atom_site_label
_atom_site_type_symbol
_atom_type_description
_atom_site_fract_x
_atom_site_fract_y
_atom_site_fract_z
_atom_type_partial_charge
Ba1   Ba    Ba6+2 0.860050 0.456430 0.522540 1.657870
Ba2   Ba    Ba6+2 0.329780 0.543490 0.477450 1.669590
C1    C     C_3   0.688508 0.145593 0.672744 -0.393783
C2    C     C_R   0.057997 0.549118 0.193195 0.603626
C3    C     C_2   0.735371 0.522627 0.270812 -0.081293
C4    C     C_3   0.190023 0.208341 0.655060 0.424269
C5    C     C_3   0.690119 0.515052 0.323928 -0.044205
C6    C     C_1   0.983190 0.479810 0.342475 0.035950
C7    C     C_2   0.024956 0.476251 0.295022 -0.088658
C8    C     C_2   0.895235 0.500591 0.256207 0.195683
C9    C     C_R   0.023444 0.497451 0.103377 -0.089169
C10   C     C_R   0.905094 0.445876 0.114934 -0.020764
C11   C     C_R   0.826854 0.395349 0.075576 -0.111255
C12   C     C_3   0.683585 0.220288 0.641090 0.383753
C13   C     C_R   0.100197 0.549362 0.142810 -0.093216
C14   C     C_2   0.838437 0.521401 0.358829 -0.290914
C15   C     C_2   0.351883 0.482479 0.641774 -0.363084
C16   C     C_3   0.147452 0.163226 0.699112 -0.037261
C17   C     C_R   0.049872 0.431152 0.963024 -0.040626
C18   C     C_R   0.198123 0.560467 0.988959 0.025803
C19   C     C_R   0.141966 0.496418 0.950492 -0.005602
C20   C     C_R   0.019821 0.359234 0.924677 0.386772
C21   C     C_R   0.055169 0.361463 0.874822 -0.083489
C22   C     C_R   0.131890 0.430226 0.861350 -0.087611
C23   C     C_3   0.495867 0.667358 0.630372 0.291736
C24   C     C_R   0.178268 0.497445 0.899127 -0.120833
C25   C     C_R   0.260534 0.565382 0.885538 -0.015573
C26   C     C_R   0.295644 0.563444 0.833939 0.622013
C27   C     C_R   0.167186 0.431042 0.810750 0.572219
C28   C     C_3   0.218116 0.268789 0.414948 0.293611
C29   C     C_2   0.428904 0.441100 0.727415 -0.122123
C30   C     C_3   0.455986 0.419129 0.671630 -0.033578
C31   C     C_1   0.210413 0.526918 0.659729 0.037848
C32   C     C_2   0.171342 0.540277 0.708408 0.357241
C33   C     C_2   0.288233 0.493287 0.744972 0.189305
C34   C     C_3   0.490279 0.688237 0.687343 -0.358233
C35   C     C_R   0.995082 0.439107 0.013333 0.044227
C36   C     C_R   0.065019 0.496851 0.052328 -0.007938
C37   C     C_R   0.175923 0.553718 0.040656 -0.040002
C38   C     C_R   0.868777 0.393252 0.025928 -0.093707
C39   C     C_R   0.220162 0.599088 0.131208 -0.089041
C40   C     C_3   0.248942 0.166832 0.400794 -0.364164
C41   C     C_R   0.269244 0.630953 0.974183 -0.110208
C42   C     C_R   0.302302 0.633550 0.923907 0.140198
C43   C     C_R   0.261982 0.599836 0.081478 0.393580
C44   C     C_R   0.357506 0.178316 0.538213 -0.012096
C45   C     C_3   0.961350 0.741098 0.347626 0.299955
C46   C     C_R   0.580602 0.210014 0.490986 0.072575
C47   C     C_R   0.756095 0.773260 0.488102 -0.268073
C48   C     C_R   0.844848 0.830244 0.468982 0.082121
C49   C     C_R   0.785393 0.922399 0.473501 -0.091884
C50   C     C_R   0.640142 0.960096 0.500822 -0.046946
C51   C     C_R   0.559288 0.901208 0.525108 -0.066841
C52   C     C_3   0.982314 0.735646 0.588294 0.339788
C53   C     C_R   0.575669 0.054672 0.506195 -0.009925
C54   C     C_R   0.427792 0.086816 0.533218 -0.077939
C55   C     C_R   0.353003 0.027928 0.555842 -0.137726
C56   C     C_3   0.932471 0.770204 0.296222 -0.304887
C57   C     C_R   0.423196 0.939300 0.556118 0.422449
C58   C     C_R   0.648376 0.118255 0.484280 -0.121249
C59   C     C_R   0.439530 0.239515 0.519312 -0.272962
C60   C     C_R   0.619089 0.806854 0.517578 0.045004
C61   C     C_3   0.948159 0.836827 0.607254 0.247340
C62   C     C_3   0.712390 0.326243 0.369173 0.302443
C63   C     C_3   0.749442 0.287390 0.314635 -0.365493
C64   C     C_3   0.938959 0.978417 0.586537 0.221260
C65   C     C_3   0.100511 0.222616 0.948582 0.155810
C66   C     C_3   0.944430 0.596852 0.758208 0.245795
C67   C     C_3   0.467847 0.773662 0.366170 0.320578
C68   C     C_3   0.539114 0.580306 0.072104 0.147175
C69   C     C_3   0.385672 0.923102 0.637112 0.224851
C70   C     C_3   0.435977 0.861501 0.343959 -0.131327
C71   C     C_R   0.864641 0.447198 0.165517 0.587538
H1    H     H_    0.745556 0.192560 0.604981 0.065991
H2    H     H_    0.611656 0.384324 0.370809 0.030924
H3    H     H_    0.614089 0.094101 0.654031 0.046466
H4    H     H_    0.843506 0.226098 0.312836 0.134237
H5    H     H_    0.798598 0.336662 0.295425 0.076828
H6    H     H_    0.634931 0.269361 0.294619 0.127713
H7    H     H_    0.551182 0.243330 0.632699 -0.089964
H8    H     H_    0.636645 0.173902 0.710181 0.122423
H9    H     H_    0.373323 0.652234 0.615593 0.005120
H10   H     H_    0.591647 0.607993 0.620014 0.070784
H11   H     H_    0.380788 0.738834 0.698956 0.126848
H12   H     H_    0.343622 0.147209 0.371300 0.138927
H13   H     H_    0.482615 0.626267 0.703431 0.085586
H14   H     H_    0.603882 0.715313 0.702483 0.126943
H15   H     H_    0.817325 0.112967 0.677743 0.104806
H16   H     H_    0.033899 0.672457 0.343021 0.091088
H17   H     H_    0.838733 0.739379 0.363248 -0.040097
H18   H     H_    0.052692 0.770681 0.278846 0.151688
H19   H     H_    0.862273 0.722695 0.271672 0.104134
H20   H     H_    0.860260 0.838848 0.299792 0.099217
H21   H     H_    0.566358 0.778289 0.395675 -0.029618
H22   H     H_    0.352662 0.764013 0.383124 0.115614
H23   H     H_    0.293298 0.134691 0.433964 0.076815
H24   H     H_    0.551185 0.872529 0.327119 0.111416
H25   H     H_    0.339720 0.856265 0.313710 0.136771
H26   H     H_    0.151684 0.453037 0.283708 0.115687
H27   H     H_    0.730131 0.358098 0.082945 0.122831
H28   H     H_    0.511203 0.405027 0.752562 0.086947
H29   H     H_    0.025996 0.306632 0.846656 0.142352
H30   H     H_    0.794515 0.358269 0.997755 0.140720
H31   H     H_    0.637953 0.539889 0.243861 0.111367
H32   H     H_    0.286012 0.636707 0.160982 0.138826
H33   H     H_    0.293522 0.688247 0.000894 0.142200
H34   H     H_    0.132473 0.141913 0.386495 0.131616
H35   H     H_    0.316868 0.178070 0.642939 -0.033721
H36   H     H_    0.827487 0.561099 0.396012 0.071497
H37   H     H_    0.385527 0.481683 0.603231 0.083653
H38   H     H_    0.385566 0.309680 0.522900 0.065003
H39   H     H_    0.241690 0.050847 0.576605 0.089761
H40   H     H_    0.755786 0.098736 0.461240 0.085615
H41   H     H_    0.800751 0.701694 0.482556 0.044892
H42   H     H_    0.858030 0.962919 0.456791 0.064508
H43   H     H_    0.035559 0.202229 0.718126 0.159991
H44   H     H_    0.117823 0.094937 0.685086 0.058692
H45   H     H_    0.869140 0.711648 0.571349 -0.069341
H46   H     H_    0.335596 0.293098 0.427323 0.005732
H47   H     H_    0.129635 0.286187 0.446110 0.083141
H48   H     H_    0.016658 0.999312 0.619711 0.027910
H49   H     H_    0.805868 0.996847 0.595427 -0.006789
H50   H     H_    0.963650 0.016222 0.556420 0.097935
H51   H     H_    0.382266 0.110988 0.719465 0.157925
H52   H     H_    0.323008 0.218667 0.746055 0.227473
H53   H     H_    0.472067 0.943516 0.410168 0.177485
H54   H     H_    0.273547 0.928042 0.398138 0.217440
H55   H     H_    0.222529 0.333081 0.643457 0.135810
H56   H     H_    0.080019 0.721352 0.560028 0.087189
H57   H     H_    0.060760 0.333611 0.678693 0.247845
H58   H     H_    0.164484 0.252089 0.983081 0.036279
H59   H     H_    0.189069 0.201422 0.917308 0.041125
H60   H     H_    0.055591 0.161336 0.956858 0.080650
H61   H     H_    0.300180 0.767117 0.925290 0.173863
H62   H     H_    0.489676 0.707502 0.932164 0.177380
H63   H     H_    0.978760 0.620900 0.797668 0.031840
H64   H     H_    0.929259 0.524543 0.753716 0.068216
H65   H     H_    0.821917 0.634871 0.750423 0.064862
H66   H     H_    0.533973 0.524373 0.040307 0.033883
H67   H     H_    0.817504 0.853967 0.619523 -0.012616
H68   H     H_    0.563600 0.553215 0.108142 0.047862
H69   H     H_    0.644762 0.614746 0.065816 0.079134
H70   H     H_    0.327838 0.993679 0.648207 -0.031022
H71   H     H_    0.521062 0.917210 0.645165 0.023644
H72   H     H_    0.332579 0.882071 0.661013 0.076283
H73   H     H_    0.031232 0.853010 0.640217 0.058571
H74   H     H_    0.825896 0.348198 0.387520 0.021016
N1    N     N_R   0.939692 0.499186 0.204168 -0.423746
N2    N     N_R   0.247643 0.497157 0.797449 -0.435859
N3    N     N_3   0.283241 0.156002 0.735992 -0.501549
N4    N     N_3   0.381072 0.938731 0.381946 -0.516888
N5    N     N_3   0.183527 0.304556 0.672446 -0.479309
N6    N     N_3   0.376986 0.707114 0.912390 -0.434587
O1    O     O_2   0.906490 0.548660 0.619040 -0.441178
O2    O     O_2   0.189170 0.824186 0.467732 -0.462946
O3    O     O_3   0.049638 0.801896 0.378387 -0.629773
O4    O     O_3   0.138490 0.548590 0.558860 -0.509161
O5    O     O_3   0.572560 0.389970 0.472910 -0.493275
O6    O     O_2   0.345680 0.723560 0.528460 -0.424671
O7    O     O_3   0.534746 0.742511 0.611978 -0.626597
O8    O     O_2   0.344097 0.572922 0.328303 -0.455961
O9    O     O_3   0.517811 0.702378 0.327667 -0.623668
O10   O     O_2   0.763868 0.401048 0.175165 -0.599377
O11   O     O_2   0.125433 0.372773 0.778291 -0.610245
O12   O     O_3   0.661818 0.259157 0.392099 -0.634877
O13   O     O_2   0.125847 0.594032 0.227238 -0.597030
O14   O     O_2   0.368723 0.620424 0.821407 -0.554388
O15   O     O_3   0.686290 0.382320 0.585720 -0.473598
O16   O     O_2   0.782572 0.461699 0.675611 -0.496056
O17   O     O_3   0.031958 0.692607 0.629456 -0.638238
O18   O     O_3   0.766706 0.288905 0.667240 -0.581550
O19   O     O_2   0.844020 0.276410 0.471510 -0.461206
O20   O     O_3   0.101490 0.335510 0.560360 -0.479051
O21   O     O_2   0.026847 0.176948 0.519196 -0.485086
O22   O     O_3   0.978158 0.885518 0.569125 -0.649998
O23   O     O_3   0.074270 0.193303 0.615532 -0.610390
O24   O     O_3   0.963614 0.282986 0.934990 -0.656866
O25   O     O_3   0.059625 0.616289 0.725625 -0.633373
O26   O     O_3   0.393277 0.643302 0.074208 -0.657109
O27   O     O_3   0.351906 0.890688 0.586179 -0.604864
O28   O     O_2   0.283210 0.451320 0.380930 -0.468856
O29   O     O_3   0.051220 0.451340 0.441130 -0.496188
O30   O     O_3   0.503420 0.617610 0.414270 -0.491277
O31   O     O_3   0.155099 0.306563 0.372761 -0.635298
O32   O     O_3   0.617160 0.609950 0.527080 -0.492666
O33   O     O_3   0.088220 0.664410 0.439630 -0.492588
P1    P     P_3+3 0.071960 0.575810 0.612130 1.030212
P2    P     P_3+3 0.664360 0.290070 0.457280 0.983558
P3    P     P_3+3 0.143318 0.219373 0.559443 0.929710
P4    P     P_3+3 0.117760 0.424110 0.387870 0.980372
P5    P     P_3+3 0.044196 0.781103 0.440147 0.957986
P6    P     P_3+3 0.673646 0.391902 0.650838 0.971296
P7    P     P_3+3 0.531464 0.722278 0.546365 1.014361
P8    P     P_3+3 0.512322 0.599477 0.348703 0.971722

loop_
_geom_bond_atom_site_label_1
_geom_bond_atom_site_label_2
_ccdc_geom_bond_type
C53   C54   A    
C63   H6    S    
C67   C70   S    
C61   H67   S    
C52   O17   S    
C66   H65   S    
C65   H59   S    
C19   C24   A    
C15   H37   S    
C51   C57   A    
C2    C13   A    
C70   H25   S    
Ba1   O20   S    
C24   C25   A    
C62   O12   S    
C39   H32   S    
C40   H23   S    
C42   N6    S    
C12   H1    S    
Ba1   O5    S    
C17   C19   A    
C56   H20   S    
C22   C24   A    
C32   C33   S    
C35   C38   A    
C36   C37   A    
C68   O26   S    
C55   C57   A    
C21   H29   S    
C52   C61   S    
O18   P6    S    
C2    N1    Am   
O30   P8    S    
C54   C55   A    
C30   P6    S    
Ba1   Ba2   S    
Ba2   O29   S    
C66   O25   S    
O33   P5    S    
C22   C27   A    
C11   C38   A    
C17   C35   A    
C26   O14   D    
H54   N4    S    
C9    C13   A    
C25   C42   A    
H55   N5    S    
C6    P4    S    
Ba2   O6    S    
O17   P1    S    
C1    H8    S    
C21   C22   A    
C64   H49   S    
O15   P6    S    
C47   C60   A    
C12   H7    S    
C7    C8    S    
C61   H73   S    
O23   P3    S    
C50   C53   A    
C37   C43   A    
C4    N5    S    
C47   H41   S    
C3    H31   S    
C68   H66   S    
C7    H26   S    
C53   C58   A    
C56   H18   S    
C45   H16   S    
C27   O11   D    
C66   H64   S    
C15   C31   D    
C20   O24   S    
O16   P6    D    
C10   C71   A    
C14   H36   S    
C46   C58   A    
C70   H24   S    
Ba1   P1    S    
C34   H14   S    
C4    C16   S    
C68   H69   S    
O12   P2    S    
C63   H4    S    
C71   N1    Am   
C49   C50   A    
O4    P1    S    
C66   H63   S    
C17   C20   A    
C67   O9    S    
C13   C39   A    
H53   N4    S    
C31   P1    S    
C67   H21   S    
C65   O24   S    
C16   H43   S    
C3    C5    S    
C18   C37   A    
H61   N6    S    
C6    C7    D    
C44   C59   A    
Ba1   O15   S    
C34   H13   S    
C45   O3    S    
C49   H42   S    
C41   H33   S    
C69   O27   S    
C9    C36   A    
C41   C42   A    
Ba2   O33   S    
C35   C36   A    
C1    H3    S    
O28   P4    D    
C29   C30   S    
Ba2   O5    S    
C70   N4    S    
C58   H40   S    
O9    P8    S    
C23   O7    S    
C31   C32   D    
C64   H48   S    
C48   C49   A    
C40   H12   S    
C18   C19   A    
C5    P8    S    
C61   O22   S    
C48   P5    S    
C16   H44   S    
C1    C12   S    
O2    P5    D    
C5    C14   S    
C69   H72   S    
C52   H45   S    
C62   H74   S    
H57   N5    S    
C23   H9    S    
C45   H17   S    
O31   P4    S    
C64   O22   S    
C32   O25   S    
C44   P3    S    
C59   H38   S    
C29   H28   S    
O7    P7    S    
C18   C41   A    
C50   C51   A    
C69   H70   S    
C40   H34   S    
Ba1   P2    S    
O6    P7    D    
C52   H56   S    
H51   N3    S    
C57   O27   S    
C68   H68   S    
C39   C43   A    
C63   H5    S    
C65   H60   S    
C1    H15   S    
C64   H50   S    
C28   O31   S    
C65   H58   S    
Ba2   P4    S    
O32   P7    S    
C12   O18   S    
C67   H22   S    
O5    P2    S    
C9    C10   A    
C46   P2    S    
Ba1   O32   S    
C33   N2    S    
O1    P1    D    
Ba1   O19   S    
H62   N6    S    
C62   C63   S    
C11   H27   S    
Ba1   O4    S    
Ba2   O32   S    
C3    C8    D    
C71   O10   D    
C38   H30   S    
C46   C59   A    
C28   H47   S    
C34   H11   S    
Ba2   O4    S    
O20   P3    S    
O21   P3    D    
C4    O23   S    
C62   H2    S    
C2    O13   D    
O8    P8    D    
C29   C33   D    
Ba2   O30   S    
Ba1   O1    S    
Ba1   O29   S    
H52   N3    S    
C43   O26   S    
C23   C34   S    
C27   N2    Am   
C55   H39   S    
O3    P5    S    
C26   N2    Am   
C10   C11   A    
C51   C60   A    
C6    C14   D    
C47   C48   A    
C28   H46   S    
C44   C54   A    
C25   C26   A    
C23   H10   S    
C15   C30   S    
C4    H35   S    
C20   C21   A    
C28   C40   S    
O29   P4    S    
C60   P7    S    
C16   N3    S    
C56   H19   S    
Ba2   O28   S    
O19   P2    D    
C8    N1    S    
C69   H71   S    
C45   C56   S    
