data_mof_unit_43620.cif
_audit_creation_date              2013-03-05T16:00:03-0500
_audit_creation_method            fapswitch 2.2
_symmetry_space_group_name_H-M    P1
_symmetry_Int_Tables_number       1
_space_group_crystal_system       triclinic
_cell_length_a                    20.621536
_cell_length_b                    21.054321
_cell_length_c                    14.733528
_cell_angle_alpha                 89.959731
_cell_angle_beta                  127.718283
_cell_angle_gamma                 89.959232
_cell_volume                      5060.11626432

loop_
_atom_site_label
_atom_site_type_symbol
_atom_site_description
_atom_site_fract_x
_atom_site_fract_y
_atom_site_fract_z
_atom_type_partial_charge
O1    O     O_R   0.600040 0.935040 0.546740 -0.553719
O2    O     O_R   0.399960 0.064960 0.453260 -0.539124
O3    O     O_R   0.399960 0.935040 0.453260 -0.553436
O4    O     O_R   0.600040 0.064960 0.546740 -0.539645
O5    O     O_R   0.100040 0.435040 0.546740 -0.554320
O6    O     O_R   0.899960 0.564960 0.453260 -0.543497
O7    O     O_R   0.899960 0.435040 0.453260 -0.554348
O8    O     O_R   0.100040 0.564960 0.546740 -0.545175
O9    O     O_R   0.555010 0.935070 0.653220 -0.579334
O10   O     O_R   0.444990 0.064930 0.346780 -0.595225
O11   O     O_R   0.444990 0.935070 0.346780 -0.581255
O12   O     O_R   0.555010 0.064930 0.653220 -0.595782
O13   O     O_R   0.055010 0.435070 0.653220 -0.579908
O14   O     O_R   0.944990 0.564930 0.346780 -0.578848
O15   O     O_R   0.944990 0.435070 0.346780 -0.582750
O16   O     O_R   0.055010 0.564930 0.653220 -0.596005
C1    C     C_R   0.602314 0.912659 0.630235 0.856637
C2    C     C_R   0.397551 0.087337 0.369524 0.822114
C3    C     C_R   0.398453 0.912234 0.370683 0.856646
C4    C     C_R   0.602473 0.087257 0.630499 0.820712
C5    C     C_R   0.102339 0.412674 0.630259 0.852949
C6    C     C_R   0.897591 0.587364 0.369566 0.835189
C7    C     C_R   0.897846 0.412591 0.369973 0.853561
C8    C     C_R   0.100276 0.588514 0.627823 0.834616
Cu1   Cu    Cu3+1 0.526640 0.000000 0.436960 1.023424
Cu2   Cu    Cu3+1 0.473360 0.000000 0.563040 1.024233
Cu3   Cu    Cu3+1 0.026640 0.500000 0.436960 1.029252
Cu4   Cu    Cu3+1 0.973360 0.500000 0.563040 1.025125
C9    C     C_R   0.654618 0.142695 0.695759 -0.170097
C10   C     C_R   0.340943 0.860595 0.299856 -0.166871
C11   C     C_R   0.345757 0.143122 0.304648 -0.170255
C12   C     C_R   0.662784 0.862958 0.704196 -0.165507
C13   C     C_R   0.149658 0.645226 0.689667 -0.170256
C14   C     C_R   0.838038 0.362493 0.296801 -0.165327
C15   C     C_R   0.845906 0.643209 0.304797 -0.167046
C16   C     C_R   0.162827 0.362976 0.704207 -0.166621
C17   C     C_R   0.727712 0.238532 0.715268 -0.173789
C18   C     C_R   0.247036 0.776033 0.260322 -0.176750
C19   C     C_R   0.273178 0.239303 0.285736 -0.177024
C20   C     C_R   0.764076 0.783347 0.750201 -0.182577
C21   C     C_R   0.220005 0.742256 0.707423 -0.175426
C22   C     C_R   0.738197 0.282038 0.252316 -0.181821
C23   C     C_R   0.773032 0.739250 0.285667 -0.174134
C24   C     C_R   0.264074 0.283332 0.750121 -0.183678
C25   C     C_R   0.690330 0.181445 0.658433 0.336761
C26   C     C_R   0.302466 0.823011 0.334268 0.338839
C27   C     C_R   0.309876 0.181793 0.341848 0.337203
C28   C     C_R   0.704420 0.827261 0.672591 0.340496
C29   C     C_R   0.176595 0.687921 0.644726 0.335990
C30   C     C_R   0.796905 0.326599 0.328970 0.340555
C31   C     C_R   0.809843 0.681775 0.341843 0.335525
C32   C     C_R   0.204558 0.327360 0.672657 0.339387
C33   C     C_R   0.660834 0.160857 0.792093 -0.251383
C34   C     C_R   0.324218 0.849316 0.193948 -0.252445
C35   C     C_R   0.340315 0.161774 0.209096 -0.251598
C36   C     C_R   0.680592 0.852612 0.811105 -0.255084
C37   C     C_R   0.165065 0.658790 0.793981 -0.256806
C38   C     C_R   0.820640 0.351730 0.190271 -0.255819
C39   C     C_R   0.840687 0.661994 0.209471 -0.229815
C40   C     C_R   0.180550 0.352532 0.811041 -0.257127
C41   C     C_R   0.696343 0.218794 0.848111 0.096182
C42   C     C_R   0.269839 0.801563 0.119841 0.098704
C43   C     C_R   0.305473 0.220069 0.153845 0.096701
C44   C     C_R   0.739074 0.807603 0.888687 0.099539
C45   C     C_R   0.201164 0.716134 0.851600 0.099597
C46   C     C_R   0.763034 0.306141 0.113573 0.099655
C47   C     C_R   0.805695 0.720241 0.154125 0.096194
C48   C     C_R   0.239005 0.307489 0.888554 0.099362
C49   C     C_R   0.731263 0.257242 0.809359 0.068956
C50   C     C_R   0.231896 0.764228 0.155398 0.082133
C51   C     C_R   0.270355 0.258450 0.192377 0.070353
C52   C     C_R   0.780209 0.772275 0.855949 0.084457
C53   C     C_R   0.231534 0.756962 0.809103 0.068657
C54   C     C_R   0.722450 0.270603 0.146931 0.084450
C55   C     C_R   0.770282 0.758464 0.192394 0.068975
C56   C     C_R   0.280073 0.272132 0.855743 0.085139
C57   C     C_R   0.700213 0.238523 0.943642 0.090163
C58   C     C_R   0.254745 0.788333 0.013679 0.077752
C59   C     C_R   0.302217 0.240106 0.058963 0.090555
C60   C     C_R   0.754336 0.794297 0.994919 0.077400
C61   C     C_R   0.208578 0.733487 0.950809 0.088212
C62   C     C_R   0.747953 0.292637 0.007525 0.077336
C63   C     C_R   0.802474 0.740336 0.059292 0.089684
C64   C     C_R   0.254292 0.294180 0.994789 0.078162
C65   C     C_R   0.283701 0.828167 0.967862 -0.168371
C66   C     C_R   0.657645 0.206242 0.977048 -0.175443
C67   C     C_R   0.722644 0.832623 0.038508 -0.166419
C68   C     C_R   0.345449 0.208097 0.026358 -0.176467
C69   C     C_R   0.779291 0.331041 0.963523 -0.166148
C70   C     C_R   0.169373 0.698823 0.987244 -0.173216
C71   C     C_R   0.222911 0.332666 0.038636 -0.169454
C72   C     C_R   0.845887 0.708457 0.026865 -0.171415
C73   C     C_R   0.271691 0.812782 0.867106 -0.114203
C74   C     C_R   0.668146 0.222573 0.076371 -0.140836
C75   C     C_R   0.731280 0.815120 0.136155 -0.109025
C76   C     C_R   0.335046 0.224454 0.927071 -0.143463
C77   C     C_R   0.770400 0.313715 0.865697 -0.108604
C78   C     C_R   0.180495 0.714390 0.087232 -0.130156
C79   C     C_R   0.231626 0.315221 0.136368 -0.112991
C80   C     C_R   0.835379 0.724742 0.927475 -0.144680
H1    H     H_    0.241381 0.774701 0.673670 0.211269
H2    H     H_    0.707528 0.254007 0.277643 0.198337
H3    H     H_    0.745209 0.768547 0.313991 0.205100
H4    H     H_    0.295163 0.255477 0.725246 0.197794
H5    H     H_    0.755178 0.267996 0.686609 0.206240
H6    H     H_    0.218390 0.746686 0.287318 0.200975
H7    H     H_    0.245538 0.268701 0.314220 0.204430
H8    H     H_    0.795160 0.755465 0.725350 0.197958
N1    N     N_R   0.433280 0.000000 0.657760 -0.207870
N2    N     N_R   0.566720 0.000000 0.342240 -0.208324
N3    N     N_R   0.933280 0.500000 0.657760 -0.208410
N4    N     N_R   0.066720 0.500000 0.342240 -0.200513
C81   C     C_R   0.320564 0.991170 0.664540 0.246656
C82   C     C_R   0.679492 0.991854 0.335435 0.246264
C83   C     C_R   0.820628 0.490061 0.664485 0.246532
C84   C     C_R   0.179687 0.494585 0.335510 0.247390
C85   C     C_R   0.351983 0.993461 0.603199 0.120734
C86   C     C_R   0.648077 0.993788 0.396807 0.121467
C87   C     C_R   0.852050 0.492910 0.603184 0.122152
C88   C     C_R   0.148286 0.495744 0.396957 0.094084
C89   C     C_R   0.487376 0.002736 0.774753 0.021632
C90   C     C_R   0.512567 0.002581 0.225225 0.020312
C91   C     C_R   0.987293 0.503047 0.774742 0.022762
C92   C     C_R   0.012480 0.501785 0.225179 0.035437
C93   C     C_R   0.460322 0.002731 0.843947 -0.070471
C94   C     C_R   0.539580 0.002780 0.155983 -0.070815
C95   C     C_R   0.960171 0.502796 0.843859 -0.069600
C96   C     C_R   0.039448 0.503032 0.155902 -0.072744
C97   C     C_R   0.374222 0.000325 0.785756 -0.092211
C98   C     C_R   0.625699 0.000960 0.214167 -0.092672
C99   C     C_R   0.874115 0.499394 0.785665 -0.093002
C100  C     C_R   0.125588 0.502976 0.214077 -0.089379
C101  C     C_R   0.515568 0.004598 0.967939 0.055284
C102  C     C_R   0.484303 0.004359 0.031971 0.054862
C103  C     C_R   0.015350 0.505295 0.967814 0.056773
C104  C     C_R   0.984119 0.504096 0.031871 0.054438
C105  C     C_R   0.398708 0.007460 0.969991 -0.313636
C106  C     C_R   0.601100 0.008519 0.029880 -0.315251
C107  C     C_R   0.898470 0.505916 0.969880 -0.313634
C108  C     C_R   0.100710 0.511027 0.029641 -0.318053
C109  C     C_R   0.344473 0.007702 0.850111 0.335815
C110  C     C_R   0.655331 0.008917 0.149764 0.335597
C111  C     C_R   0.844235 0.505960 0.849992 0.335786
C112  C     C_R   0.154929 0.512105 0.149522 0.334849
H9    H     H_    0.294369 0.844825 0.834664 0.181778
H10   H     H_    0.635381 0.195988 0.099878 0.157437
H11   H     H_    0.705325 0.845428 0.166037 0.179276
H12   H     H_    0.368265 0.198067 0.904078 0.156857
H13   H     H_    0.796053 0.344135 0.835516 0.180118
H14   H     H_    0.149922 0.686234 0.112573 0.161835
H15   H     H_    0.206008 0.345687 0.166564 0.178641
H16   H     H_    0.868685 0.698411 0.904568 0.157865
H17   H     H_    0.371360 0.012788 0.012555 0.160980
H18   H     H_    0.628320 0.014439 0.987240 0.160393
H19   H     H_    0.871028 0.510528 0.012428 0.160116
H20   H     H_    0.127624 0.518134 0.986813 0.159131
H21   H     H_    0.356675 0.877515 0.172712 0.167277
H22   H     H_    0.638217 0.128153 0.822978 0.164809
H23   H     H_    0.645737 0.879030 0.830441 0.167611
H24   H     H_    0.362902 0.129155 0.178032 0.165231
H25   H     H_    0.855129 0.378351 0.170585 0.166889
H26   H     H_    0.148573 0.623235 0.829159 0.162139
H27   H     H_    0.145631 0.378871 0.830366 0.168001
H28   H     H_    0.863498 0.629488 0.178579 0.163546
N5    N     N_R   0.322173 0.828946 0.445704 0.133371
O17   O     O_R   0.397833 0.822747 0.537131 -0.318644
O18   O     O_R   0.263929 0.827546 0.456147 -0.298810
N6    N     N_R   0.690443 0.163705 0.564674 0.137358
O19   O     O_R   0.731897 0.114022 0.574573 -0.318640
O20   O     O_R   0.666294 0.204333 0.482987 -0.302817
N7    N     N_R   0.684005 0.831947 0.560557 0.132117
O21   O     O_R   0.608815 0.822554 0.469923 -0.317965
O22   O     O_R   0.742044 0.832837 0.549675 -0.298858
N8    N     N_R   0.308763 0.163505 0.434575 0.137494
O23   O     O_R   0.267331 0.113610 0.423618 -0.318485
O24   O     O_R   0.331994 0.203783 0.516229 -0.303566
N9    N     N_R   0.816941 0.331742 0.440711 0.131838
O25   O     O_R   0.892146 0.322785 0.531749 -0.316967
O26   O     O_R   0.758681 0.332506 0.451147 -0.298424
N10   N     N_R   0.157090 0.679067 0.533927 0.137644
O27   O     O_R   0.080748 0.676195 0.443262 -0.335976
O28   O     O_R   0.213425 0.687648 0.520864 -0.293392
N11   N     N_R   0.184394 0.332255 0.560803 0.133308
O29   O     O_R   0.242608 0.333499 0.550290 -0.300836
O30   O     O_R   0.109325 0.322720 0.469957 -0.315284
N12   N     N_R   0.808648 0.663411 0.434466 0.137804
O31   O     O_R   0.767260 0.613464 0.423420 -0.321076
O32   O     O_R   0.831803 0.703648 0.516145 -0.299702
H29   H     H_    0.313765 0.872890 0.005500 0.151483
H30   H     H_    0.614289 0.168744 0.927060 0.143455
H31   H     H_    0.692193 0.877316 0.000506 0.152730
H32   H     H_    0.389225 0.170819 0.077023 0.144511
H33   H     H_    0.809622 0.375715 0.001230 0.152549
H34   H     H_    0.127667 0.660205 0.938760 0.142209
H35   H     H_    0.192719 0.377464 0.000807 0.152413
H36   H     H_    0.889841 0.671310 0.077710 0.149449
N13   N     N_R   0.259923 0.021985 0.795959 0.162842
O33   O     O_R   0.223147 0.995953 0.833474 -0.313411
O34   O     O_R   0.224704 0.069344 0.724397 -0.276590
N14   N     N_R   0.739619 0.024035 0.203823 0.162503
O35   O     O_R   0.776814 0.998819 0.166315 -0.313446
O36   O     O_R   0.774042 0.071365 0.275311 -0.279157
N15   N     N_R   0.759432 0.519200 0.795780 0.162437
O37   O     O_R   0.723137 0.492369 0.833392 -0.317774
O38   O     O_R   0.723383 0.566447 0.724126 -0.276119
N16   N     N_R   0.238639 0.529176 0.203293 0.161191
O39   O     O_R   0.276578 0.505508 0.165804 -0.313326
O40   O     O_R   0.271517 0.576714 0.274486 -0.290836
H37   H     H_    0.448763 0.004224 0.188559 0.129009
H38   H     H_    0.551180 0.004555 0.811463 0.128276
H39   H     H_    0.948646 0.502187 0.188511 0.124505
H40   H     H_    0.051115 0.505104 0.811568 0.127584
H41   H     H_    0.688649 0.987633 0.488980 0.182570
H42   H     H_    0.311493 0.987234 0.511076 0.182057
H43   H     H_    0.189101 0.490616 0.489345 0.167222
H44   H     H_    0.811656 0.486528 0.511095 0.182226
N17   N     N_R   0.236293 0.973130 0.603552 0.174609
O41   O     O_R   0.180761 0.995529 0.501177 -0.244774
O42   O     O_R   0.217754 0.925333 0.639793 -0.306572
N18   N     N_R   0.763962 0.974232 0.396456 0.175437
O43   O     O_R   0.819239 0.996520 0.498873 -0.244121
O44   O     O_R   0.783050 0.926881 0.360117 -0.300670
N19   N     N_R   0.736615 0.471265 0.603496 0.175563
O45   O     O_R   0.680781 0.493556 0.501151 -0.245635
O46   O     O_R   0.718762 0.422934 0.639608 -0.303169
N20   N     N_R   0.264634 0.478473 0.396691 0.175914
O47   O     O_R   0.319292 0.501240 0.498931 -0.263626
O48   O     O_R   0.285053 0.431938 0.360612 -0.296303

loop_
_geom_bond_atom_site_label_1
_geom_bond_atom_site_label_2
_geom_bond_distance
_ccdc_geom_bond_type
C100  C112  1.418358 A    
C111  N15   1.436589 S    
N15   O37   1.301555 A    
C18   C50   1.399705 A    
C47   C63   1.421719 A    
N5    O17   1.301452 A    
C26   N5    1.435401 S    
C17   C49   1.399622 A    
O2    C2    1.292548 A    
C44   C60   1.422617 A    
C54   C74   1.391424 A    
C107  C111  1.397759 A    
N19   O45   1.301407 A    
C32   N11   1.435500 S    
C53   C73   1.390743 A    
N7    O21   1.301485 A    
N1    C89   1.366173 A    
N2    C86   1.351788 A    
C102  C105  1.407582 A    
C68   C76   1.385560 A    
O4    Cu1   1.946353 S    
C24   H4    1.084685 S    
C12   C28   1.416916 A    
C55   C75   1.392188 A    
C103  C104  1.431739 A    
C5    C16   1.473616 S    
C43   C59   1.421635 A    
C80   H16   1.084566 S    
C88   H43   1.082029 S    
C19   H7    1.084722 S    
C6    C15   1.476903 S    
N7    O22   1.301276 A    
O11   C3    1.300032 A    
C33   H22   1.076291 S    
C17   H5    1.084743 S    
C62   C69   1.415738 A    
C81   C97   1.426157 A    
N3    C87   1.351757 A    
C95   C103  1.445829 A    
N4    C92   1.366238 A    
C60   C67   1.415700 A    
C96   C104  1.445863 A    
C78   H14   1.084675 S    
C59   C64   1.421413 A    
N16   O40   1.301533 A    
N15   O38   1.301501 A    
C11   C35   1.398081 A    
C97   C109  1.418200 A    
O11   Cu1   1.933332 S    
C13   C29   1.415952 A    
C46   C54   1.416139 A    
C22   H2    1.084675 S    
C40   H27   1.075933 S    
C45   C53   1.415269 A    
C42   C50   1.416488 A    
C15   C39   1.398148 A    
C21   C29   1.398034 A    
N13   O34   1.301512 A    
N8    O23   1.300895 A    
C59   C68   1.415393 A    
C58   C65   1.417288 A    
C39   H28   1.076466 S    
C66   C74   1.385521 A    
C39   C47   1.402478 A    
O5    Cu3   1.943241 S    
C105  H17   1.075463 S    
C65   C73   1.385973 A    
C74   H10   1.084607 S    
C38   C46   1.403604 A    
O6    Cu4   1.943240 S    
C37   H26   1.077115 S    
C68   H32   1.077867 S    
C41   C57   1.422468 A    
N14   O35   1.301565 A    
N9    O26   1.301274 A    
C35   C43   1.402484 A    
C36   C44   1.403270 A    
O13   Cu4   1.930314 S    
O3    C3    1.290866 A    
C64   C71   1.415701 A    
O14   Cu3   1.930313 S    
O16   Cu4   1.933329 S    
C16   C32   1.417029 A    
C92   C96   1.430492 A    
C29   N10   1.434788 S    
C90   C94   1.430538 A    
C106  H18   1.075522 S    
O15   C7    1.301062 A    
C56   C76   1.391548 A    
C87   H44   1.081838 S    
N5    O18   1.301256 A    
C11   C27   1.416605 A    
O1    Cu1   1.943241 S    
C82   C98   1.426091 A    
C85   H42   1.081842 S    
C33   C41   1.403042 A    
C60   C63   1.421476 A    
C96   C100  1.423763 A    
C81   N17   1.436105 S    
N18   O43   1.301413 A    
N10   O28   1.301167 A    
O9    Cu2   1.930314 S    
C112  N16   1.436874 S    
C4    C9    1.476989 S    
Cu4   N3    2.010478 S    
C23   C55   1.399714 A    
C103  C108  1.407608 A    
C76   H12   1.084588 S    
C22   C54   1.399263 A    
C66   H30   1.077610 S    
N3    C91   1.366273 A    
C48   C64   1.422442 A    
C36   H23   1.075800 S    
C30   N9    1.435567 S    
C75   H11   1.084306 S    
C106  C110  1.397757 A    
C82   N18   1.436175 S    
N4    C88   1.351912 A    
C84   N20   1.436264 S    
N16   O39   1.301561 A    
C83   C99   1.426243 A    
C34   C42   1.401958 A    
C72   H36   1.077865 S    
N17   O41   1.301409 A    
C79   H15   1.084419 S    
O7    Cu4   1.946355 S    
C84   C88   1.398872 A    
C69   C77   1.386227 A    
C12   C36   1.398236 A    
C104  C107  1.407572 A    
C18   H6    1.084697 S    
N11   O29   1.301298 A    
C89   C93   1.430548 A    
C63   C72   1.415330 A    
C46   C62   1.423039 A    
C28   N7    1.435644 S    
C10   C34   1.397268 A    
C67   H31   1.077724 S    
O15   Cu3   1.933332 S    
C84   C100  1.426146 A    
C107  H19   1.075497 S    
C7    C14   1.473954 S    
C69   H33   1.077480 S    
C91   H40   1.074619 S    
O12   C4    1.300897 A    
N19   O46   1.301348 A    
C90   H37   1.074446 S    
O13   C5    1.301117 A    
C3    C10   1.471961 S    
O2    Cu2   1.943240 S    
C89   H38   1.074492 S    
C73   H9    1.084354 S    
Cu2   N1    2.010478 S    
C40   C48   1.403258 A    
C82   C86   1.398480 A    
Cu1   N2    2.010477 S    
C22   C30   1.396973 A    
C81   C85   1.398352 A    
C61   C70   1.416237 A    
O10   Cu1   1.930313 S    
O9    C1    1.301025 A    
N6    O19   1.300849 A    
C108  H20   1.075674 S    
Cu3   N4    2.010477 S    
N20   O47   1.301413 A    
C65   H29   1.076773 S    
C83   C87   1.398297 A    
C15   C31   1.416570 A    
C101  C102  1.431782 A    
C1    C12   1.473538 S    
N1    C85   1.351749 A    
C47   C55   1.415080 A    
C17   C25   1.397501 A    
C91   C95   1.430633 A    
C99   C111  1.418321 A    
N10   O27   1.301384 A    
C72   C80   1.385576 A    
C19   C27   1.397890 A    
C52   C80   1.391550 A    
C93   C101  1.445836 A    
C70   H34   1.077573 S    
C20   C28   1.396957 A    
C105  C109  1.397677 A    
C67   C75   1.386719 A    
C35   H24   1.076530 S    
C13   C37   1.395664 A    
C20   C52   1.399179 A    
C110  N14   1.436685 S    
C10   C26   1.416109 A    
O3    Cu2   1.946355 S    
C77   H13   1.084290 S    
C108  C112  1.397892 A    
C37   C45   1.400702 A    
C16   C40   1.398221 A    
C24   C32   1.396855 A    
C57   C66   1.415559 A    
C14   C30   1.416892 A    
C109  N13   1.436590 S    
C92   H39   1.074501 S    
N17   O42   1.301364 A    
C71   H35   1.077820 S    
O1    C1    1.290792 A    
C8    C13   1.470007 S    
C20   H8    1.084660 S    
N18   O44   1.301382 A    
C41   C49   1.415292 A    
O14   C6    1.300866 A    
C95   C99   1.424101 A    
N11   O30   1.301474 A    
Cu1   Cu2   2.674904 S    
C31   N12   1.432784 S    
C71   C79   1.386776 A    
N2    C90   1.366173 A    
C34   H21   1.074680 S    
C48   C56   1.416194 A    
C58   C61   1.421939 A    
C23   C31   1.397904 A    
C42   C58   1.423390 A    
C9    C33   1.398366 A    
C57   C62   1.422149 A    
O10   C2    1.300959 A    
O7    C7    1.290932 A    
N6    O20   1.301076 A    
O8    C8    1.291067 A    
N8    O24   1.301095 A    
C21   H1    1.084644 S    
C86   H41   1.081859 S    
C44   C52   1.416220 A    
C51   C79   1.392249 A    
N13   O33   1.301572 A    
C98   C110  1.418172 A    
C25   N6    1.432637 S    
C23   H3    1.084720 S    
C18   C26   1.396868 A    
C27   N8    1.432808 S    
C83   N19   1.436047 S    
C21   C53   1.400596 A    
O4    C4    1.292633 A    
C93   C97   1.423983 A    
C101  C106  1.407646 A    
O5    C5    1.290721 A    
C94   C102  1.445816 A    
O16   C8    1.298336 A    
N9    O25   1.301471 A    
O12   Cu2   1.933329 S    
Cu3   Cu4   2.674904 S    
C14   C38   1.398283 A    
O8    Cu3   1.946353 S    
C94   C98   1.423833 A    
C45   C61   1.421551 A    
C2    C11   1.476956 S    
C24   C56   1.399055 A    
N12   O31   1.300900 A    
C38   H25   1.075565 S    
N12   O32   1.301084 A    
C43   C51   1.415135 A    
C70   C78   1.384799 A    
N14   O36   1.301519 A    
C9    C25   1.416374 A    
N20   O48   1.301461 A    
C50   C78   1.390598 A    
C49   C77   1.391813 A    
C19   C51   1.399693 A    
O6    C6    1.292635 A    
