data_mof_unit_27400.cif
_audit_creation_date              2012-12-11T14:43:57-0500
_audit_creation_method            fapswitch 2.2
_symmetry_space_group_name_H-M    P1
_symmetry_Int_Tables_number       1
_space_group_crystal_system       triclinic
_cell_length_a                    19.049465
_cell_length_b                    10.868446
_cell_length_c                    18.859141
_cell_angle_alpha                 89.928313
_cell_angle_beta                  90.113579
_cell_angle_gamma                 89.908191
_cell_volume                      3904.54461872

loop_
_atom_site_label
_atom_site_type_symbol
_atom_type_description
_atom_site_fract_x
_atom_site_fract_y
_atom_site_fract_z
_atom_type_partial_charge
C1    C     C_R   0.727785 0.371681 0.143593 0.546291
C2    C     C_R   0.272285 0.371392 0.856457 0.550476
C3    C     C_R   0.227781 0.871669 0.143589 0.546279
C4    C     C_R   0.772291 0.871378 0.856462 0.550473
C5    C     C_R   0.509575 0.392193 0.926534 -0.104706
C6    C     C_R   0.490692 0.392595 0.072921 -0.104861
C7    C     C_R   0.009575 0.892196 0.926530 -0.104775
C8    C     C_R   0.990703 0.892595 0.072917 -0.104936
C9    C     C_R   0.006021 0.003304 0.963253 -0.164006
C10   C     C_R   0.994222 0.003509 0.035862 -0.163875
C11   C     C_R   0.506022 0.503300 0.963258 -0.163978
C12   C     C_R   0.494216 0.503507 0.035865 -0.163849
C13   C     C_R   0.694584 0.859603 0.039353 0.140099
C14   C     C_R   0.305459 0.859237 0.960758 0.139156
C15   C     C_R   0.194604 0.359573 0.039358 0.140069
C16   C     C_R   0.805452 0.359243 0.960761 0.139154
C17   C     C_R   0.699719 0.852711 0.965456 -0.117485
C18   C     C_R   0.300379 0.852636 0.034673 -0.117439
C19   C     C_R   0.199729 0.352670 0.965460 -0.117488
C20   C     C_R   0.800377 0.352637 0.034675 -0.117430
C21   C     C_R   0.760507 0.893890 0.931317 -0.000688
C22   C     C_R   0.239627 0.894384 0.068763 0.000134
C23   C     C_R   0.260493 0.393935 0.931308 -0.000698
C24   C     C_R   0.739640 0.394428 0.068773 0.000139
C25   C     C_R   0.817517 0.935110 0.971402 -0.140546
C26   C     C_R   0.182640 0.936037 0.028652 -0.139810
C27   C     C_R   0.317485 0.435269 0.971379 -0.140535
C28   C     C_R   0.682664 0.436151 0.028671 -0.139794
C29   C     C_R   0.812959 0.943965 0.043506 -0.164683
C30   C     C_R   0.187119 0.944446 0.956532 -0.164047
C31   C     C_R   0.312941 0.444105 0.043483 -0.164654
C32   C     C_R   0.687135 0.444547 0.956550 -0.164031
C33   C     C_R   0.750844 0.913562 0.078064 0.041803
C34   C     C_R   0.249193 0.913454 0.921988 0.041282
C35   C     C_R   0.250849 0.413598 0.078057 0.041824
C36   C     C_R   0.749194 0.413492 0.921998 0.041278
C37   C     C_R   0.463321 0.060035 0.449923 -0.129483
C38   C     C_R   0.443667 0.057708 0.520668 -0.131135
C39   C     C_R   0.963326 0.560030 0.449925 -0.129486
C40   C     C_R   0.943671 0.557704 0.520670 -0.131136
C41   C     C_R   0.452584 0.162001 0.563142 0.030517
C42   C     C_R   0.493307 0.166492 0.420645 0.026790
C43   C     C_R   0.952582 0.662001 0.563142 0.030516
C44   C     C_R   0.993305 0.666491 0.420645 0.026788
C45   C     C_R   0.530957 0.155820 0.146786 0.540819
C46   C     C_R   0.469006 0.155645 0.853230 0.552094
C47   C     C_R   0.030960 0.655819 0.146784 0.540809
C48   C     C_R   0.969007 0.655645 0.853229 0.552089
C49   C     C_R   0.476877 0.271917 0.532492 -0.133048
C50   C     C_R   0.497348 0.274041 0.461544 -0.138945
C51   C     C_R   0.976867 0.771920 0.532488 -0.133038
C52   C     C_R   0.997339 0.774044 0.461541 -0.138939
C53   C     C_R   0.814141 0.950731 0.459746 -0.136387
C54   C     C_R   0.212678 0.026191 0.526921 -0.125082
C55   C     C_R   0.314146 0.450696 0.459741 -0.136393
C56   C     C_R   0.712672 0.526185 0.526922 -0.125082
C57   C     C_R   0.817870 0.944643 0.532235 -0.133664
C58   C     C_R   0.211418 0.012322 0.454449 -0.136400
C59   C     C_R   0.317877 0.444604 0.532230 -0.133661
C60   C     C_R   0.711413 0.512318 0.454450 -0.136400
C61   C     C_R   0.760099 0.903562 0.571868 0.034762
C62   C     C_R   0.249003 0.916457 0.423312 0.030495
C63   C     C_R   0.260102 0.403553 0.571866 0.034759
C64   C     C_R   0.749003 0.416459 0.423312 0.030499
C65   C     C_R   0.698102 0.868732 0.537483 -0.142448
C66   C     C_R   0.292225 0.839934 0.465041 -0.137513
C67   C     C_R   0.198100 0.368749 0.537485 -0.142459
C68   C     C_R   0.792230 0.339942 0.465039 -0.137509
C69   C     C_R   0.693425 0.879325 0.464178 -0.137465
C70   C     C_R   0.294212 0.855072 0.538115 -0.152276
C71   C     C_R   0.193420 0.379344 0.464181 -0.137469
C72   C     C_R   0.794217 0.355079 0.538114 -0.152273
C73   C     C_R   0.751139 0.923448 0.425369 0.031846
C74   C     C_R   0.253092 0.946564 0.569355 0.035173
C75   C     C_R   0.251138 0.423443 0.425368 0.031839
C76   C     C_R   0.753092 0.446563 0.569355 0.035175
C77   C     C_R   0.741322 0.967045 0.148145 0.552912
C78   C     C_R   0.258687 0.966878 0.851850 0.557582
C79   C     C_R   0.241323 0.467049 0.148144 0.552919
C80   C     C_R   0.758687 0.466884 0.851852 0.557572
C81   C     C_R   0.729949 0.378592 0.352314 0.548368
C82   C     C_R   0.271882 0.375533 0.646055 0.541876
C83   C     C_R   0.229949 0.878592 0.352314 0.548371
C84   C     C_R   0.771881 0.875535 0.646056 0.541881
C85   C     C_R   0.530881 0.157326 0.353100 0.547232
C86   C     C_R   0.436073 0.153343 0.638838 0.561497
C87   C     C_R   0.030881 0.657326 0.353100 0.547232
C88   C     C_R   0.936073 0.653342 0.638838 0.561499
C89   C     C_R   0.741462 0.970288 0.354155 0.543447
C90   C     C_R   0.259583 0.975607 0.643933 0.537916
C91   C     C_R   0.241461 0.470288 0.354155 0.543445
C92   C     C_R   0.759583 0.475607 0.643933 0.537918
C93   C     C_R   0.497059 0.164593 0.925625 -0.000062
C94   C     C_R   0.502732 0.164919 0.074445 0.001324
C95   C     C_R   0.997066 0.664594 0.925620 -0.000053
C96   C     C_R   0.002744 0.664916 0.074440 0.001337
C97   C     C_R   0.501686 0.278560 0.962300 0.030692
C98   C     C_R   0.498393 0.278751 0.037462 0.031867
C99   C     C_R   0.001692 0.778561 0.962296 0.030662
C100  C     C_R   0.998402 0.778751 0.037457 0.031841
C101  C     C_R   0.499977 0.054514 0.036533 -0.147379
C102  C     C_R   0.499273 0.054338 0.963864 -0.148052
C103  C     C_R   1.000000 0.554510 0.036526 -0.147377
C104  C     C_R   0.999290 0.554337 0.963858 -0.148051
Cr1   Cr    Cr6+3 0.772000 0.169640 0.250110 1.005372
Cr2   Cr    Cr6+3 0.228000 0.169640 0.749890 1.006166
Cr3   Cr    Cr6+3 0.272000 0.669640 0.250110 1.005358
Cr4   Cr    Cr6+3 0.728000 0.669640 0.749890 1.006164
Cr5   Cr    Cr6+3 0.614960 0.323350 0.249260 0.999432
Cr6   Cr    Cr6+3 0.385040 0.323350 0.750740 0.996387
Cr7   Cr    Cr6+3 0.114960 0.823350 0.249260 0.999422
Cr8   Cr    Cr6+3 0.885040 0.823350 0.750740 0.996376
Cr9   Cr    Cr6+3 0.616670 0.010620 0.250840 1.012019
Cr10  Cr    Cr6+3 0.383330 0.010620 0.749160 1.010116
Cr11  Cr    Cr6+3 0.116670 0.510620 0.250840 1.012054
Cr12  Cr    Cr6+3 0.883330 0.510620 0.749160 1.010138
H1    H     H_    0.501497 0.966094 0.063008 0.140169
H2    H     H_    0.497365 0.965835 0.937651 0.140714
H3    H     H_    0.001531 0.466086 0.062998 0.140171
H4    H     H_    0.997384 0.465832 0.937644 0.140702
H5    H     H_    0.859561 0.984231 0.431130 0.127777
H6    H     H_    0.182360 0.100718 0.549541 0.136430
H7    H     H_    0.359568 0.484177 0.431122 0.127778
H8    H     H_    0.682349 0.600706 0.549543 0.136422
H9    H     H_    0.867247 0.969537 0.556819 0.130145
H10   H     H_    0.178083 0.072527 0.423200 0.123792
H11   H     H_    0.367259 0.469475 0.556812 0.130151
H12   H     H_    0.678074 0.572519 0.423202 0.123789
H13   H     H_    0.653697 0.833853 0.567081 0.122518
H14   H     H_    0.321313 0.764318 0.441889 0.135944
H15   H     H_    0.153691 0.333891 0.567086 0.122521
H16   H     H_    0.821323 0.264332 0.441887 0.135934
H17   H     H_    0.643965 0.858451 0.438480 0.130482
H18   H     H_    0.327154 0.795384 0.570058 0.118045
H19   H     H_    0.143956 0.358493 0.438485 0.130494
H20   H     H_    0.827164 0.295395 0.570056 0.118041
H21   H     H_    0.520918 0.396745 0.870489 0.133135
H22   H     H_    0.479409 0.397468 0.128965 0.129552
H23   H     H_    0.020914 0.896750 0.870483 0.133149
H24   H     H_    0.979422 0.897470 0.128962 0.129569
H25   H     H_    0.011847 0.089541 0.935126 0.104106
H26   H     H_    0.988424 0.089910 0.063735 0.103074
H27   H     H_    0.511854 0.589536 0.935132 0.104074
H28   H     H_    0.488414 0.589908 0.063737 0.103036
H29   H     H_    0.656950 0.813568 0.934994 0.117267
H30   H     H_    0.343136 0.813192 0.065187 0.116509
H31   H     H_    0.156975 0.313448 0.935011 0.117302
H32   H     H_    0.843125 0.313149 0.065183 0.116542
H33   H     H_    0.866765 0.959104 0.947278 0.162556
H34   H     H_    0.133451 0.960613 0.052766 0.162545
H35   H     H_    0.366714 0.459356 0.947246 0.162529
H36   H     H_    0.633486 0.460778 0.052789 0.162522
H37   H     H_    0.856850 0.983254 0.071773 0.146346
H38   H     H_    0.143222 0.983972 0.928220 0.146922
H39   H     H_    0.356821 0.483461 0.071736 0.146359
H40   H     H_    0.643242 0.484107 0.928247 0.146927
H41   H     H_    0.458749 0.976135 0.419312 0.128063
H42   H     H_    0.423832 0.972855 0.542946 0.128977
H43   H     H_    0.958759 0.476127 0.419316 0.128064
H44   H     H_    0.923842 0.472847 0.542949 0.128975
H45   H     H_    0.483149 0.354472 0.563919 0.126529
H46   H     H_    0.520233 0.357324 0.440144 0.128535
H47   H     H_    0.983132 0.854479 0.563914 0.126530
H48   H     H_    0.020218 0.857330 0.440140 0.128531
O1    O     O_R   0.787540 0.042690 0.170470 -0.537252
O2    O     O_R   0.212460 0.042690 0.829530 -0.533521
O3    O     O_R   0.287540 0.542690 0.170470 -0.537281
O4    O     O_R   0.712460 0.542690 0.829530 -0.533533
O5    O     O_R   0.556540 0.252920 0.323970 -0.505142
O6    O     O_R   0.443460 0.252920 0.676030 -0.507767
O7    O     O_R   0.056540 0.752920 0.323970 -0.505137
O8    O     O_R   0.943460 0.752920 0.676030 -0.507763
O9    O     O_R   0.545870 0.051100 0.330840 -0.527340
O10   O     O_R   0.454130 0.051100 0.669160 -0.516963
O11   O     O_R   0.045870 0.551100 0.330840 -0.527338
O12   O     O_R   0.954130 0.551100 0.669160 -0.516965
O13   O     O_R   0.681340 0.959300 0.325510 -0.512429
O14   O     O_R   0.318660 0.959300 0.674490 -0.529908
O15   O     O_R   0.181340 0.459300 0.325510 -0.512428
O16   O     O_R   0.818660 0.459300 0.674490 -0.529899
O17   O     O_3   0.667880 0.167870 0.250070 -0.238251
O18   O     O_3   0.332120 0.167870 0.749930 -0.263360
O19   O     O_3   0.167880 0.667870 0.250070 -0.238258
O20   O     O_3   0.832120 0.667870 0.749930 -0.263367
O21   O     O_R   0.765660 0.292160 0.175050 -0.501463
O22   O     O_R   0.234340 0.292160 0.824950 -0.497604
O23   O     O_R   0.265660 0.792160 0.175050 -0.501462
O24   O     O_R   0.734340 0.792160 0.824950 -0.497602
O25   O     O_R   0.670190 0.408980 0.168550 -0.537112
O26   O     O_R   0.329810 0.408980 0.831450 -0.534517
O27   O     O_R   0.170190 0.908980 0.168550 -0.537133
O28   O     O_R   0.829810 0.908980 0.831450 -0.534533
O29   O     O_R   0.556580 0.251450 0.175160 -0.512216
O30   O     O_R   0.443420 0.251450 0.824840 -0.506723
O31   O     O_R   0.056580 0.751450 0.175160 -0.512228
O32   O     O_R   0.943420 0.751450 0.824840 -0.506740
O33   O     O_R   0.545920 0.049510 0.170320 -0.510844
O34   O     O_R   0.454080 0.049510 0.829680 -0.505231
O35   O     O_R   0.045920 0.549510 0.170320 -0.510846
O36   O     O_R   0.954080 0.549510 0.829680 -0.505233
O37   O     O_R   0.681390 0.957840 0.176710 -0.472745
O38   O     O_R   0.318610 0.957840 0.823290 -0.471270
O39   O     O_R   0.181390 0.457840 0.176710 -0.472714
O40   O     O_R   0.818610 0.457840 0.823290 -0.471234
O41   O     O_R   0.787500 0.044280 0.330990 -0.529463
O42   O     O_R   0.212500 0.044280 0.669010 -0.525020
O43   O     O_R   0.287500 0.544280 0.330990 -0.529460
O44   O     O_R   0.712500 0.544280 0.669010 -0.525021
O45   O     O_R   0.765610 0.293630 0.323860 -0.506258
O46   O     O_R   0.234390 0.293630 0.676140 -0.506168
O47   O     O_R   0.265610 0.793630 0.323860 -0.506257
O48   O     O_R   0.734390 0.793630 0.676140 -0.506166
O49   O     O_R   0.670140 0.410570 0.329080 -0.525286
O50   O     O_R   0.329860 0.410570 0.670920 -0.537283
O51   O     O_R   0.170140 0.910570 0.329080 -0.525281
O52   O     O_R   0.829860 0.910570 0.670920 -0.537280
N1    N     N_2   0.631763 0.818384 0.072921 -0.493936
H49   H     H_    0.588787 0.808665 0.040026 0.223199
C105  C     C_3   0.638964 0.719593 0.124255 -0.258224
H50   H     H_    0.607816 0.639135 0.107128 0.118009
H51   H     H_    0.617738 0.749987 0.176095 0.160778
H52   H     H_    0.694536 0.690360 0.131367 0.145839
N2    N     N_2   0.368210 0.817418 0.927211 -0.495706
H53   H     H_    0.411165 0.807064 0.960109 0.222991
C106  C     C_3   0.360839 0.718980 0.875838 -0.255966
H54   H     H_    0.391826 0.638093 0.892948 0.118671
H55   H     H_    0.382132 0.749400 0.824013 0.163005
H56   H     H_    0.305223 0.690388 0.868708 0.147894
N3    N     N_2   0.131807 0.318286 0.072943 -0.493952
H57   H     H_    0.088816 0.308562 0.040066 0.223204
C107  C     C_3   0.139061 0.219465 0.124254 -0.258238
H58   H     H_    0.107918 0.139010 0.107130 0.118117
H59   H     H_    0.117868 0.249804 0.176117 0.160740
H60   H     H_    0.194638 0.190254 0.131322 0.145827
N4    N     N_2   0.868189 0.317385 0.927206 -0.495719
H61   H     H_    0.911157 0.307040 0.960091 0.222997
C108  C     C_3   0.860793 0.218938 0.875845 -0.255920
H62   H     H_    0.891679 0.137976 0.893015 0.118806
H63   H     H_    0.882176 0.249272 0.824040 0.162902
H64   H     H_    0.805161 0.190503 0.868645 0.147891

loop_
_geom_bond_atom_site_label_1
_geom_bond_atom_site_label_2
_ccdc_geom_bond_type
C58   C62   A    
Cr9   O13   S    
C62   C83   S    
C90   O14   A    
Cr7   O27   S    
C101  C102  A    
C56   C76   A    
C48   C95   S    
C55   C59   A    
C83   O51   A    
C50   H46   S    
C14   C18   A    
C17   H29   S    
N2    H53   S    
C72   C76   A    
C33   C77   S    
C97   C98   A    
C52   H48   S    
Cr8   O20   S    
C71   C75   A    
C66   C70   A    
C85   O5    A    
C15   C19   A    
C41   C86   S    
N3    H57   S    
C57   C61   A    
C7    C99   A    
C48   O36   A    
C88   O8    A    
C43   C88   S    
C56   H8    S    
C47   O31   A    
C69   C73   A    
Cr6   O50   S    
Cr7   O51   S    
C5    C11   A    
Cr5   O49   S    
C64   C68   A    
C57   H9    S    
C84   O48   A    
Cr12  O36   S    
C95   C99   A    
C46   O34   A    
Cr8   O28   S    
C94   C98   A    
Cr1   O21   S    
Cr2   O46   S    
C29   C33   A    
C106  H56   S    
Cr1   O45   S    
C25   H33   S    
Cr4   O44   S    
C10   H26   S    
C37   H41   S    
C37   C42   A    
C68   H16   S    
C4    O28   A    
C53   C73   A    
Cr8   O32   S    
Cr11  O11   S    
C92   O16   A    
Cr1   O17   S    
Cr12  O40   S    
C54   C74   A    
Cr9   O33   S    
C84   O52   A    
C40   C43   A    
C89   O41   A    
C20   C24   A    
C94   C101  A    
Cr5   O25   S    
Cr10  O14   S    
C91   O15   A    
C70   C74   A    
C85   O9    A    
N4    H61   S    
Cr10  O38   S    
C51   H47   S    
Cr9   O37   S    
C44   C87   S    
C66   H14   S    
C9    C10   A    
C34   C78   S    
Cr3   O43   S    
C102  H2    S    
C75   C91   S    
C55   C75   A    
C44   C52   A    
C54   H6    S    
C14   C34   A    
C82   O50   A    
C108  H62   S    
C48   O32   A    
C45   O29   A    
N4    C108  S    
C47   O35   A    
C71   H19   S    
Cr3   O47   S    
C45   C94   S    
C6    C12   A    
C41   C49   A    
Cr4   O48   S    
C83   O47   A    
Cr5   O5    S    
C60   C64   A    
C46   O30   A    
Cr3   O3    S    
C23   C27   A    
C25   C29   A    
C18   C22   A    
C81   O49   A    
C78   O2    A    
C30   C34   A    
C63   C82   S    
C27   C31   A    
C51   C52   A    
C6    C98   A    
C24   C28   A    
Cr6   O30   S    
C28   C32   A    
C62   C66   A    
Cr2   O22   S    
C38   C41   A    
C36   C80   S    
C47   C96   S    
C105  H50   S    
C53   C57   A    
C16   N4    S    
C78   O38   A    
N1    H49   S    
Cr10  O18   S    
Cr11  O35   S    
Cr6   O26   S    
C19   H31   S    
C12   H28   S    
Cr11  O39   S    
C68   C72   A    
C86   O10   A    
C6    H22   S    
C32   H40   S    
C19   C23   A    
C17   C21   A    
C2    O22   A    
C63   C67   A    
C13   C33   A    
C37   C38   A    
C92   O44   A    
C3    O27   A    
C105  H51   S    
C72   H20   S    
C14   N2    S    
C93   C97   A    
C65   H13   S    
C99   C100  A    
C60   H12   S    
C16   C20   A    
C26   H34   S    
C87   O7    A    
C40   H44   S    
Cr7   O19   S    
C106  H54   S    
C107  H59   S    
C42   C85   S    
Cr5   O29   S    
C38   H42   S    
C45   O33   A    
C67   H15   S    
C76   C92   S    
Cr6   O6    S    
Cr12  O12   S    
C107  H58   S    
C42   C50   A    
C26   C30   A    
C30   H38   S    
C89   O13   A    
C108  H63   S    
C22   C26   A    
C49   C50   A    
C31   C35   A    
C31   H39   S    
C96   C103  A    
Cr9   O17   S    
C55   H7    S    
Cr2   O2    S    
C103  C104  A    
C95   C104  A    
Cr9   O9    S    
C54   C58   A    
Cr5   O17   S    
C59   C63   A    
C7    C9    A    
C21   C25   A    
C69   H17   S    
C39   H43   S    
C86   O6    A    
C49   H45   S    
Cr4   O24   S    
C103  H3    S    
C2    O26   A    
C27   H35   S    
C3    C22   S    
C18   H30   S    
C61   C84   S    
C77   O37   A    
C93   C102  A    
Cr2   O42   S    
Cr11  O19   S    
C11   C12   A    
C32   C36   A    
C58   H10   S    
C39   C44   A    
Cr1   O41   S    
C1    O21   A    
N1    C105  S    
C87   O11   A    
C96   C100  A    
C77   O1    A    
C79   O39   A    
C88   O12   A    
C13   C17   A    
C8    H24   S    
C79   O3    A    
C74   C90   S    
C28   H36   S    
Cr12  O16   S    
Cr4   O20   S    
C8    C100  A    
C29   H37   S    
C101  H1    S    
C5    H21   S    
N3    C107  S    
C53   H5    S    
C16   C36   A    
C105  H52   S    
C7    H23   S    
C4    C21   S    
N2    C106  S    
C13   N1    S    
C43   C51   A    
C20   H32   S    
Cr8   O8    S    
C46   C93   S    
C11   H27   S    
C65   C69   A    
Cr12  O20   S    
C35   C79   S    
C91   O43   A    
C106  H55   S    
Cr1   O1    S    
C5    C97   A    
C107  H60   S    
C67   C71   A    
Cr8   O52   S    
Cr4   O4    S    
Cr11  O15   S    
C64   C81   S    
C15   C35   A    
C9    H25   S    
C73   C89   S    
C39   C40   A    
C61   C65   A    
Cr10  O10   S    
C56   C60   A    
C3    O23   A    
Cr6   O18   S    
C1    C24   S    
C8    C10   A    
C81   O45   A    
Cr10  O34   S    
C108  H64   S    
Cr3   O19   S    
C2    C23   S    
C70   H18   S    
C90   O42   A    
Cr3   O23   S    
C82   O46   A    
C80   O40   A    
C59   H11   S    
C80   O4    A    
C15   N3    S    
C4    O24   A    
Cr2   O18   S    
Cr7   O31   S    
C104  H4    S    
Cr7   O7    S    
C1    O25   A    
