data_mof_unit_8862.cif
_audit_creation_date              2013-03-05T15:47:42-0500
_audit_creation_method            fapswitch 2.2
_symmetry_space_group_name_H-M    P1
_symmetry_Int_Tables_number       1
_space_group_crystal_system       triclinic
_cell_length_a                    8.648975
_cell_length_b                    19.541614
_cell_length_c                    23.102535
_cell_angle_alpha                 97.047026
_cell_angle_beta                  88.610768
_cell_angle_gamma                 95.986493
_cell_volume                      3853.78411742

loop_
_atom_site_label
_atom_site_type_symbol
_atom_site_description
_atom_site_fract_x
_atom_site_fract_y
_atom_site_fract_z
_atom_type_partial_charge
P1    P     P_3+3 0.067040 0.441110 0.370020 0.476932
O1    O     O_2   0.896730 0.461690 0.361000 -0.230002
O2    O     O_3   0.137170 0.462400 0.432040 -0.508725
O3    O     O_3   0.657500 0.588540 0.395070 -0.394308
O4    O     O_2   0.767500 0.529223 0.294312 -0.256012
O5    O     O_3   0.997824 0.351837 0.357310 -0.532061
O6    O     O_3   0.689016 0.649364 0.287704 -0.569756
C1    C     C_3   0.547528 0.711027 0.228367 -0.364033
H1    H     H_    0.633622 0.755199 0.219982 0.189901
P2    P     P_3+3 0.640420 0.660110 0.543790 0.562804
P3    P     P_3+3 0.112804 0.715898 0.430535 0.478720
O7    O     O_2   0.816140 0.670340 0.526560 -0.383267
O8    O     O_3   0.069580 0.624410 0.423530 -0.370320
O9    O     O_2   0.979231 0.747995 0.465049 -0.351006
O10   O     O_3   0.585777 0.674859 0.619035 -0.560069
O11   O     O_3   0.120272 0.749427 0.363550 -0.597665
C2    C     C_3   0.003485 0.716921 0.325817 0.931055
H2    H     H_    0.895319 0.702723 0.350192 0.055805
C3    C     C_3   0.971698 0.769420 0.284730 -0.969937
H3    H     H_    0.887326 0.746214 0.250786 0.255487
H4    H     H_    0.924134 0.814848 0.309919 0.268802
C4    C     C_3   0.155640 0.697171 0.621007 0.359294
H5    H     H_    0.261170 0.700644 0.593442 0.077791
H6    H     H_    0.046189 0.688274 0.596127 0.109634
C5    C     C_3   0.164418 0.767688 0.657683 -0.822637
H7    H     H_    0.283347 0.782222 0.674724 0.284324
H8    H     H_    0.133441 0.807824 0.631119 0.236872
H9    H     H_    0.087777 0.765990 0.696514 0.270228
Ba1   Ba    Ba6+2 0.850680 0.532880 0.472010 1.658412
C6    C     C_3   0.095340 0.304578 0.373536 0.716045
H10   H     H_    0.196197 0.331326 0.398001 0.026820
C7    C     C_3   0.144716 0.260502 0.319078 -0.820661
H11   H     H_    0.193725 0.294131 0.287181 0.199462
H12   H     H_    0.045413 0.226510 0.298754 0.315499
H13   H     H_    0.227617 0.225673 0.331737 0.216511
C8    C     C_3   0.691393 0.704652 0.663226 0.704409
C9    C     C_3   0.770813 0.775893 0.651938 -0.216480
H14   H     H_    0.834929 0.770806 0.610143 0.150506
H15   H     H_    0.856585 0.793843 0.686647 0.132498
P4    P     P_3+3 0.122660 0.558950 0.629980 0.507348
O12   O     O_2   0.292960 0.538340 0.639040 -0.349180
O13   O     O_3   0.052540 0.537650 0.567960 -0.471074
O14   O     O_3   0.532200 0.411510 0.604930 -0.313106
O15   O     O_3   0.163473 0.647148 0.658738 -0.511110
P5    P     P_3+3 0.075579 0.284921 0.579053 0.562256
O16   O     O_3   0.629030 0.416090 0.471500 -0.339765
O17   O     O_3   0.120120 0.375640 0.576470 -0.399822
O18   O     O_2   0.201723 0.250210 0.540790 -0.257918
O19   O     O_3   0.117164 0.268525 0.649913 -0.441325
Ba2   Ba    Ba6+2 0.339140 0.467180 0.527990 1.674352
P6    P     P_3+3 0.635517 0.572643 0.317976 0.525172
C10   C     C_3   0.568073 0.692679 0.290762 0.428427
H16   H     H_    0.456531 0.667887 0.306623 0.094851
H17   H     H_    0.572440 0.666397 0.196122 0.233205
O20   O     O_3   0.560670 0.583970 0.528500 -0.349576
C11   C     C_3   0.524590 0.320427 0.336335 0.722708
H18   H     H_    0.405568 0.334182 0.343927 -0.190878
C12   C     C_3   0.530002 0.268271 0.278323 0.066419
H19   H     H_    0.427433 0.229697 0.277709 0.106852
P7    P     P_3+3 0.551288 0.326700 0.456378 0.558375
O21   O     O_2   0.373560 0.329680 0.473470 -0.371872
O22   O     O_3   0.570504 0.286833 0.383109 -0.571102
H20   H     H_    0.081245 0.787597 0.262673 0.256650
C13   C     C_3   0.982420 0.274763 0.684937 0.173213
H21   H     H_    0.937207 0.325041 0.680864 -0.037503
H22   H     H_    0.892540 0.232358 0.669437 0.132842
C14   C     C_3   0.016380 0.271432 0.750661 0.349530
P8    P     P_3+3 0.566464 0.425380 0.680598 0.552155
C15   C     C_3   0.526844 0.296572 0.703666 0.754505
H23   H     H_    0.653566 0.305515 0.695414 -0.191683
O23   O     O_2   0.489800 0.491462 0.704046 -0.328342
O24   O     O_3   0.453587 0.358865 0.711638 -0.560312
C16   C     C_3   0.503208 0.262281 0.760456 -0.214654
H24   H     H_    0.378420 0.250461 0.767955 0.194702
H25   H     H_    0.548126 0.299596 0.797858 0.079027
H26   H     H_    0.788515 0.412496 0.077091 0.166375
H27   H     H_    0.702266 0.426884 0.980087 0.165246
C17   C     C_R   0.337244 0.507215 0.329776 -0.318646
C18   C     C_R   0.182079 0.526615 0.928939 -0.103679
C19   C     C_R   0.139081 0.518802 0.868825 0.523988
O25   O     O_2   0.241299 0.526600 0.832276 -0.565199
N1    N     N_R   0.984664 0.499866 0.851449 -0.160045
C20   C     C_R   0.875871 0.484946 0.895303 0.497257
O26   O     O_2   0.736844 0.480559 0.885944 -0.611739
C21   C     C_R   0.923215 0.476604 0.952162 -0.037019
C22   C     C_R   0.075401 0.500301 0.969769 -0.043529
C23   C     C_R   0.329910 0.557837 0.949597 0.236399
C24   C     C_R   0.366476 0.561216 0.009102 -0.223333
C25   C     C_R   0.262773 0.531456 0.049120 -0.056126
C26   C     C_R   0.119682 0.498758 0.028788 -0.016987
C27   C     C_R   0.820271 0.446340 0.992394 -0.140857
C28   C     C_R   0.869915 0.438051 0.048280 -0.088158
C29   C     C_R   0.019906 0.465096 0.067557 -0.038980
C30   C     C_R   0.072711 0.458343 0.124319 0.542436
N2    N     N_R   0.207677 0.497188 0.147546 -0.158757
C31   C     C_R   0.297066 0.536567 0.109466 0.548558
C32   C     C_2   0.808648 0.452748 0.767667 -0.192527
C33   C     C_3   0.777888 0.434153 0.702839 0.014264
C34   C     C_1   0.005848 0.515467 0.685967 0.365705
C35   C     C_2   0.040176 0.527050 0.742676 -0.152958
C36   C     C_2   0.939891 0.492870 0.788447 0.102478
C37   C     C_R   0.408956 0.519613 0.229738 -0.261820
C38   C     C_R   0.446620 0.528578 0.289525 0.230506
C39   C     C_R   0.189778 0.478736 0.312799 0.205397
C40   C     C_R   0.144088 0.477653 0.254329 -0.086192
C41   C     C_R   0.253119 0.497858 0.209981 0.140090
O27   O     O_2   0.999248 0.416154 0.151766 -0.584009
O28   O     O_2   0.404462 0.578270 0.127695 -0.636138
C42   C     C_2   0.880591 0.477000 0.665335 -0.303321
H28   H     H_    0.478009 0.587167 0.023826 0.173415
H29   H     H_    0.504069 0.529870 0.200082 0.201592
H30   H     H_    0.123535 0.570992 0.756536 0.193050
H31   H     H_    0.730504 0.424361 0.795287 0.183128
H32   H     H_    0.022969 0.462554 0.245685 0.225820
H33   H     H_    0.368470 0.511677 0.375114 0.158095
H34   H     H_    0.838610 0.481427 0.622400 0.177875
C43   C     C_R   0.403541 0.703881 0.476283 -0.240113
C44   C     C_R   0.547183 0.725797 0.502566 0.084224
C45   C     C_R   0.596311 0.799484 0.505831 0.268765
C46   C     C_R   0.488333 0.847369 0.495505 -0.014337
C47   C     C_R   0.338670 0.821501 0.476887 -0.314787
C48   C     C_R   0.298404 0.750250 0.465894 0.264153
C49   C     C_R   0.519240 0.963723 0.454912 -0.251563
C50   C     C_R   0.575795 0.034710 0.458658 0.338260
C51   C     C_R   0.635111 0.070763 0.512265 -0.186406
C52   C     C_R   0.637465 0.031830 0.560416 0.295705
C53   C     C_R   0.590674 0.960169 0.553905 -0.094874
C54   C     C_R   0.533817 0.924716 0.501288 0.091692
C55   C     C_R   0.830902 0.175486 0.543387 -0.113462
C56   C     C_R   0.876828 0.247333 0.550600 0.100144
C57   C     C_R   0.640260 0.266783 0.501139 0.352882
C58   C     C_R   0.592148 0.195027 0.496534 -0.094079
C59   C     C_R   0.685113 0.148241 0.518624 0.099846
C60   C     C_R   0.776207 0.291662 0.531281 -0.174714
H35   H     H_    0.484841 0.175639 0.474287 0.159771
H36   H     H_    0.468236 0.938574 0.414642 0.176865
H37   H     H_    0.594691 0.932468 0.591320 0.230815
H38   H     H_    0.911461 0.140952 0.555089 0.192405
H39   H     H_    0.256107 0.856756 0.467821 0.208094
N3    N     N_2   0.615437 0.753772 0.331208 -0.116907
H40   H     H_    0.642036 0.741597 0.371778 0.180270
C61   C     C_3   0.523171 0.811628 0.335178 -0.864805
H41   H     H_    0.579684 0.853563 0.366385 0.267677
H42   H     H_    0.403863 0.796253 0.350557 0.274382
H43   H     H_    0.519574 0.832504 0.292801 0.279192
N4    N     N_R   0.008102 0.256431 0.408873 0.201199
O29   O     O_R   0.082498 0.213531 0.433583 -0.385525
O30   O     O_R   0.859788 0.241493 0.400613 -0.330000
N5    N     N_R   0.808064 0.657867 0.669189 0.184232
O31   O     O_R   0.889949 0.664785 0.716485 -0.463138
O32   O     O_R   0.803209 0.600624 0.634311 -0.417999
N6    N     N_2   0.603737 0.713743 0.718282 -0.139154
H44   H     H_    0.529920 0.752194 0.721190 0.192786
C62   C     C_3   0.527630 0.652001 0.739599 -0.648060
H45   H     H_    0.462596 0.666682 0.780364 0.217731
H46   H     H_    0.613773 0.616826 0.749275 0.272667
H47   H     H_    0.442989 0.624998 0.707368 0.287092
N7    N     N_2   0.390669 0.727336 0.219566 -0.094955
H48   H     H_    0.308471 0.685693 0.222198 0.258079
C63   C     C_3   0.371137 0.761054 0.168308 -0.779478
H49   H     H_    0.397716 0.726423 0.128252 0.264041
H50   H     H_    0.448565 0.810349 0.170205 0.252212
H51   H     H_    0.249031 0.773340 0.166354 0.245281
N8    N     N_R   0.661076 0.828219 0.653548 0.260065
O33   O     O_R   0.530493 0.814838 0.625834 -0.465153
O34   O     O_R   0.686142 0.885994 0.688040 -0.294739
N9    N     N_R   0.623499 0.384368 0.332352 0.224851
O35   O     O_R   0.716283 0.391940 0.287943 -0.364170
O36   O     O_R   0.594288 0.438620 0.367331 -0.394261
N10   N     N_2   0.528413 0.299983 0.224174 -0.107881
H52   H     H_    0.632316 0.313717 0.203688 0.262260
C64   C     C_3   0.397827 0.335244 0.210566 -0.904648
H53   H     H_    0.427454 0.364014 0.172532 0.259748
H54   H     H_    0.369122 0.373104 0.247929 0.228671
H55   H     H_    0.296861 0.296826 0.198295 0.278769
N11   N     N_R   0.666153 0.229584 0.277590 0.285445
O37   O     O_R   0.648794 0.163187 0.280661 -0.269576
O38   O     O_R   0.803840 0.259733 0.267994 -0.337151
N12   N     N_2   0.145086 0.324384 0.768095 -0.099930
H56   H     H_    0.138297 0.371070 0.752156 0.198825
C65   C     C_3   0.202446 0.334285 0.827322 -0.863947
H57   H     H_    0.129442 0.367463 0.856244 0.235500
H58   H     H_    0.320853 0.362307 0.827951 0.274395
H59   H     H_    0.209096 0.284001 0.844324 0.259039
N13   N     N_2   0.876009 0.285744 0.784803 -0.113312
H60   H     H_    0.816374 0.323308 0.771568 0.107125
C66   C     C_3   0.864139 0.282546 0.847311 -0.692986
H61   H     H_    0.747086 0.258460 0.858165 0.265597
H62   H     H_    0.876945 0.335578 0.871159 0.194136
H63   H     H_    0.950689 0.251480 0.863127 0.268059
N14   N     N_R   0.056227 0.200952 0.756882 0.266749
O39   O     O_R   0.167727 0.175228 0.725546 -0.274415
O40   O     O_R   0.960652 0.158169 0.782792 -0.270642
N15   N     N_R   0.458985 0.251796 0.653210 0.247128
O41   O     O_R   0.457634 0.276280 0.603673 -0.375977
O42   O     O_R   0.414755 0.186373 0.654778 -0.278905
N16   N     N_R   0.575637 0.197938 0.760186 0.298916
O43   O     O_R   0.675536 0.178979 0.720144 -0.307483
O44   O     O_R   0.543323 0.159886 0.802150 -0.276796
N17   N     N_2   0.439601 0.590427 0.912139 -0.066161
H64   H     H_    0.553298 0.584680 0.921380 0.209266
C67   C     C_3   0.417662 0.662105 0.908342 -0.809058
H65   H     H_    0.424862 0.692518 0.952320 0.234107
H66   H     H_    0.302952 0.665864 0.888985 0.259479
H67   H     H_    0.510411 0.684948 0.880392 0.248329
N18   N     N_R   0.056640 0.655144 0.292090 0.217418
O45   O     O_R   0.984625 0.625956 0.245211 -0.395675
O46   O     O_R   0.179657 0.629810 0.307805 -0.481090
N19   N     N_R   0.578828 0.068196 0.406650 0.241280
O47   O     O_R   0.466734 0.052983 0.369223 -0.345938
O48   O     O_R   0.704653 0.104844 0.391994 -0.277105
N20   N     N_R   0.756847 0.824922 0.502642 0.249351
O49   O     O_R   0.807133 0.843542 0.452737 -0.384357
O50   O     O_R   0.826116 0.856430 0.549156 -0.382303
N21   N     N_R   0.673672 0.064272 0.617971 0.259258
O51   O     O_R   0.818272 0.074668 0.633839 -0.313400
O52   O     O_R   0.566778 0.058641 0.658181 -0.229453
N22   N     N_2   0.818109 0.362933 0.538131 -0.121353
H68   H     H_    0.851293 0.380349 0.579872 0.131250
C68   C     C_3   0.924076 0.384421 0.493418 -0.492426
H69   H     H_    0.974957 0.436558 0.508304 0.270712
H70   H     H_    0.866712 0.381187 0.451244 0.240971
H71   H     H_    0.020515 0.352021 0.485380 0.190165
N23   N     N_2   0.355663 0.633505 0.462300 -0.124529
H72   H     H_    0.435676 0.601657 0.445631 0.204196
C69   C     C_3   0.255743 0.607456 0.505979 -0.566249
H73   H     H_    0.202563 0.557934 0.487992 0.295062
H74   H     H_    0.158840 0.638955 0.516812 0.188558
H75   H     H_    0.316688 0.604713 0.546305 0.234393

loop_
_geom_bond_atom_site_label_1
_geom_bond_atom_site_label_2
_geom_bond_distance
_ccdc_geom_bond_type
C1    H1    1.112222 S    
N15   O42   1.300316 A    
C23   C24   1.410197 A    
C7    H12   1.106066 S    
C52   C53   1.407298 A    
O7    Ba1   2.865583 S    
C16   H24   1.094072 S    
O12   Ba2   2.804642 S    
N2    C31   1.404589 Am   
C43   C48   1.393330 A    
C57   C60   1.393252 A    
C1    N7    1.450147 S    
N23   H72   1.016180 S    
P4    C34   1.855531 S    
C68   H70   1.096022 S    
C32   C33   1.520362 S    
C21   C27   1.411150 A    
C68   H69   1.085263 S    
C49   C50   1.414975 A    
N9    O36   1.294825 A    
C21   C22   1.401797 A    
C10   H16   1.108416 S    
C5    H9    1.104154 S    
C45   N20   1.428443 S    
C29   C30   1.424673 A    
C51   C52   1.424342 A    
C67   H66   1.111066 S    
O1    Ba1   2.803896 S    
O8    Ba1   2.778576 S    
N8    O33   1.298566 A    
C12   N10   1.463543 S    
C64   H53   1.110872 S    
N3    C61   1.443152 S    
O6    C10   1.407872 S    
C55   C56   1.409347 A    
P2    O10   1.787150 S    
N5    O32   1.293449 A    
C6    H10   1.099957 S    
Ba1   O13   2.841391 S    
P3    O9    1.532175 D    
C14   N14   1.478619 S    
C8    N5    1.450222 S    
C65   H59   1.109393 S    
N10   H52   1.031420 S    
P6    C38   1.860768 S    
C34   C42   1.316510 D    
C11   H18   1.095491 S    
P8    C33   1.896237 S    
O2    Ba1   3.029551 S    
P1    O1    1.591831 D    
N16   O44   1.300528 A    
C44   C45   1.451557 A    
C35   C36   1.524664 S    
C66   H63   1.106739 S    
C42   H34   1.080856 S    
C10   N3    1.452247 S    
C4    O15   1.394900 S    
C55   H38   1.079802 S    
C3    H3    1.106601 S    
C3    H20   1.111004 S    
N17   H64   1.031642 S    
C67   H67   1.109325 S    
C16   N16   1.461375 S    
C8    C9    1.535864 S    
C15   C16   1.544750 S    
C1    C10   1.546151 S    
C62   H46   1.109116 S    
O3    Ba1   2.851608 S    
C20   C21   1.418548 A    
C64   H55   1.108867 S    
C24   H28   1.083953 S    
N11   O38   1.298956 A    
N15   O41   1.294196 A    
C31   O28   1.217011 D    
P5    C56   1.897226 S    
N20   O49   1.302471 A    
C33   C42   1.492101 S    
N12   C65   1.450413 S    
N7    C63   1.445460 S    
C16   H25   1.109893 S    
C61   H43   1.108140 S    
C37   H29   1.076224 S    
C56   C60   1.406394 A    
C23   N17   1.422650 S    
P7    C57   1.885760 S    
C18   C23   1.424858 A    
C39   C40   1.413639 A    
O2    Ba2   2.841969 S    
C64   H54   1.106942 S    
N19   O47   1.301316 A    
O17   Ba2   2.779324 S    
N4    O30   1.298916 A    
Ba1   Ba2   4.792969 S    
P5    O17   1.782463 S    
C12   N11   1.462912 S    
C30   O27   1.218598 D    
C67   H65   1.111994 S    
O3    P6    1.781353 S    
C17   C39   1.383089 A    
N14   O39   1.297979 A    
C13   C14   1.563932 S    
C58   H35   1.082170 S    
C40   H32   1.074953 S    
N3    H40   1.031796 S    
C62   H47   1.103734 S    
C19   N1    1.402926 Am   
C22   C26   1.429843 A    
C65   H58   1.109351 S    
C1    H17   1.110852 S    
N9    O35   1.300411 A    
N18   O45   1.301237 A    
C58   C59   1.424980 A    
Ba1   O20   3.005892 S    
C12   H19   1.101770 S    
C65   H57   1.106394 S    
C4    C5    1.522303 S    
P1    O5    1.775669 S    
C15   N15   1.464461 S    
P7    O21   1.582967 D    
P1    O2    1.561155 S    
C13   H22   1.107030 S    
C15   O24   1.420354 S    
N21   O51   1.300276 A    
C63   H51   1.110343 S    
C9    H14   1.100779 S    
P2    C44   1.938594 S    
N2    C41   1.502334 S    
P3    O11   1.750270 S    
N22   C68   1.436535 S    
N16   O43   1.297490 A    
P5    O19   1.758754 S    
P8    O24   1.756955 S    
P1    Ba1   3.423301 S    
C2    H2    1.108137 S    
C47   C48   1.393135 A    
C30   N2    1.404416 Am   
N6    H44   1.030699 S    
P2    O20   1.575806 S    
P1    C39   1.850060 S    
C62   H45   1.107835 S    
P2    O7    1.560454 D    
O13   Ba2   3.030270 S    
C9    N8    1.462591 S    
C55   C59   1.421582 A    
H27   C27   1.083361 S    
P4    O12   1.592132 D    
O5    C6    1.402684 S    
H26   C28   1.083307 S    
C35   H30   1.083635 S    
C69   H74   1.097091 S    
N7    H48   1.029914 S    
C11   O22   1.416197 S    
C20   O26   1.219227 D    
P3    C48   1.843640 S    
C49   H36   1.078955 S    
C32   H31   1.076769 S    
C57   C58   1.412289 A    
O10   C8    1.415667 S    
C27   C28   1.403658 A    
C61   H42   1.106831 S    
C46   C47   1.397588 A    
C26   C29   1.402968 A    
N4    O29   1.300190 A    
N6    C62   1.447752 S    
P5    O18   1.546701 D    
C51   C59   1.520807 S    
C2    N18   1.464071 S    
O16   P7    1.800605 S    
C17   C38   1.379903 A    
C4    H5    1.101239 S    
C8    N6    1.466301 S    
C7    H13   1.106192 S    
N20   O50   1.297950 A    
C19   O25   1.218639 D    
N23   C69   1.419945 S    
C45   C46   1.432671 A    
C46   C54   1.512006 S    
O14   Ba2   2.851043 S    
N12   H56   1.032490 S    
C5    H8    1.110612 S    
C69   H75   1.091147 S    
C40   C41   1.438617 A    
O16   Ba2   3.005002 S    
N13   H60   1.019837 S    
Ba2   O20   2.821759 S    
C34   C35   1.337115 D    
Ba1   O16   2.822377 S    
C6    N4    1.459968 S    
C17   H33   1.078891 S    
C7    H11   1.095526 S    
C47   H39   1.083373 S    
C25   C31   1.421725 A    
N8    O34   1.301231 A    
C5    H7    1.106779 S    
O6    P6    1.745803 S    
C66   H61   1.107519 S    
C9    H15   1.105407 S    
C60   N22   1.392672 S    
C43   C44   1.399059 A    
N14   O40   1.302024 A    
P7    O22   1.785956 S    
C6    C7    1.513884 S    
P3    O8    1.776178 S    
P2    Ba1   3.467541 S    
N22   H68   1.020114 S    
O11   C2    1.398807 S    
N10   C64   1.442914 S    
P8    O23   1.546035 D    
P4    Ba2   3.423905 S    
C11   N9    1.450157 S    
P4    O13   1.561142 S    
C28   C29   1.409894 A    
N19   O48   1.300356 A    
N1    C36   1.501536 S    
C11   C12   1.583957 S    
C37   C41   1.438191 A    
C4    H6    1.106470 S    
C68   H71   1.097660 S    
C37   C38   1.412501 A    
C63   H49   1.111608 S    
C15   H23   1.107349 S    
C66   H62   1.108485 S    
N21   O52   1.300776 A    
N13   C66   1.453777 S    
C52   N21   1.428267 S    
C13   H21   1.109833 S    
N11   O37   1.300980 A    
C18   C19   1.432315 A    
C2    C3    1.529551 S    
C14   N13   1.464445 S    
P4    O15   1.772019 S    
C24   C25   1.407244 A    
N17   C67   1.446405 S    
C69   H73   1.066998 S    
C50   N19   1.435373 S    
C49   C54   1.404220 A    
O19   C13   1.409769 S    
Ba2   O21   2.865864 S    
C61   H41   1.103993 S    
O4    P6    1.542671 D    
C43   N23   1.394947 S    
C14   N12   1.466750 S    
C53   H37   1.077764 S    
N1    C20   1.402099 Am   
C25   C26   1.396477 A    
N5    O31   1.301959 A    
N18   O46   1.296784 A    
C18   C22   1.408312 A    
C32   C36   1.371910 D    
C53   C54   1.396687 A    
C63   H50   1.111234 S    
C50   C51   1.426408 A    
C3    H4    1.110744 S    
O14   P8    1.763339 S    
