data_mof_unit_49434.cif
_audit_creation_date              2012-12-11T14:56:34-0500
_audit_creation_method            fapswitch 2.2
_symmetry_space_group_name_H-M    P1
_symmetry_Int_Tables_number       1
_space_group_crystal_system       triclinic
_cell_length_a                    10.466455
_cell_length_b                    10.605732
_cell_length_c                    17.036057
_cell_angle_alpha                 80.363539
_cell_angle_beta                  89.838784
_cell_angle_gamma                 118.474303
_cell_volume                      1631.39507405

loop_
_atom_site_label
_atom_site_type_symbol
_atom_type_description
_atom_site_fract_x
_atom_site_fract_y
_atom_site_fract_z
_atom_type_partial_charge
C1    C     C_R   0.280144 0.889262 0.132888 0.562137
C2    C     C_R   0.826694 0.451223 0.251980 -0.050027
C3    C     C_R   0.806907 0.420744 0.176000 -0.123993
C4    C     C_R   0.669038 0.368564 0.147666 -0.001587
C5    C     C_1   0.669082 0.848127 0.205309 -0.025121
C6    C     C_1   0.679974 0.838795 0.274918 -0.026474
C7    C     C_1   0.229474 0.855030 0.215700 -0.026301
C8    C     C_1   0.180580 0.834987 0.283385 -0.020168
C9    C     C_1   0.660706 0.357937 0.780511 -0.053473
C10   C     C_1   0.683972 0.402216 0.709983 -0.051272
C11   C     C_R   0.622040 0.712116 0.804592 -0.135026
C12   C     C_R   0.638781 0.284654 0.084433 0.545441
C13   C     C_R   0.607381 0.697884 0.726138 -0.133559
C14   C     C_R   0.668996 0.822554 0.665308 0.033982
C15   C     C_R   0.750304 0.961716 0.683298 -0.123833
C16   C     C_R   0.760617 0.976518 0.762538 -0.123408
C17   C     C_R   0.690481 0.851553 0.823175 0.029672
C18   C     C_R   0.283428 0.998640 0.748062 -0.138206
C19   C     C_R   0.245998 0.974664 0.672166 -0.123170
C20   C     C_R   0.189127 0.833415 0.654511 0.009772
C21   C     C_R   0.194070 0.721881 0.710398 -0.034101
C22   C     C_R   0.235176 0.748149 0.786117 -0.125739
C23   C     C_R   0.640943 0.857956 0.125110 0.546535
C24   C     C_R   0.269117 0.883155 0.806681 0.008870
C25   C     C_R   0.686107 0.809982 0.357403 0.542755
C26   C     C_R   0.727201 0.460575 0.382627 0.551510
C27   C     C_R   0.109102 0.812441 0.360121 0.545664
C28   C     C_R   0.677295 0.800255 0.585318 0.537281
C29   C     C_R   0.717302 0.446867 0.626122 0.560792
C30   C     C_R   0.104771 0.804193 0.584889 0.538585
C31   C     C_R   0.292017 0.904781 0.888644 0.571401
C32   C     C_R   0.639768 0.290900 0.861897 0.541184
C33   C     C_R   0.647555 0.866415 0.899753 0.539532
C34   C     C_R   0.557430 0.374185 0.188661 -0.140434
C35   C     C_R   0.577004 0.413940 0.263273 -0.040613
C36   C     C_R   0.709271 0.441675 0.298883 -0.018017
Cr1   Cr    Cr6+3 0.402240 0.783890 0.019450 1.028769
Cr2   Cr    Cr6+3 0.382360 0.097900 0.991800 1.019149
Cr3   Cr    Cr6+3 0.715380 0.118170 0.988700 1.028136
Cr4   Cr    Cr6+3 0.936650 0.882420 0.465510 1.045029
Cr5   Cr    Cr6+3 0.605770 0.565620 0.493360 1.053675
Cr6   Cr    Cr6+3 0.921340 0.550490 0.496380 1.066522
H1    H     H_    0.452259 0.339152 0.164832 0.139592
H2    H     H_    0.250896 0.064971 0.629211 0.158492
H3    H     H_    0.233051 0.660275 0.830047 0.145550
H4    H     H_    0.896479 0.423284 0.142210 0.153543
H5    H     H_    0.569010 0.614632 0.850856 0.134933
H6    H     H_    0.550416 0.588687 0.713179 0.139977
H7    H     H_    0.803812 0.057893 0.636306 0.147242
H8    H     H_    0.813755 0.085456 0.776028 0.157331
H9    H     H_    0.317787 0.105746 0.761832 0.137859
O1    O     O_R   0.521780 0.757110 0.108900 -0.509970
O2    O     O_R   0.513330 0.228330 0.898660 -0.523399
O3    O     O_R   0.739230 0.266130 0.888050 -0.501364
O4    O     O_R   0.712580 0.991850 0.918770 -0.502273
O5    O     O_3   0.499990 0.999980 0.999980 -0.293178
O6    O     O_R   0.083770 0.911170 0.376030 -0.498224
O7    O     O_R   0.808770 0.880340 0.383890 -0.491673
O8    O     O_R   0.584340 0.689460 0.394160 -0.497437
O9    O     O_R   0.614320 0.443940 0.423590 -0.482363
O10   O     O_R   0.805020 0.410040 0.421340 -0.488659
O11   O     O_R   0.049240 0.685450 0.403290 -0.497637
O12   O     O_R   0.275160 0.783810 0.101120 -0.476555
O13   O     O_R   0.077520 0.903010 0.551800 -0.514648
O14   O     O_R   0.802980 0.872780 0.546830 -0.496534
O15   O     O_R   0.578090 0.681300 0.569920 -0.519042
O16   O     O_R   0.608530 0.436370 0.586530 -0.493930
O17   O     O_R   0.798770 0.401880 0.597100 -0.484871
O18   O     O_R   0.043450 0.677890 0.566230 -0.502144
O19   O     O_3   0.821250 0.666180 0.485090 -0.310586
O20   O     O_R   0.237900 0.972600 0.090980 -0.498439
O21   O     O_R   0.511190 0.220540 0.061620 -0.518930
O22   O     O_R   0.736920 0.257720 0.063840 -0.515352
O23   O     O_R   0.710450 0.984050 0.081720 -0.491585
O24   O     O_R   0.524090 0.765520 0.933110 -0.530574
O25   O     O_R   0.277300 0.791600 0.938160 -0.497824
O26   O     O_R   0.240210 0.981010 0.915190 -0.499115
C37   C     C_1   0.150856 0.578248 0.694100 0.220724
N1    N     N_1   0.116384 0.463070 0.681268 -0.285104
C38   C     C_1   0.454616 0.415051 0.302099 0.248448
N2    N     N_1   0.356033 0.415518 0.332742 -0.237305
C39   C     C_1   0.965247 0.477671 0.281258 0.229808
N3    N     N_1   0.075863 0.496437 0.304077 -0.246656

loop_
_geom_bond_atom_site_label_1
_geom_bond_atom_site_label_2
_ccdc_geom_bond_type
C33   O4    A    
C30   O13   A    
C11   H5    S    
C35   C36   A    
C23   O1    A    
C7    C8    T    
Cr5   O16   S    
C20   C30   S    
C1    O20   A    
Cr4   O19   S    
C18   C24   A    
C26   O10   A    
C16   H8    S    
C18   C19   A    
C5    C6    T    
Cr3   O3    S    
C15   C16   A    
C35   C38   S    
Cr6   O19   S    
C34   C35   A    
Cr3   O23   S    
C12   O22   A    
C9    C32   S    
C29   O16   A    
Cr1   O5    S    
C33   O24   A    
Cr3   O4    S    
C19   C20   A    
C16   C17   A    
C21   C37   S    
C4    C12   S    
C9    C10   T    
Cr6   O11   S    
C15   H7    S    
Cr1   O24   S    
C13   C14   A    
Cr6   O17   S    
C17   C33   S    
C1    O12   A    
C32   O3    A    
Cr1   O12   S    
C18   H9    S    
C31   O26   A    
C4    C34   A    
Cr2   O21   S    
Cr4   O7    S    
Cr5   O8    S    
C27   O6    A    
Cr1   O1    S    
C37   N1    T    
Cr6   O18   S    
C28   O15   A    
C27   O11   A    
C29   O17   A    
Cr3   O5    S    
C5    C23   S    
Cr6   O10   S    
C26   C36   S    
Cr1   O25   S    
Cr4   O14   S    
C22   C24   A    
C2    C39   S    
C25   O7    A    
C23   O23   A    
C3    C4    A    
C32   O2    A    
C30   O18   A    
C19   H2    S    
C2    C36   A    
Cr2   O20   S    
C11   C17   A    
Cr4   O6    S    
C1    C7    S    
C34   H1    S    
Cr5   O9    S    
C38   N2    T    
C13   H6    S    
Cr5   O15   S    
Cr2   O26   S    
C3    H4    S    
Cr4   O13   S    
C2    C3    A    
C24   C31   S    
C11   C13   A    
C10   C29   S    
C31   O25   A    
Cr2   O2    S    
C28   O14   A    
Cr3   O22   S    
C12   O21   A    
C6    C25   S    
C22   H3    S    
Cr2   O5    S    
C20   C21   A    
C39   N3    T    
C8    C27   S    
C14   C15   A    
C25   O8    A    
C14   C28   S    
C21   C22   A    
C26   O9    A    
Cr5   O19   S    
