data_mof_unit_58176.cif
_audit_creation_date              2012-12-11T15:25:49-0500
_audit_creation_method            fapswitch 2.2
_symmetry_space_group_name_H-M    P1
_symmetry_Int_Tables_number       1
_space_group_crystal_system       triclinic
_cell_length_a                    24.873688
_cell_length_b                    17.210641
_cell_length_c                    15.620909
_cell_angle_alpha                 90.000906
_cell_angle_beta                  50.177021
_cell_angle_gamma                 90.00091
_cell_volume                      5135.93917079

loop_
_atom_site_label
_atom_site_type_symbol
_atom_type_description
_atom_site_fract_x
_atom_site_fract_y
_atom_site_fract_z
_atom_type_partial_charge
Br1   Br    Br    0.583542 0.073980 0.736964 -0.520227
Br2   Br    Br    0.424932 0.851025 0.269805 -0.536393
Br3   Br    Br    0.416447 0.074079 0.263032 -0.520154
Br4   Br    Br    0.575044 0.850986 0.730205 -0.536310
Br5   Br    Br    0.083538 0.573961 0.736965 -0.520228
Br6   Br    Br    0.924932 0.351024 0.269805 -0.536386
Br7   Br    Br    0.916445 0.574094 0.263032 -0.520148
Br8   Br    Br    0.075047 0.350988 0.730203 -0.536310
C1    C     C_R   0.351776 0.142846 0.754764 -0.113590
C2    C     C_2   0.303246 0.852781 0.984597 -0.174245
C3    C     C_2   0.360481 0.259649 0.845010 -0.205408
C4    C     C_2   0.696752 0.852762 0.015412 -0.174253
C5    C     C_2   0.139513 0.759658 0.155016 -0.205411
C6    C     C_2   0.803249 0.352770 0.984591 -0.174236
C7    C     C_2   0.860487 0.759655 0.844995 -0.205403
C8    C     C_2   0.196752 0.352760 0.015412 -0.174244
C9    C     C_2   0.691634 0.299104 0.138975 -0.100291
C10   C     C_2   0.233908 0.851103 0.043487 -0.107051
C11   C     C_2   0.308371 0.299106 0.861026 -0.100303
C12   C     C_R   0.667468 0.893751 0.197362 -0.119922
C13   C     C_2   0.766091 0.851099 0.956518 -0.107045
C14   C     C_2   0.191635 0.799106 0.138977 -0.100267
C15   C     C_2   0.733909 0.351103 0.043486 -0.107046
C16   C     C_2   0.808368 0.799104 0.861026 -0.100290
C17   C     C_2   0.266091 0.351101 0.956518 -0.107040
C18   C     C_R   0.612563 0.102179 0.593877 0.280828
C19   C     C_R   0.406760 0.859049 0.408635 0.340404
C20   C     C_R   0.387438 0.102205 0.406132 0.280944
C21   C     C_R   0.593240 0.859048 0.591360 0.340543
C22   C     C_R   0.112563 0.602173 0.593879 0.280807
C23   C     C_R   0.648223 0.142847 0.245243 -0.113588
C24   C     C_R   0.906759 0.359050 0.408635 0.340407
C25   C     C_R   0.887438 0.602210 0.406133 0.280958
C26   C     C_R   0.093241 0.359048 0.591360 0.340539
C27   C     C_R   0.687362 0.105706 0.408723 -0.194411
C28   C     C_R   0.337778 0.856924 0.594410 -0.186374
C29   C     C_R   0.312641 0.105719 0.591287 -0.194457
C30   C     C_R   0.662242 0.856937 0.405581 -0.186441
C31   C     C_R   0.187363 0.605702 0.408726 -0.194398
C32   C     C_R   0.837774 0.356926 0.594411 -0.186385
C33   C     C_R   0.812642 0.605722 0.591288 -0.194469
C34   C     C_R   0.332530 0.893761 0.802644 -0.119990
C35   C     C_R   0.162240 0.356935 0.405581 -0.186432
C36   C     C_R   0.558152 0.143150 0.245021 -0.104653
C37   C     C_R   0.420320 0.896083 0.805909 -0.074277
C38   C     C_R   0.441848 0.143147 0.754985 -0.104629
C39   C     C_R   0.579678 0.896073 0.194095 -0.074352
C40   C     C_R   0.058150 0.643152 0.245026 -0.104657
C41   C     C_R   0.920321 0.396079 0.805907 -0.074282
C42   C     C_R   0.941851 0.643150 0.754979 -0.104618
C43   C     C_R   0.079678 0.396071 0.194096 -0.074353
C44   C     C_R   0.384606 0.185703 0.784914 0.120011
C45   C     C_R   0.851778 0.642847 0.754760 -0.113589
C46   C     C_R   0.649407 0.876934 0.132452 0.103618
C47   C     C_R   0.615394 0.185705 0.215095 0.120016
C48   C     C_R   0.350591 0.876948 0.867555 0.103618
C49   C     C_R   0.884610 0.685706 0.784906 0.120009
C50   C     C_R   0.149406 0.376931 0.132453 0.103619
C51   C     C_R   0.115391 0.685708 0.215102 0.120015
C52   C     C_R   0.850592 0.376942 0.867551 0.103610
C53   C     C_R   0.679117 0.122093 0.502711 -0.029556
C54   C     C_R   0.357075 0.815829 0.503190 -0.065454
C55   C     C_R   0.320889 0.122122 0.497304 -0.029587
C56   C     C_R   0.167468 0.393750 0.197362 -0.119930
C57   C     C_R   0.642938 0.815844 0.496802 -0.065582
C58   C     C_R   0.179118 0.622086 0.502715 -0.029548
C59   C     C_R   0.857073 0.315832 0.503191 -0.065465
C60   C     C_R   0.820890 0.622128 0.497307 -0.029593
C61   C     C_R   0.142937 0.315842 0.496801 -0.065575
C62   C     C_R   0.200867 0.149185 0.570364 -0.150000
C63   C     C_R   0.758007 0.764402 0.406619 -0.155879
C64   C     C_R   0.799169 0.149202 0.429523 -0.150071
C65   C     C_R   0.242036 0.764137 0.593622 -0.156025
C66   C     C_R   0.700873 0.649184 0.570347 -0.149997
C67   C     C_R   0.148222 0.642849 0.245247 -0.113587
C68   C     C_R   0.258005 0.264374 0.406588 -0.155892
C69   C     C_R   0.299176 0.649206 0.429500 -0.150078
C70   C     C_R   0.742032 0.264176 0.593582 -0.156006
C71   C     C_R   0.656673 0.696623 0.568358 -0.119160
C72   C     C_R   0.301356 0.217662 0.408413 -0.119121
C73   C     C_R   0.343381 0.696651 0.431473 -0.119163
C74   C     C_R   0.698677 0.217467 0.591763 -0.119047
C75   C     C_R   0.156667 0.196626 0.568377 -0.119162
C76   C     C_R   0.801359 0.717692 0.408445 -0.119134
C77   C     C_R   0.843373 0.196647 0.431498 -0.119164
C78   C     C_R   0.832531 0.393757 0.802642 -0.119980
C79   C     C_R   0.198681 0.717428 0.591804 -0.119037
C80   C     C_R   0.685708 0.755827 0.488629 0.171063
C81   C     C_R   0.273022 0.161295 0.491229 0.171533
C82   C     C_R   0.314340 0.755738 0.511381 0.170977
C83   C     C_R   0.727005 0.161213 0.508801 0.171502
C84   C     C_R   0.185704 0.255817 0.488626 0.171058
C85   C     C_R   0.773025 0.661309 0.491235 0.171538
C86   C     C_R   0.814334 0.255752 0.511378 0.170988
C87   C     C_R   0.227010 0.661196 0.508809 0.171495
C88   C     C_2   0.639519 0.259652 0.155003 -0.205418
H1    H     H_    0.304931 0.157415 0.767490 0.100273
H2    H     H_    0.297660 0.842049 0.681069 0.124492
H3    H     H_    0.264453 0.106646 0.676741 0.120950
H4    H     H_    0.702397 0.842085 0.318922 0.124541
H5    H     H_    0.235553 0.606619 0.323273 0.120901
H6    H     H_    0.797651 0.342056 0.681070 0.124499
H7    H     H_    0.764454 0.606649 0.676743 0.120956
H8    H     H_    0.202391 0.342080 0.318922 0.124535
H9    H     H_    0.521592 0.160907 0.233587 0.143674
H10   H     H_    0.445184 0.904869 0.841616 0.183178
H11   H     H_    0.478409 0.160900 0.766421 0.143648
H12   H     H_    0.719716 0.897188 0.170126 0.088275
H13   H     H_    0.554814 0.904850 0.158388 0.183171
H14   H     H_    0.021590 0.660910 0.233594 0.143675
H15   H     H_    0.945185 0.404863 0.841614 0.183184
H16   H     H_    0.978413 0.660902 0.766412 0.143637
H17   H     H_    0.054813 0.404847 0.158390 0.183168
H18   H     H_    0.179225 0.105261 0.634447 0.122062
H19   H     H_    0.781438 0.811020 0.346013 0.120557
H20   H     H_    0.820813 0.105366 0.365326 0.122037
H21   H     H_    0.218580 0.810649 0.654396 0.120521
H22   H     H_    0.679232 0.605247 0.634410 0.122064
H23   H     H_    0.695066 0.157416 0.232525 0.100276
H24   H     H_    0.281440 0.310981 0.345963 0.120552
H25   H     H_    0.320821 0.605387 0.365278 0.122034
H26   H     H_    0.718579 0.310705 0.654329 0.120527
H27   H     H_    0.600496 0.689799 0.631235 0.143223
H28   H     H_    0.357088 0.229222 0.349094 0.135657
H29   H     H_    0.399561 0.689940 0.368433 0.143343
H30   H     H_    0.642940 0.228973 0.651193 0.135782
H31   H     H_    0.100489 0.189815 0.631274 0.143237
H32   H     H_    0.857088 0.729261 0.349145 0.135637
H33   H     H_    0.899551 0.189919 0.368484 0.143323
H34   H     H_    0.280281 0.897203 0.829882 0.088284
H35   H     H_    0.142942 0.728922 0.651260 0.135811
H36   H     H_    0.210233 0.875771 0.010668 0.127787
H37   H     H_    0.711400 0.282485 0.181351 0.137941
H38   H     H_    0.789764 0.875780 0.989332 0.127792
H39   H     H_    0.288612 0.282491 0.818636 0.137942
H40   H     H_    0.710234 0.375781 0.010674 0.127788
H41   H     H_    0.211408 0.782481 0.181344 0.137930
H42   H     H_    0.289765 0.375782 0.989333 0.127789
H43   H     H_    0.788601 0.782481 0.818652 0.137935
H44   H     H_    0.326231 0.827449 0.018401 0.153716
H45   H     H_    0.804934 0.657416 0.767483 0.100270
H46   H     H_    0.620389 0.276534 0.111639 0.140623
H47   H     H_    0.673769 0.827417 0.981612 0.153707
H48   H     H_    0.379604 0.276525 0.888388 0.140626
H49   H     H_    0.826234 0.327427 0.018388 0.153712
H50   H     H_    0.120375 0.776544 0.111662 0.140612
H51   H     H_    0.173769 0.327414 0.981611 0.153706
H52   H     H_    0.879619 0.776540 0.888357 0.140620
H53   H     H_    0.219716 0.397188 0.170126 0.088274
H54   H     H_    0.195063 0.657418 0.232531 0.100276
H55   H     H_    0.780282 0.397197 0.829880 0.088284
H56   H     H_    0.735552 0.106623 0.323270 0.120909
N1    N     N_R   0.388930 0.078160 0.705470 -0.050864
N2    N     N_R   0.419500 0.922160 0.443350 -0.061207
N3    N     N_R   0.419500 0.077840 0.443350 -0.070920
N4    N     N_R   0.580500 0.922160 0.556650 -0.061215
N5    N     N_R   0.080500 0.577840 0.556650 -0.070895
N6    N     N_R   0.919500 0.422160 0.443350 -0.061211
N7    N     N_R   0.919500 0.577840 0.443350 -0.070922
N8    N     N_R   0.080500 0.422160 0.556650 -0.061210
N9    N     N_R   0.626210 0.077590 0.443410 -0.056727
N10   N     N_R   0.373790 0.922410 0.556590 -0.055437
N11   N     N_R   0.373790 0.077590 0.556590 -0.056729
N12   N     N_R   0.611070 0.921840 0.294530 -0.051382
N13   N     N_R   0.626210 0.922410 0.443410 -0.055445
N14   N     N_R   0.126210 0.577590 0.443410 -0.056727
N15   N     N_R   0.873790 0.422410 0.556590 -0.055438
N16   N     N_R   0.873790 0.577590 0.556590 -0.056729
N17   N     N_R   0.126210 0.422410 0.443410 -0.055445
N18   N     N_R   0.554800 0.077270 0.294580 -0.041396
N19   N     N_R   0.445200 0.922730 0.705420 -0.053662
N20   N     N_R   0.445200 0.077270 0.705420 -0.041393
N21   N     N_R   0.554800 0.922730 0.294580 -0.053662
N22   N     N_R   0.054800 0.577270 0.294580 -0.041395
N23   N     N_R   0.611070 0.078160 0.294530 -0.050866
N24   N     N_R   0.945200 0.422730 0.705420 -0.053661
N25   N     N_R   0.945200 0.577270 0.705420 -0.041391
N26   N     N_R   0.054800 0.422730 0.294580 -0.053662
N27   N     N_R   0.388930 0.921840 0.705470 -0.051388
N28   N     N_R   0.888930 0.578160 0.705470 -0.050865
N29   N     N_R   0.111070 0.421840 0.294530 -0.051382
N30   N     N_R   0.111070 0.578160 0.294530 -0.050867
N31   N     N_R   0.888930 0.421840 0.705470 -0.051387
N32   N     N_R   0.580500 0.077840 0.556650 -0.070898
Ni1   Ni    Ni4+2 0.382710 1.000000 0.629850 0.203255
Ni2   Ni    Ni4+2 0.617290 1.000000 0.370150 0.203243
Ni3   Ni    Ni4+2 0.882710 0.500000 0.629850 0.203254
Ni4   Ni    Ni4+2 0.117290 0.500000 0.370150 0.203244
Ni5   Ni    Ni4+2 0.513020 1.000000 0.629850 0.284528
Ni6   Ni    Ni4+2 0.486980 1.000000 0.370150 0.284533
Ni7   Ni    Ni4+2 0.013020 0.500000 0.629850 0.284534
Ni8   Ni    Ni4+2 0.986980 0.500000 0.370150 0.284531

loop_
_geom_bond_atom_site_label_1
_geom_bond_atom_site_label_2
_ccdc_geom_bond_type
C76   H32   S    
C30   N13   A    
C40   H14   S    
N25   Ni7   S    
C22   N5    A    
Br7   C25   S    
C10   H36   S    
C27   N9    A    
N22   N30   A    
C64   C77   A    
C35   N17   A    
C23   N23   A    
C36   H9    S    
C62   H18   S    
C75   C84   A    
C6    H49   S    
C3    C11   D    
C68   H24   S    
C41   C52   A    
C15   H40   S    
C57   C80   S    
C8    H51   S    
N14   Ni4   S    
Br3   C20   S    
N3    Ni6   S    
C18   C53   A    
C70   C86   A    
C65   C82   A    
Br5   C22   S    
N6    Ni8   S    
C7    H52   S    
C67   H54   S    
C11   H39   S    
C12   N12   A    
C33   N16   A    
C38   C44   A    
N21   Ni6   S    
N7    N16   A    
N19   Ni5   S    
C79   H35   S    
C72   C81   A    
C35   H8    S    
C65   C79   A    
C32   N15   A    
C3    C44   S    
C34   C48   A    
C74   H30   S    
C37   C48   A    
C32   C59   A    
C79   C87   A    
C5    C14   D    
C20   N3    A    
C1    H1    S    
N8    N17   A    
Br2   C19   S    
C61   C84   S    
C2    C48   S    
C3    H48   S    
C24   N6    A    
Br4   C21   S    
C41   H15   S    
C77   H33   S    
N4    Ni5   S    
C19   N2    A    
N2    Ni6   S    
C1    N1    A    
C35   C61   A    
N16   Ni3   S    
C18   N32   A    
C28   N10   A    
C7    C49   S    
C66   C85   A    
N19   N27   A    
C1    C44   A    
C2    H44   S    
C5    H50   S    
C28   C54   A    
C37   N19   A    
C71   C80   A    
C29   C55   A    
N29   Ni4   S    
N6    N15   A    
C31   H5    S    
C33   C60   A    
C40   N22   A    
N18   N23   A    
C16   H43   S    
C50   C56   A    
C66   H22   S    
C65   H21   S    
C42   N25   A    
N8    Ni7   S    
C30   H4    S    
C9    C88   D    
C64   C83   A    
C45   C49   A    
N24   Ni7   S    
Br8   C26   S    
C32   H6    S    
N3    N11   A    
C39   H13   S    
C71   H27   S    
C4    C13   D    
C69   C87   A    
C74   C83   A    
C33   H7    S    
C6    C15   D    
N5    Ni7   S    
N9    Ni2   S    
N28   Ni3   S    
N31   Ni3   S    
C59   C86   S    
N26   Ni8   S    
C77   C86   A    
C70   C74   A    
C14   H41   S    
C30   C57   A    
C69   C73   A    
C34   N27   A    
N25   N28   A    
N15   Ni3   S    
C38   H11   S    
C55   C81   S    
C42   H16   S    
C63   H19   S    
N12   N21   A    
C27   C53   A    
C43   C50   A    
C43   H17   S    
C62   C75   A    
C26   C61   A    
C23   H23   S    
C39   N21   A    
C68   C84   A    
C24   C59   A    
C21   C57   A    
C73   C82   A    
C22   C58   A    
C12   C46   A    
C7    C16   D    
C9    C15   S    
C8    C50   S    
C21   N4    A    
C66   C71   A    
C39   C46   A    
C9    H37   S    
Br1   C18   S    
C31   C58   A    
C62   C81   A    
C27   H56   S    
C56   N29   A    
C43   N26   A    
C45   N28   A    
C51   C67   A    
C13   H38   S    
C29   H3    S    
C37   H10   S    
C40   C51   A    
C63   C76   A    
C72   H28   S    
C8    C17   D    
N18   Ni6   S    
C52   C78   A    
C73   H29   S    
C10   C14   S    
C42   C49   A    
N7    Ni8   S    
N2    N10   A    
C31   N14   A    
C68   C72   A    
N17   Ni4   S    
C75   H31   S    
C47   C88   S    
N5    N14   A    
N10   Ni1   S    
C5    C51   S    
C19   C54   A    
N20   Ni5   S    
C6    C52   S    
C64   H20   S    
N12   Ni2   S    
C60   C85   S    
C34   H34   S    
C4    H47   S    
C29   N11   A    
C56   H53   S    
N11   Ni1   S    
N9    N32   A    
C17   H42   S    
C78   H55   S    
N23   Ni2   S    
C36   C47   A    
C78   N31   A    
N1    Ni1   S    
N4    N13   A    
C2    C10   D    
C54   C82   S    
N1    N20   A    
C38   N20   A    
N27   Ni1   S    
C45   H45   S    
C76   C85   A    
C70   H26   S    
C36   N18   A    
N26   N29   A    
C69   H25   S    
C11   C17   S    
C88   H46   S    
C63   C80   A    
C20   C55   A    
C53   C83   S    
C25   C60   A    
Br6   C24   S    
C13   C16   S    
N32   Ni5   S    
C28   H2    S    
C23   C47   A    
N30   Ni4   S    
C67   N30   A    
N24   N31   A    
C41   N24   A    
C4    C46   S    
C25   N7    A    
N13   Ni2   S    
N22   Ni8   S    
C58   C87   S    
C12   H12   S    
C26   N8    A    
