data_mof_unit_37061.cif
_audit_creation_date              2012-10-26T19:59:10-0400
_audit_creation_method            fapswitch 2.2
_symmetry_space_group_name_H-M    P1
_symmetry_Int_Tables_number       1
_space_group_crystal_system       triclinic
_cell_length_a                    7.418453
_cell_length_b                    8.760965
_cell_length_c                    15.82055
_cell_angle_alpha                 94.26827
_cell_angle_beta                  75.05089
_cell_angle_gamma                 102.811849
_cell_volume                      968.527503179

loop_
_atom_site_label
_atom_site_type_symbol
_atom_type_description
_atom_site_fract_x
_atom_site_fract_y
_atom_site_fract_z
_atom_type_partial_charge
C1    C     C_R   0.545019 0.799167 0.501425 0.598547
C2    C     C_R   0.616099 0.512116 0.333763 0.534171
C3    C     C_R   0.313670 0.475918 0.761721 -0.009965
C4    C     C_R   0.686403 0.534277 0.239040 -0.010505
C5    C     C_R   0.067964 0.379753 0.890266 -0.132477
C6    C     C_R   0.921571 0.659534 0.114579 -0.134170
C7    C     C_R   0.123624 0.408544 0.800866 -0.149078
C8    C     C_R   0.870425 0.618349 0.202246 -0.149542
C9    C     C_R   0.444689 0.521666 0.813373 -0.137589
C10   C     C_R   0.557249 0.486050 0.186771 -0.134581
C11   C     C_R   0.391952 0.496209 0.903953 0.026958
C12   C     C_R   0.455356 0.200518 0.498616 0.561607
C13   C     C_R   0.602154 0.531205 0.099082 0.026928
C14   C     C_R   0.201068 0.420004 0.941545 0.046907
C15   C     C_R   0.788783 0.618255 0.063165 0.045237
C16   C     C_R   0.524648 0.539137 0.957343 0.026600
C17   C     C_R   0.466754 0.494728 0.046790 0.027643
C18   C     C_3   0.825803 0.070249 0.364172 -0.302345
C19   C     C_3   0.181447 0.945183 0.639702 -0.308004
C20   C     C_R   0.274488 0.418453 0.081318 -0.142972
C21   C     C_R   0.712268 0.626786 0.924649 -0.143600
C22   C     C_R   0.144942 0.382791 0.029654 -0.132780
C23   C     C_R   0.840780 0.665474 0.976725 -0.132353
C24   C     C_2   0.576681 0.964259 0.491984 0.121455
C25   C     C_2   0.425751 0.035041 0.509425 0.104441
C26   C     C_R   0.383983 0.488984 0.666327 0.534584
Cu1   Cu    Cu3+1 0.322120 0.483240 0.490330 0.943812
Cu2   Cu    Cu3+1 0.677880 0.516760 0.509670 0.941781
H1    H     H_    0.999080 0.325008 0.059111 0.117427
H2    H     H_    0.764439 0.671523 0.859344 0.099592
H3    H     H_    0.002563 0.611723 0.570096 0.250389
H4    H     H_    0.997997 0.389235 0.429462 0.235770
H5    H     H_    0.832795 0.125155 0.496415 0.272398
H6    H     H_    0.753205 0.158364 0.348260 0.142961
H7    H     H_    0.789004 0.959472 0.327387 0.154196
H8    H     H_    0.982495 0.114855 0.343259 0.135776
H9    H     H_    0.133008 0.983786 0.520685 0.277019
H10   H     H_    0.035189 0.872914 0.661844 0.134138
H11   H     H_    0.183200 0.064975 0.668621 0.142992
H12   H     H_    0.982665 0.733102 0.948867 0.114999
H13   H     H_    0.280873 0.890906 0.663371 0.144436
H14   H     H_    0.420983 0.415078 0.217275 0.115020
H15   H     H_    0.589487 0.571564 0.780281 0.119113
H16   H     H_    0.972017 0.656919 0.241820 0.135003
H17   H     H_    0.020223 0.372640 0.761994 0.129410
H18   H     H_    0.921282 0.323473 0.919176 0.118671
H19   H     H_    0.064181 0.726249 0.087261 0.118646
H20   H     H_    0.216541 0.386904 0.148842 0.102503
N1    N     N_2   0.945180 0.542040 0.524240 -0.251771
N2    N     N_2   0.054820 0.457960 0.475760 -0.262565
N3    N     N_2   0.770251 0.042132 0.457199 -0.529440
N4    N     N_2   0.234906 0.951451 0.545166 -0.512235
O1    O     O_R   0.384450 0.714270 0.493720 -0.477874
O2    O     O_R   0.615550 0.285730 0.506280 -0.515460
O3    O     O_R   0.684880 0.742590 0.510050 -0.485996
O4    O     O_R   0.315120 0.257410 0.489950 -0.509930
O5    O     O_R   0.265540 0.477900 0.617090 -0.510379
O6    O     O_R   0.734460 0.522100 0.382910 -0.508655
O7    O     O_R   0.565970 0.506210 0.633420 -0.510994
O8    O     O_R   0.434030 0.493790 0.366580 -0.505867

loop_
_geom_bond_atom_site_label_1
_geom_bond_atom_site_label_2
_ccdc_geom_bond_type
C26   O5    A    
C2    C4    S    
Cu1   O1    S    
C16   C21   A    
C3    C9    A    
C19   H10   S    
Cu2   O6    S    
H5    N3    S    
C18   H6    S    
C21   H2    S    
Cu1   N2    S    
C13   C17   A    
C12   C25   S    
C4    C8    A    
C14   C22   A    
C24   N3    S    
C2    O6    A    
C1    O3    A    
C25   N4    S    
C12   O4    A    
C9    C11   A    
H4    N2    S    
C5    C14   A    
C20   H20   S    
C19   H11   S    
H3    N1    S    
C6    C8    A    
C7    H17   S    
C18   H7    S    
C15   C23   A    
C22   H1    S    
Cu2   O3    S    
C20   C22   A    
C18   N3    S    
C3    C7    A    
Cu1   O8    S    
C13   C15   A    
C21   C23   A    
Cu1   O5    S    
C11   C14   A    
C2    O8    A    
C9    H15   S    
C11   C16   A    
C10   H14   S    
C6    H19   S    
C4    C10   A    
C23   H12   S    
C19   H13   S    
C17   C20   A    
C24   C25   D    
C1    C24   S    
N1    N2    D    
C5    H18   S    
Cu2   O7    S    
Cu1   Cu2   S    
C5    C7    A    
H9    N4    S    
Cu2   O2    S    
Cu1   O4    S    
C26   O7    A    
C1    O1    A    
C6    C15   A    
C18   H8    S    
C19   N4    S    
C10   C13   A    
C3    C26   S    
C12   O2    A    
C8    H16   S    
C16   C17   A    
Cu2   N1    S    
