data_mof_unit_40335.cif
_audit_creation_date              2013-03-05T16:03:41-0500
_audit_creation_method            fapswitch 2.2
_symmetry_space_group_name_H-M    P1
_symmetry_Int_Tables_number       1
_space_group_crystal_system       triclinic
_cell_length_a                    8.800561
_cell_length_b                    10.885633
_cell_length_c                    9.49785
_cell_angle_alpha                 90.730356
_cell_angle_beta                  97.720152
_cell_angle_gamma                 89.724523
_cell_volume                      901.566072025

loop_
_atom_site_label
_atom_site_type_symbol
_atom_site_description
_atom_site_fract_x
_atom_site_fract_y
_atom_site_fract_z
_atom_type_partial_charge
O1    O     O_R   0.499990 0.319660 0.618740 -0.604711
O2    O     O_R   0.500010 0.680340 0.381260 -0.604706
O3    O     O_R   0.499990 0.319630 0.381170 -0.539497
O4    O     O_R   0.500010 0.680370 0.618830 -0.539505
C1    C     C_R   0.502812 0.262030 0.498983 0.848158
C2    C     C_R   0.497162 0.737970 0.501016 0.848180
O5    O     O_R   0.274840 0.500010 0.591370 -0.561967
O6    O     O_R   0.725160 0.499990 0.408630 -0.561979
O7    O     O_R   0.274830 0.499980 0.353800 -0.558204
O8    O     O_R   0.725170 0.500020 0.646200 -0.558212
C3    C     C_R   0.204157 0.500206 0.464159 0.831732
C4    C     C_R   0.795841 0.499780 0.535841 0.831767
Cu1   Cu    Cu3+1 0.500000 0.500020 0.640660 1.062995
Cu2   Cu    Cu3+1 0.500000 0.499980 0.359340 1.062998
N1    N     N_R   0.500040 0.500030 0.852080 -0.194086
N2    N     N_R   0.499960 0.499970 0.147920 -0.194104
C5    C     C_2   0.040202 0.485695 0.445746 0.025567
C6    C     C_2   0.959797 0.514266 0.554257 0.025612
C7    C     C_R   0.506417 0.059172 0.369781 0.361868
C8    C     C_R   0.493477 0.940831 0.630221 0.361775
C9    C     C_R   0.499551 0.932234 0.374505 -0.233368
C10   C     C_R   0.500365 0.067770 0.625494 -0.233349
H1    H     H_    0.501776 0.880790 0.276326 0.217150
H2    H     H_    0.498124 0.119221 0.723666 0.217199
C11   C     C_R   0.494555 0.871860 0.503113 -0.206750
C12   C     C_R   0.505374 0.128141 0.496889 -0.206782
C13   C     C_R   0.400462 0.427446 0.061032 0.097127
C14   C     C_R   0.599537 0.572555 0.938968 0.097063
H3    H     H_    0.321006 0.369225 0.106581 0.170947
H4    H     H_    0.678990 0.630778 0.893418 0.170850
C15   C     C_R   0.400487 0.427490 0.912060 0.065618
C16   C     C_R   0.599513 0.572510 0.087941 0.065552
H5    H     H_    0.320968 0.369331 0.845024 0.149199
H6    H     H_    0.679032 0.630669 0.154975 0.149177
N3    N     N_R   0.971641 0.423514 0.318309 0.127089
O9    O     O_R   0.988004 0.467126 0.194324 -0.310747
O10   O     O_R   0.914526 0.314192 0.326312 -0.296831
N4    N     N_R   0.028360 0.576434 0.681699 0.127088
O11   O     O_R   0.012077 0.532765 0.805677 -0.310775
O12   O     O_R   0.085359 0.685798 0.673718 -0.296804
N5    N     N_R   0.517168 0.114871 0.235484 0.132224
O13   O     O_R   0.643682 0.168950 0.214913 -0.266039
O14   O     O_R   0.417061 0.087271 0.126175 -0.317366
N6    N     N_R   0.482614 0.885145 0.764509 0.132174
O15   O     O_R   0.356175 0.830852 0.784895 -0.266022
O16   O     O_R   0.582398 0.913017 0.873967 -0.317305

loop_
_geom_bond_atom_site_label_1
_geom_bond_atom_site_label_2
_geom_bond_distance
_ccdc_geom_bond_type
N4    O12   1.301119 A    
O7    Cu2   1.975243 S    
C15   H5    1.081760 S    
N1    C15   1.366697 A    
C13   H3    1.081811 S    
N5    O14   1.301206 A    
N5    O13   1.300790 A    
N3    O9    1.301278 A    
O5    Cu1   1.973934 S    
O6    C4    1.282535 A    
N2    C13   1.366357 A    
C14   H4    1.081811 S    
C5    C6    1.358406 D    
C6    N4    1.440144 S    
Cu1   Cu2   2.671930 S    
O5    C3    1.282538 A    
O7    C3    1.288630 A    
N1    C14   1.366356 A    
O2    C2    1.295079 A    
O3    Cu2   1.976770 S    
O8    C4    1.288626 A    
O1    C1    1.295055 A    
C8    N6    1.434006 S    
N6    O16   1.301251 A    
Cu2   N2    2.007986 S    
Cu1   N1    2.007988 S    
C9    H1    1.083977 S    
N4    O11   1.301282 A    
O2    Cu2   1.971700 S    
C10   H2    1.083970 S    
C2    C11   1.457475 S    
O1    Cu1   1.971699 S    
C8    C11   1.414620 A    
C13   C15   1.414955 A    
C1    C12   1.457461 S    
O3    C1    1.286904 A    
C14   C16   1.414957 A    
N6    O15   1.300803 A    
O4    C2    1.286891 A    
C10   C12   1.400369 A    
C4    C6    1.439129 S    
O4    Cu1   1.976771 S    
C7    C12   1.414567 A    
C9    C11   1.400386 A    
N2    C16   1.366697 A    
C3    C5    1.439157 S    
O6    Cu2   1.973932 S    
C5    N3    1.440167 S    
N3    O10   1.301123 A    
C7    N5    1.433960 S    
C8    C10   1.384997 A    
C7    C9    1.384979 A    
O8    Cu1   1.975241 S    
C16   H6    1.081759 S    
