data_mof_unit_62572.cif
_audit_creation_date              2012-12-10T17:19:55-0500
_audit_creation_method            fapswitch 2.2
_symmetry_space_group_name_H-M    P1
_symmetry_Int_Tables_number       1
_space_group_crystal_system       triclinic
_cell_length_a                    38.737926
_cell_length_b                    21.677822
_cell_length_c                    21.720886
_cell_angle_alpha                 89.999754
_cell_angle_beta                  124.161605
_cell_angle_gamma                 90.000092
_cell_volume                      15092.9804192

loop_
_atom_site_label
_atom_site_type_symbol
_atom_type_description
_atom_site_fract_x
_atom_site_fract_y
_atom_site_fract_z
_atom_type_partial_charge
C1    C     C_R   0.999617 0.000022 0.118669 0.830162
C2    C     C_R   0.000383 0.000022 0.881331 0.830167
C3    C     C_R   0.499617 0.500022 0.118669 0.830171
C4    C     C_R   0.500383 0.500023 0.881331 0.830139
C5    C     C_3   0.274535 0.018020 0.210597 -0.466731
C6    C     C_3   0.725465 0.018017 0.789404 -0.466729
C7    C     C_3   0.774535 0.518021 0.210598 -0.466727
C8    C     C_3   0.225465 0.518021 0.789403 -0.466730
C9    C     C_3   0.225796 0.020194 0.162180 -0.138155
C10   C     C_3   0.774204 0.020191 0.837820 -0.138159
C11   C     C_3   0.725796 0.520195 0.162181 -0.138165
C12   C     C_3   0.274204 0.520195 0.837819 -0.138156
C13   C     C_1   0.337808 0.002717 0.338128 -0.032098
C14   C     C_1   0.662192 0.002717 0.661871 -0.032097
C15   C     C_1   0.837808 0.502717 0.338129 -0.032099
C16   C     C_1   0.162192 0.502718 0.661871 -0.032098
C17   C     C_1   0.162383 0.999992 0.163299 -0.085995
C18   C     C_1   0.837617 0.999992 0.836700 -0.085994
C19   C     C_1   0.662383 0.499992 0.163300 -0.085995
C20   C     C_1   0.337617 0.499992 0.836701 -0.085995
C21   C     C_1   0.124736 0.999967 0.125276 -0.141146
C22   C     C_1   0.875264 0.999968 0.874724 -0.141145
C23   C     C_1   0.624736 0.499967 0.125276 -0.141148
C24   C     C_1   0.375264 0.499968 0.874725 -0.141149
C25   C     C_R   0.980170 0.047705 0.199529 0.460503
C26   C     C_R   0.019834 0.047701 0.800475 0.460501
C27   C     C_R   0.480164 0.547700 0.199522 0.460501
C28   C     C_R   0.519813 0.547721 0.800452 0.460503
C29   C     C_R   0.979531 0.044579 0.263107 -0.264008
C30   C     C_R   0.020473 0.044575 0.736897 -0.264007
C31   C     C_R   0.479525 0.544573 0.263101 -0.264010
C32   C     C_R   0.520453 0.544595 0.736875 -0.263986
C33   C     C_R   0.999948 0.996806 0.314412 -0.153267
C34   C     C_R   0.000052 0.996807 0.685588 -0.153271
C35   C     C_R   0.499948 0.496806 0.314412 -0.153271
C36   C     C_R   0.500052 0.496808 0.685586 -0.153257
C37   C     C_R   0.019952 0.949167 0.301501 -0.010044
C38   C     C_R   0.980044 0.949170 0.698496 -0.010042
C39   C     C_R   0.519957 0.449171 0.301505 -0.010041
C40   C     C_R   0.480063 0.449154 0.698514 -0.010053
C41   C     C_R   0.019249 0.951250 0.236501 -0.211882
C42   C     C_R   0.980747 0.951254 0.763496 -0.211885
C43   C     C_R   0.519254 0.451255 0.236506 -0.211886
C44   C     C_R   0.480766 0.451238 0.763513 -0.211866
C45   C     C_R   0.079939 0.999994 0.080070 0.823329
C46   C     C_R   0.920061 0.999994 0.919929 0.823325
C47   C     C_R   0.579939 0.499994 0.080071 0.823315
C48   C     C_R   0.420061 0.499994 0.919929 0.823330
C49   C     C_R   0.999524 0.999880 0.185724 -0.154623
C50   C     C_R   0.000476 0.999880 0.814275 -0.154616
C51   C     C_R   0.499524 0.499880 0.185724 -0.154614
C52   C     C_R   0.500476 0.499881 0.814274 -0.154660
C53   C     C_R   0.500000 0.186162 0.500000 -0.023572
C54   C     C_R   0.000000 0.686162 0.500000 -0.023564
C55   C     C_R   0.500000 0.881302 0.500000 0.765652
C56   C     C_R   0.000000 0.381302 0.500000 0.765653
C57   C     C_R   0.420117 0.000237 0.420099 0.811827
C58   C     C_R   0.579883 0.000237 0.579901 0.811826
C59   C     C_R   0.920117 0.500237 0.420099 0.811827
C60   C     C_R   0.079883 0.500238 0.579901 0.811825
C61   C     C_R   0.500000 0.119192 0.500000 0.767249
C62   C     C_R   1.000000 0.619192 0.500000 0.767246
C63   C     C_R   0.000000 0.880848 0.500000 0.750966
C64   C     C_R   0.500000 0.380848 0.500000 0.750962
C65   C     C_R   0.999994 0.998329 0.381111 0.786206
C66   C     C_R   0.000006 0.998329 0.618889 0.786205
C67   C     C_R   0.499994 0.498328 0.381111 0.786204
C68   C     C_R   0.500006 0.498329 0.618888 0.786205
C69   C     C_R   1.000000 0.119149 0.500000 0.785096
C70   C     C_R   0.500000 0.619149 0.500000 0.785092
C71   C     C_R   0.529452 0.782473 0.494275 -0.182930
C72   C     C_R   0.470548 0.782472 0.505726 -0.182928
C73   C     C_R   0.029454 0.282473 0.494283 -0.182932
C74   C     C_R   0.970546 0.282473 0.505718 -0.182931
C75   C     C_R   0.029891 0.218345 0.495509 -0.179477
C76   C     C_R   0.970109 0.218345 0.504491 -0.179475
C77   C     C_R   0.529888 0.718345 0.495502 -0.179477
C78   C     C_R   0.470112 0.718345 0.504499 -0.179478
C79   C     C_3   0.226308 0.934575 0.246277 -0.090542
C80   C     C_3   0.773692 0.934576 0.753721 -0.090543
C81   C     C_3   0.726308 0.434574 0.246276 -0.090543
C82   C     C_3   0.273693 0.434575 0.753725 -0.090537
C83   C     C_R   1.000000 0.186169 0.500000 -0.015297
C84   C     C_R   0.500000 0.686169 0.500000 -0.015288
C85   C     C_R   0.500000 0.814494 0.500000 0.003955
C86   C     C_R   0.000000 0.314495 0.500000 0.003957
C87   C     C_R   0.478906 0.218328 0.432374 -0.169366
C88   C     C_R   0.521093 0.218328 0.567626 -0.169350
C89   C     C_R   0.978905 0.718328 0.432374 -0.169362
C90   C     C_R   0.021096 0.718328 0.567626 -0.169366
C91   C     C_R   0.978299 0.782388 0.432408 -0.165945
C92   C     C_R   0.021701 0.782387 0.567592 -0.165950
C93   C     C_R   0.478301 0.282388 0.432408 -0.165951
C94   C     C_R   0.521699 0.282387 0.567592 -0.165933
C95   C     C_R   0.000000 0.814271 0.500000 -0.001505
C96   C     C_R   0.500000 0.314271 0.500000 -0.001506
C97   C     C_3   0.224819 0.047905 0.274239 -0.412031
C98   C     C_3   0.775181 0.047908 0.725762 -0.412031
C99   C     C_3   0.724819 0.547904 0.274241 -0.412030
C100  C     C_3   0.275180 0.547905 0.725760 -0.412033
C101  C     C_3   0.273592 0.056408 0.320653 0.436443
C102  C     C_3   0.726408 0.056410 0.679349 0.436441
C103  C     C_3   0.773592 0.556407 0.320655 0.436442
C104  C     C_3   0.226408 0.556407 0.679345 0.436446
C105  C     C_1   0.375418 0.001254 0.375305 -0.173780
C106  C     C_1   0.624582 0.001254 0.624695 -0.173780
C107  C     C_1   0.875418 0.501254 0.375305 -0.173780
C108  C     C_1   0.124582 0.501254 0.624695 -0.173781
C109  C     C_3   0.208743 0.000176 0.210028 0.014918
C110  C     C_3   0.791257 0.000176 0.789971 0.014917
C111  C     C_3   0.708743 0.500176 0.210029 0.014916
C112  C     C_3   0.291257 0.500176 0.789972 0.014919
C113  C     C_3   0.275869 0.937636 0.294520 0.271783
C114  C     C_3   0.724131 0.937638 0.705478 0.271781
C115  C     C_3   0.775869 0.437636 0.294519 0.271781
C116  C     C_3   0.224131 0.437636 0.705482 0.271782
C117  C     C_3   0.291658 0.004477 0.293458 0.095966
C118  C     C_3   0.708342 0.004478 0.706542 0.095966
C119  C     C_3   0.791658 0.504477 0.293458 0.095966
C120  C     C_3   0.208342 0.504477 0.706542 0.095965
Cu1   Cu    Cu3+1 0.000000 0.938160 0.000000 1.012896
Cu2   Cu    Cu3+1 0.500000 0.438160 0.000000 1.012895
Cu3   Cu    Cu3+1 0.000000 0.061840 0.000000 0.978849
Cu4   Cu    Cu3+1 0.500000 0.561840 0.000000 0.978845
Cu5   Cu    Cu3+1 0.500000 0.000210 0.561820 0.974283
Cu6   Cu    Cu3+1 0.500000 0.000210 0.438180 0.974280
Cu7   Cu    Cu3+1 0.000000 0.500210 0.561820 0.974281
Cu8   Cu    Cu3+1 0.000000 0.500210 0.438180 0.974282
Cu9   Cu    Cu3+1 0.958680 0.999890 0.458710 0.964708
Cu10  Cu    Cu3+1 0.041320 0.999890 0.541290 0.964703
Cu11  Cu    Cu3+1 0.458680 0.499890 0.458710 0.964703
Cu12  Cu    Cu3+1 0.541320 0.499890 0.541290 0.964713
H1    H     H_    0.286582 0.907785 0.266259 0.028929
H2    H     H_    0.713418 0.907784 0.733737 0.028931
H3    H     H_    0.786582 0.407785 0.266257 0.028930
H4    H     H_    0.213419 0.407786 0.733744 0.028929
H5    H     H_    0.288413 0.060738 0.205449 0.237525
H6    H     H_    0.711586 0.060734 0.794553 0.237525
H7    H     H_    0.788413 0.560739 0.205451 0.237524
H8    H     H_    0.211587 0.560740 0.794549 0.237525
H9    H     H_    0.963479 0.079959 0.273097 0.147385
H10   H     H_    0.036528 0.079952 0.726909 0.147387
H11   H     H_    0.463469 0.579950 0.273087 0.147388
H12   H     H_    0.536492 0.579989 0.726872 0.147376
H13   H     H_    0.034221 0.914922 0.225268 0.208012
H14   H     H_    0.965772 0.914929 0.774726 0.208009
H15   H     H_    0.534230 0.414931 0.225276 0.208007
H16   H     H_    0.465806 0.414899 0.774757 0.208028
H17   H     H_    0.552428 0.807099 0.490160 0.133217
H18   H     H_    0.447572 0.807098 0.509841 0.133214
H19   H     H_    0.052433 0.307099 0.490173 0.133213
H20   H     H_    0.947567 0.307099 0.509827 0.133213
H21   H     H_    0.053031 0.193880 0.491738 0.144880
H22   H     H_    0.946969 0.193880 0.508262 0.144880
H23   H     H_    0.553027 0.693880 0.491725 0.144877
H24   H     H_    0.446973 0.693879 0.508276 0.144871
H25   H     H_    0.462286 0.193916 0.379780 0.148883
H26   H     H_    0.537714 0.193915 0.620220 0.148886
H27   H     H_    0.962283 0.693916 0.379780 0.148881
H28   H     H_    0.037717 0.693915 0.620220 0.148880
H29   H     H_    0.961572 0.807089 0.379994 0.135240
H30   H     H_    0.038429 0.807088 0.620006 0.135240
H31   H     H_    0.461575 0.307089 0.379994 0.135238
H32   H     H_    0.538425 0.307088 0.620006 0.135239
H33   H     H_    0.209047 0.092935 0.250049 0.213822
H34   H     H_    0.790953 0.092937 0.749954 0.213823
H35   H     H_    0.709047 0.592934 0.250052 0.213822
H36   H     H_    0.290953 0.592934 0.749948 0.213821
H37   H     H_    0.213692 0.035197 0.309858 0.154426
H38   H     H_    0.786308 0.035202 0.690143 0.154427
H39   H     H_    0.713692 0.535195 0.309859 0.154427
H40   H     H_    0.286308 0.535196 0.690141 0.154423
H41   H     H_    0.214551 0.987091 0.115627 0.097856
H42   H     H_    0.785449 0.987086 0.884372 0.097857
H43   H     H_    0.714551 0.487093 0.115627 0.097858
H44   H     H_    0.285449 0.487093 0.884373 0.097857
H45   H     H_    0.284837 0.981168 0.188598 0.140544
H46   H     H_    0.715163 0.981164 0.811401 0.140545
H47   H     H_    0.784837 0.481169 0.188598 0.140545
H48   H     H_    0.215162 0.481170 0.811402 0.140544
O1    O     O_R   0.999990 0.947780 0.090170 -0.590125
O2    O     O_R   0.000010 0.947780 0.909830 -0.590124
O3    O     O_R   0.499990 0.447780 0.090170 -0.590124
O4    O     O_R   0.500010 0.447780 0.909830 -0.590126
O5    O     O_R   0.965120 0.999890 0.374970 -0.575432
O6    O     O_R   0.034880 0.999890 0.625030 -0.575433
O7    O     O_R   0.465120 0.499890 0.374970 -0.575434
O8    O     O_R   0.534880 0.499890 0.625030 -0.575429
O9    O     O_R   0.034900 0.999930 0.444740 -0.588798
O10   O     O_R   0.965100 0.999930 0.555260 -0.588798
O11   O     O_R   0.534900 0.499930 0.444740 -0.588799
O12   O     O_R   0.465100 0.499930 0.555260 -0.588791
O13   O     O_R   0.965090 0.090120 0.465150 -0.583979
O14   O     O_R   0.034910 0.090120 0.534850 -0.583980
O15   O     O_R   0.465090 0.590120 0.465150 -0.583981
O16   O     O_R   0.534910 0.590120 0.534850 -0.583977
O17   O     O_R   0.999990 0.052220 0.090220 -0.561844
O18   O     O_R   0.000010 0.052220 0.909780 -0.561850
O19   O     O_R   0.499990 0.552220 0.090220 -0.561849
O20   O     O_R   0.500010 0.552220 0.909780 -0.561839
O21   O     O_R   0.060280 0.947780 0.060280 -0.567006
O22   O     O_R   0.939720 0.947780 0.939720 -0.567005
O23   O     O_R   0.560280 0.447780 0.060280 -0.567005
O24   O     O_R   0.439720 0.447780 0.939720 -0.567003
O25   O     O_R   0.060280 0.052220 0.060320 -0.583571
O26   O     O_R   0.939720 0.052220 0.939680 -0.583569
O27   O     O_R   0.560280 0.552220 0.060320 -0.583568
O28   O     O_R   0.439720 0.552220 0.939680 -0.583575
O29   O     O_R   0.500000 0.909980 0.552210 -0.583976
O30   O     O_R   0.500000 0.909980 0.447790 -0.583975
O31   O     O_R   1.000000 0.409980 0.552210 -0.583974
O32   O     O_R   0.000000 0.409980 0.447790 -0.583974
O33   O     O_R   0.439710 0.000200 0.491930 -0.562200
O34   O     O_R   0.560290 0.000200 0.508070 -0.562200
O35   O     O_R   0.939710 0.500200 0.491930 -0.562201
O36   O     O_R   0.060290 0.500200 0.508070 -0.562200
O37   O     O_R   0.439720 0.000170 0.387560 -0.584734
O38   O     O_R   0.560280 0.000170 0.612440 -0.584733
O39   O     O_R   0.939720 0.500170 0.387560 -0.584733
O40   O     O_R   0.060280 0.500170 0.612440 -0.584733
O41   O     O_R   0.500000 0.090430 0.552220 -0.581812
O42   O     O_R   0.500000 0.090430 0.447780 -0.581816
O43   O     O_R   0.000000 0.590430 0.552220 -0.581814
O44   O     O_R   1.000000 0.590430 0.447780 -0.581814
O45   O     O_R   0.965130 0.909670 0.465120 -0.586712
O46   O     O_R   0.034870 0.909670 0.534880 -0.586711
O47   O     O_R   0.465130 0.409670 0.465120 -0.586707
O48   O     O_R   0.534870 0.409670 0.534880 -0.586713
O49   O     O_3   0.293843 0.917089 0.368905 -0.510396
C121  C     C_3   0.323319 0.869009 0.390464 0.128214
H49   H     H_    0.344286 0.869449 0.452179 0.183836
H50   H     H_    0.343752 0.876170 0.370065 0.103238
C122  C     C_3   0.301555 0.806173 0.365628 -0.359678
H51   H     H_    0.282255 0.799601 0.388303 0.254113
H52   H     H_    0.280676 0.804333 0.303957 0.223370
C123  C     C_3   0.333285 0.753867 0.392831 -0.910661
H53   H     H_    0.352535 0.759129 0.369894 0.255686
H54   H     H_    0.316693 0.708962 0.373989 0.271996
H55   H     H_    0.354035 0.753760 0.454579 0.253795
O50   O     O_3   0.706158 0.917093 0.631091 -0.510396
C124  C     C_3   0.676682 0.869012 0.609530 0.128213
H56   H     H_    0.655715 0.869454 0.547816 0.183837
H57   H     H_    0.656249 0.876171 0.629930 0.103238
C125  C     C_3   0.698446 0.806176 0.634365 -0.359678
H58   H     H_    0.717747 0.799607 0.611691 0.254114
H59   H     H_    0.719326 0.804335 0.696036 0.223370
C126  C     C_3   0.666717 0.753869 0.607160 -0.910652
H60   H     H_    0.647467 0.759129 0.630097 0.255686
H61   H     H_    0.683309 0.708965 0.626001 0.271999
H62   H     H_    0.645967 0.753764 0.545413 0.253798
O51   O     O_3   0.793843 0.417087 0.368904 -0.510396
C127  C     C_3   0.823319 0.369007 0.390462 0.128214
H63   H     H_    0.844286 0.369447 0.452177 0.183837
H64   H     H_    0.843752 0.376169 0.370063 0.103237
C128  C     C_3   0.801555 0.306172 0.365625 -0.359676
H65   H     H_    0.782255 0.299599 0.388299 0.254114
H66   H     H_    0.780676 0.304332 0.303954 0.223370
C129  C     C_3   0.833285 0.253866 0.392826 -0.910655
H67   H     H_    0.852535 0.259129 0.369890 0.255684
H68   H     H_    0.816694 0.208961 0.373983 0.271998
H69   H     H_    0.854035 0.253758 0.454574 0.253797
O52   O     O_3   0.206157 0.417088 0.631097 -0.510395
C130  C     C_3   0.176681 0.369008 0.609540 0.128214
H70   H     H_    0.155714 0.369448 0.547825 0.183836
H71   H     H_    0.156248 0.376170 0.629939 0.103237
C131  C     C_3   0.198445 0.306172 0.634378 -0.359679
H72   H     H_    0.217746 0.299600 0.611703 0.254113
H73   H     H_    0.219325 0.304333 0.696049 0.223369
C132  C     C_3   0.166715 0.253866 0.607177 -0.910658
H74   H     H_    0.147466 0.259129 0.630114 0.255685
H75   H     H_    0.183307 0.208961 0.626020 0.271998
H76   H     H_    0.145965 0.253758 0.545429 0.253797
C133  C     C_2   0.212319 0.886067 0.185077 0.241829
H77   H     H_    0.224177 0.887859 0.150217 0.087279
O53   O     O_2   0.188639 0.843928 0.174680 -0.533511
C134  C     C_2   0.787681 0.886066 0.814919 0.241827
H78   H     H_    0.775823 0.887855 0.849778 0.087281
O54   O     O_2   0.811361 0.843928 0.825315 -0.533509
C135  C     C_2   0.712319 0.386067 0.185074 0.241827
H79   H     H_    0.724177 0.387860 0.150215 0.087280
O55   O     O_2   0.688639 0.343928 0.174677 -0.533509
C136  C     C_2   0.287681 0.386067 0.814927 0.241828
H80   H     H_    0.275823 0.387860 0.849786 0.087279
O56   O     O_2   0.311361 0.343929 0.825325 -0.533510
O57   O     O_3   0.958296 0.093499 0.146799 -0.602840
C137  C     C_3   0.973810 0.152906 0.177279 0.068113
H81   H     H_    0.984545 0.174985 0.144662 0.170618
H82   H     H_    0.001188 0.152942 0.236566 0.119406
C138  C     C_3   0.938657 0.191982 0.169442 -0.344288
H83   H     H_    0.912871 0.195883 0.109615 0.235499
H84   H     H_    0.926222 0.169245 0.198979 0.218056
C139  C     C_3   0.953905 0.256497 0.201584 -0.898882
H85   H     H_    0.978951 0.253720 0.261921 0.257206
H86   H     H_    0.927610 0.283751 0.194431 0.262576
H87   H     H_    0.966040 0.280549 0.172282 0.258196
O58   O     O_3   0.041712 0.093490 0.853210 -0.602847
C140  C     C_3   0.026205 0.152901 0.822736 0.068114
H88   H     H_    0.015472 0.174983 0.855355 0.170621
H89   H     H_    0.998827 0.152943 0.763449 0.119406
C141  C     C_3   0.061362 0.191968 0.830576 -0.344292
H90   H     H_    0.087150 0.195860 0.890403 0.235502
H91   H     H_    0.073793 0.169229 0.801033 0.218053
C142  C     C_3   0.046123 0.256488 0.798445 -0.898881
H92   H     H_    0.021074 0.253719 0.738109 0.257207
H93   H     H_    0.072419 0.283734 0.805599 0.262574
H94   H     H_    0.033993 0.280542 0.827754 0.258197
O59   O     O_3   0.458285 0.593487 0.146786 -0.602849
C143  C     C_3   0.473788 0.652900 0.177258 0.068112
H95   H     H_    0.484521 0.674983 0.144640 0.170621
H96   H     H_    0.501166 0.652944 0.236546 0.119406
C144  C     C_3   0.438628 0.691962 0.169413 -0.344289
H97   H     H_    0.412842 0.695852 0.109585 0.235501
H98   H     H_    0.426198 0.669220 0.198955 0.218052
C145  C     C_3   0.453864 0.756483 0.201542 -0.898883
H99   H     H_    0.478912 0.753717 0.261878 0.257207
H100  H     H_    0.427565 0.783726 0.194385 0.262574
H101  H     H_    0.465994 0.780540 0.172233 0.258197
O60   O     O_3   0.541668 0.593536 0.853159 -0.602817
C146  C     C_3   0.526115 0.652926 0.822657 0.068126
H102  H     H_    0.515372 0.674980 0.855275 0.170617
H103  H     H_    0.498732 0.652931 0.763374 0.119400
C147  C     C_3   0.561238 0.692058 0.830460 -0.344289
H104  H     H_    0.587028 0.695986 0.890282 0.235497
H105  H     H_    0.573680 0.669347 0.800920 0.218051
C148  C     C_3   0.545947 0.756556 0.798294 -0.898868
H106  H     H_    0.520896 0.753753 0.737962 0.257199
H107  H     H_    0.572221 0.783851 0.805423 0.262577
H108  H     H_    0.533803 0.780582 0.827598 0.258191
C149  C     C_2   0.039999 0.896064 0.353339 0.383506
H109  H     H_    0.037454 0.890553 0.400249 0.071104
O61   O     O_2   0.059478 0.857254 0.343950 -0.531478
C150  C     C_2   0.959993 0.896071 0.646655 0.383512
H110  H     H_    0.962540 0.890557 0.599747 0.071108
O62   O     O_2   0.940508 0.857267 0.656039 -0.531476
C151  C     C_2   0.540009 0.396073 0.353348 0.383510
H111  H     H_    0.537462 0.390558 0.400256 0.071110
O63   O     O_2   0.559495 0.357269 0.343966 -0.531475
C152  C     C_2   0.460031 0.396040 0.646690 0.383494
H112  H     H_    0.462573 0.390537 0.599775 0.071083
O64   O     O_2   0.440568 0.357212 0.656096 -0.531480
C153  C     C_2   0.208176 0.916093 0.291287 0.484831
H113  H     H_    0.176996 0.896670 0.262587 0.108175
O65   O     O_2   0.226208 0.926174 0.357842 -0.505104
C154  C     C_2   0.791824 0.916097 0.708710 0.484832
H114  H     H_    0.823004 0.896674 0.737410 0.108176
O66   O     O_2   0.773792 0.926180 0.642156 -0.505101
C155  C     C_2   0.708176 0.416090 0.291285 0.484834
H115  H     H_    0.676996 0.396668 0.262584 0.108177
O67   O     O_2   0.726208 0.426171 0.357840 -0.505100
C156  C     C_2   0.291824 0.416092 0.708716 0.484825
H116  H     H_    0.323004 0.396669 0.737417 0.108172
O68   O     O_2   0.273792 0.426172 0.642161 -0.505109
C157  C     C_2   0.289252 0.052591 0.402512 0.405923
H117  H     H_    0.275155 0.082249 0.422885 0.065469
O69   O     O_2   0.317712 0.018627 0.446605 -0.509433
C158  C     C_2   0.710748 0.052597 0.597490 0.405924
H118  H     H_    0.724845 0.082257 0.577118 0.065471
O70   O     O_2   0.682288 0.018634 0.553396 -0.509432
C159  C     C_2   0.789252 0.552588 0.402513 0.405923
H119  H     H_    0.775156 0.582246 0.422888 0.065471
O71   O     O_2   0.817712 0.518625 0.446605 -0.509433
C160  C     C_2   0.210748 0.552589 0.597487 0.405923
H120  H     H_    0.224844 0.582247 0.577113 0.065468
O72   O     O_2   0.182288 0.518625 0.553395 -0.509434
O73   O     O_3   0.278948 0.118617 0.304436 -0.605190
C161  C     C_3   0.319603 0.140094 0.330021 0.092502
H121  H     H_    0.314818 0.185474 0.302545 0.197848
H122  H     H_    0.335275 0.112652 0.309840 0.127007
C162  C     C_3   0.347955 0.151458 0.414299 -0.413003
H123  H     H_    0.330255 0.175989 0.433123 0.239176
H124  H     H_    0.359611 0.107054 0.444341 0.250094
C163  C     C_3   0.386094 0.189735 0.434722 -0.844925
H125  H     H_    0.404088 0.165737 0.416197 0.239581
H126  H     H_    0.406595 0.195882 0.496008 0.275986
H127  H     H_    0.376480 0.235971 0.408228 0.260087
O74   O     O_3   0.721052 0.118619 0.695568 -0.605189
C164  C     C_3   0.680397 0.140095 0.669983 0.092504
H128  H     H_    0.685182 0.185474 0.697462 0.197849
H129  H     H_    0.664725 0.112650 0.690164 0.127007
C165  C     C_3   0.652045 0.151461 0.585707 -0.412997
H130  H     H_    0.669745 0.175994 0.566884 0.239178
H131  H     H_    0.640389 0.107059 0.555662 0.250092
C166  C     C_3   0.613906 0.189739 0.565285 -0.844934
H132  H     H_    0.595912 0.165739 0.583808 0.239581
H133  H     H_    0.593406 0.195888 0.503999 0.275979
H134  H     H_    0.623520 0.235973 0.591780 0.260090
O75   O     O_3   0.778948 0.618617 0.304439 -0.605190
C167  C     C_3   0.819603 0.640093 0.330025 0.092505
H135  H     H_    0.814818 0.685474 0.302548 0.197849
H136  H     H_    0.835275 0.612652 0.309843 0.127006
C168  C     C_3   0.847955 0.651456 0.414302 -0.412999
H137  H     H_    0.830255 0.675987 0.433126 0.239178
H138  H     H_    0.859611 0.607052 0.444344 0.250092
C169  C     C_3   0.886094 0.689734 0.434726 -0.844928
H139  H     H_    0.904088 0.665737 0.416201 0.239580
H140  H     H_    0.906594 0.695880 0.496012 0.275979
H141  H     H_    0.876480 0.735970 0.408233 0.260089
O76   O     O_3   0.221052 0.618617 0.695561 -0.605189
C170  C     C_3   0.180397 0.640094 0.669974 0.092499
H142  H     H_    0.185182 0.685474 0.697450 0.197848
H143  H     H_    0.164725 0.612652 0.690157 0.127007
C171  C     C_3   0.152044 0.651457 0.585697 -0.413000
H144  H     H_    0.169745 0.675987 0.566873 0.239177
H145  H     H_    0.140389 0.607053 0.555655 0.250093
C172  C     C_3   0.113906 0.689735 0.565272 -0.844927
H146  H     H_    0.095912 0.665737 0.583798 0.239580
H147  H     H_    0.093405 0.695881 0.503987 0.275981
H148  H     H_    0.123520 0.735971 0.591765 0.260089
C173  C     C_2   0.208065 0.082024 0.124006 0.438779
H149  H     H_    0.175035 0.085419 0.080491 0.065459
O77   O     O_2   0.229702 0.128114 0.140649 -0.519951
C174  C     C_2   0.791934 0.082020 0.875996 0.438783
H150  H     H_    0.824965 0.085415 0.919511 0.065459
O78   O     O_2   0.770298 0.128110 0.859356 -0.519948
C175  C     C_2   0.708065 0.582026 0.124009 0.438793
H151  H     H_    0.675035 0.585422 0.080495 0.065463
O79   O     O_2   0.729702 0.628116 0.140652 -0.519944
C176  C     C_2   0.291934 0.582025 0.875991 0.438777
H152  H     H_    0.324965 0.585421 0.919506 0.065459
O80   O     O_2   0.270298 0.628116 0.859348 -0.519952

loop_
_geom_bond_atom_site_label_1
_geom_bond_atom_site_label_2
_ccdc_geom_bond_type
C10   H42   S    
C168  C169  S    
C147  H105  S    
C128  H66   S    
Cu9   O5    S    
C140  H89   S    
Cu3   O18   S    
C99   C103  S    
Cu8   O44   S    
C142  H93   S    
C136  H80   S    
C165  H131  S    
C26   C50   A    
C59   O35   A    
C147  C148  S    
C29   C33   A    
C80   C134  S    
C102  O74   S    
C163  H125  S    
Cu3   O25   S    
C170  H143  S    
C164  C165  S    
Cu5   O33   S    
C27   C51   A    
C70   O15   A    
C88   H26   S    
C70   C84   S    
C176  O80   D    
C143  C144  S    
C162  C163  S    
C113  H1    S    
Cu4   O28   S    
C73   C75   A    
Cu12  O8    S    
C76   C83   A    
C41   C49   A    
C157  O69   D    
C67   O7    A    
Cu7   O40   S    
C99   H35   S    
C25   C29   A    
C79   C109  S    
C27   C31   A    
C7    C119  S    
C28   C32   A    
C151  O63   D    
C1    O1    A    
C145  H99   S    
C98   C102  S    
C17   C21   T    
C81   C155  S    
Cu2   O23   S    
C19   C23   T    
O49   C121  S    
C55   O29   A    
C8    H48   S    
C90   C92   A    
C142  H92   S    
C48   O28   A    
C69   O13   A    
C94   C96   A    
C58   O34   A    
O58   C140  S    
C65   O9    A    
C132  H75   S    
C166  H132  S    
Cu1   Cu3   S    
C141  H90   S    
C114  O50   S    
C126  H62   S    
C130  H71   S    
C137  C138  S    
C81   C135  S    
Cu11  O15   S    
C17   C109  S    
C36   C68   S    
C5    H5    S    
C19   C111  S    
C74   C86   A    
C163  H127  S    
C8    H8    S    
Cu12  O48   S    
Cu1   O21   S    
C66   O6    A    
C172  H146  S    
C137  H82   S    
C134  H78   S    
Cu7   O35   S    
C139  H86   S    
C135  O55   D    
C31   H11   S    
C156  H116  S    
C32   H12   S    
C169  H139  S    
C9    C173  S    
C151  H111  S    
Cu8   O36   S    
C87   H25   S    
Cu10  O46   S    
C10   C174  S    
C159  H119  S    
C124  H57   S    
C173  H149  S    
O73   C161  S    
C134  O54   D    
C127  H63   S    
Cu11  O7    S    
C146  H103  S    
C100  H40   S    
C100  C104  S    
C75   C83   A    
C34   C66   S    
C72   C85   A    
C63   O45   A    
C125  H58   S    
Cu4   O19   S    
C74   C76   A    
C32   C36   A    
C174  H150  S    
C54   C90   A    
C16   C120  S    
C104  O76   S    
C115  O51   S    
C160  H120  S    
C93   H31   S    
C15   C107  T    
C170  H142  S    
C123  H53   S    
C57   O37   A    
C124  H56   S    
C148  H107  S    
C61   O42   A    
C72   C78   A    
C2    C50   S    
C53   C61   S    
C123  H54   S    
C167  H135  S    
C25   C49   A    
C175  O79   D    
C9    H41   S    
C62   O44   A    
C89   C91   A    
C122  H51   S    
C141  C142  S    
C12   H44   S    
Cu5   O38   S    
C44   C52   A    
C99   C111  S    
C149  O61   D    
C26   O58   S    
C121  H49   S    
C143  H96   S    
C89   H27   S    
C21   C45   S    
C153  O65   D    
C88   C94   A    
C23   C47   S    
C30   C34   A    
C24   C48   S    
C150  H110  S    
C64   C96   S    
C56   O31   A    
C172  H148  S    
Cu5   O29   S    
C77   C84   A    
C59   C107  S    
C116  C120  S    
C5    C9    S    
C97   C109  S    
C75   H21   S    
Cu8   O39   S    
C35   C67   S    
C8    C12   S    
C29   H9    S    
C158  O70   D    
C138  H83   S    
C114  H2    S    
C11   C175  S    
C53   C87   A    
C161  C162  S    
C98   H34   S    
C131  H73   S    
C42   C50   A    
C127  C128  S    
C113  C117  S    
Cu2   O3    S    
C57   O33   A    
C26   C30   A    
C115  C119  S    
C79   C113  S    
Cu2   Cu4   S    
C82   C136  S    
C12   C112  S    
Cu1   O2    S    
Cu9   Cu10  S    
C46   O26   A    
C18   C22   T    
Cu3   O17   S    
C1    O17   A    
C154  O66   D    
C131  C132  S    
C113  O49   S    
O52   C130  S    
Cu5   O41   S    
C48   O24   A    
C136  O56   D    
C123  H55   S    
C124  C125  S    
C144  H98   S    
C129  H67   S    
C60   O36   A    
C166  H134  S    
C77   H23   S    
C58   O38   A    
C78   H24   S    
C115  H3    S    
C167  C168  S    
C87   C93   A    
C72   H18   S    
C76   H22   S    
O50   C124  S    
C133  O53   D    
C163  H126  S    
C37   C41   A    
C122  C123  S    
C164  H129  S    
C91   C95   A    
C98   H38   S    
C40   C44   A    
C154  H114  S    
C68   O8    A    
C70   O16   A    
Cu9   O45   S    
C165  H130  S    
C3    O3    A    
C64   O47   A    
C39   C151  S    
C162  H124  S    
C176  H152  S    
C98   C110  S    
C130  C131  S    
C71   C77   A    
C157  H117  S    
O51   C127  S    
Cu11  O12   S    
O74   C164  S    
C171  H144  S    
C60   O40   A    
C103  C159  S    
C145  H100  S    
C63   C95   S    
C138  C139  S    
C168  H138  S    
C149  H109  S    
Cu2   O24   S    
C37   C149  S    
C161  H121  S    
Cu6   O34   S    
C20   C112  S    
C135  H79   S    
C15   C119  S    
C60   C108  S    
C145  H101  S    
C102  C158  S    
C147  H104  S    
C128  C129  S    
C79   C133  S    
C2    O18   A    
C132  H74   S    
C6    H46   S    
C141  H91   S    
C142  H94   S    
C126  H61   S    
C9    C109  S    
C11   C111  S    
O59   C143  S    
C13   C105  T    
C155  H115  S    
C3    C51   S    
C54   C62   S    
C12   C176  S    
C33   C37   A    
Cu3   O26   S    
C82   C112  S    
C55   C85   S    
C35   C39   A    
O57   C137  S    
C82   C156  S    
Cu6   O42   S    
C47   O23   A    
C156  O68   D    
C169  H140  S    
C101  C157  S    
C22   C46   S    
C100  C112  S    
Cu4   O27   S    
Cu5   Cu6   S    
C31   C35   A    
Cu10  O9    S    
Cu7   Cu8   S    
C42   H14   S    
C94   H32   S    
C14   C106  T    
Cu1   O1    S    
C92   H30   S    
C45   O25   A    
C18   C110  S    
Cu10  O14   S    
C169  H141  S    
C6    C10   S    
C13   C117  S    
C56   O32   A    
C116  H4    S    
Cu4   O20   S    
C11   H43   S    
C30   H10   S    
C101  C117  S    
C174  O78   D    
C82   C116  S    
C125  C126  S    
Cu8   O32   S    
C55   O30   A    
C43   C51   A    
C71   H17   S    
C160  O72   D    
C97   H33   S    
C69   O14   A    
C27   O59   S    
C10   C110  S    
C90   H28   S    
C148  H106  S    
C61   O41   A    
C146  H102  S    
Cu11  O47   S    
C46   O22   A    
C41   H13   S    
C167  H136  S    
C132  H76   S    
C91   H29   S    
C104  C120  S    
C170  C171  S    
C57   C105  S    
C144  H97   S    
C140  H88   S    
C33   C65   S    
C168  H137  S    
C153  H113  S    
C7    C11   S    
C4    C52   S    
C152  O64   D    
C139  H85   S    
C150  O62   D    
Cu1   O22   S    
C38   C42   A    
C172  H147  S    
C137  H81   S    
C67   O11   A    
C99   H39   S    
C68   O12   A    
C66   O10   A    
C79   C153  S    
C97   H37   S    
C121  C122  S    
C2    O2    A    
C44   H16   S    
C71   C85   A    
C56   C86   S    
C81   C111  S    
C125  H59   S    
C14   C118  S    
C3    O19   A    
C173  O77   D    
C102  C118  S    
Cu6   O37   S    
Cu7   O43   S    
Cu2   O4    S    
C146  C147  S    
C80   C154  S    
C73   H19   S    
C25   O57   S    
C74   H20   S    
C104  C160  S    
C63   O46   A    
C171  H145  S    
C65   O5    A    
C20   C24   T    
C36   C40   A    
C43   H15   S    
C54   C89   A    
Cu6   O30   S    
C39   C43   A    
C103  O75   S    
C92   C95   A    
C5    C117  S    
C58   C106  S    
C28   O60   S    
C6    H6    S    
C148  H108  S    
C129  H68   S    
C166  H133  S    
O60   C146  S    
C69   C83   S    
C78   C84   A    
C155  O67   D    
C171  C172  S    
C127  H64   S    
C175  H151  S    
C4    O20   A    
C121  H50   S    
Cu9   O10   S    
C81   C115  S    
C133  H77   S    
C7    H47   S    
C159  O71   D    
C38   C150  S    
C62   O43   A    
C4    O4    A    
C122  H52   S    
Cu12  O11   S    
C5    H45   S    
C164  H128  S    
C114  C118  S    
Cu7   O31   S    
C80   C114  S    
C93   C96   A    
C140  C141  S    
C129  H69   S    
C101  O73   S    
C128  H65   S    
C64   O48   A    
C143  H95   S    
C8    C120  S    
C162  H123  S    
C34   C38   A    
C139  H87   S    
C103  C119  S    
Cu9   O13   S    
C126  H60   S    
Cu10  O6    S    
C47   O27   A    
C100  H36   S    
C130  H70   S    
C59   O39   A    
C7    H7    S    
C28   C52   A    
C165  C166  S    
C158  H118  S    
C138  H84   S    
C53   C88   A    
Cu11  Cu12  S    
C161  H122  S    
C73   C86   A    
C116  O52   S    
C131  H72   S    
C16   C108  T    
C40   C152  S    
C45   O21   A    
C152  H112  S    
C144  C145  S    
C80   C110  S    
Cu12  O16   S    
O76   C170  S    
C1    C49   S    
C6    C118  S    
C97   C101  S    
O75   C167  S    
