data_mof_unit_41183.cif
_audit_creation_date              2012-12-10T17:31:05-0500
_audit_creation_method            fapswitch 2.2
_symmetry_space_group_name_H-M    P1
_symmetry_Int_Tables_number       1
_space_group_crystal_system       triclinic
_cell_length_a                    11.997423
_cell_length_b                    12.893035
_cell_length_c                    15.429154
_cell_angle_alpha                 87.15535
_cell_angle_beta                  115.764025
_cell_angle_gamma                 93.448234
_cell_volume                      2144.75673787

loop_
_atom_site_label
_atom_site_type_symbol
_atom_type_description
_atom_site_fract_x
_atom_site_fract_y
_atom_site_fract_z
_atom_type_partial_charge
C1    C     C_R   0.477653 0.299420 0.499325 0.891073
C2    C     C_R   0.662455 0.969651 0.528803 -0.207260
C3    C     C_R   0.348889 0.137595 0.476651 -0.191120
C4    C     C_R   0.651229 0.862417 0.523642 -0.192207
C5    C     C_R   0.568737 0.132015 0.517387 -0.268819
C6    C     C_R   0.431405 0.868003 0.482977 -0.268539
C7    C     C_R   0.558315 0.025572 0.511867 0.183863
C8    C     C_R   0.441845 0.974440 0.488549 0.183790
C9    C     C_R   0.999290 0.592895 0.404635 -0.317876
C10   C     C_R   0.000995 0.407554 0.595833 -0.328302
C11   C     C_R   0.120886 0.584779 0.414763 0.028392
C12   C     C_R   0.522377 0.700584 0.500739 0.893640
C13   C     C_R   0.879246 0.415467 0.585476 0.029649
C14   C     C_R   0.163339 0.461179 0.542824 -0.052857
C15   C     C_R   0.836826 0.539017 0.457398 -0.048311
C16   C     C_R   0.576256 0.493195 0.680648 0.895801
C17   C     C_R   0.423087 0.503543 0.319360 0.894698
C18   C     C_R   0.041678 0.466793 0.535287 0.087438
C19   C     C_R   0.958560 0.533515 0.465075 0.088872
C20   C     C_R   0.618884 0.470301 0.783346 -0.098844
C21   C     C_R   0.372547 0.496963 0.215013 -0.104345
C22   C     C_R   0.749328 0.376659 0.929451 0.178501
C23   C     C_R   0.597313 0.370539 0.095009 -0.231827
C24   C     C_R   0.211058 0.527345 0.054503 0.179984
C25   C     C_R   0.725894 0.415665 0.837144 -0.188076
C26   C     C_R   0.253406 0.528480 0.154204 -0.198173
C27   C     C_R   0.537213 0.487677 0.822308 -0.252870
C28   C     C_R   0.446828 0.458618 0.176633 -0.258710
C29   C     C_R   0.551163 0.441080 0.909487 0.063995
C30   C     C_R   0.407105 0.454840 0.077397 0.069236
C31   C     C_R   0.661901 0.389428 0.966512 0.105787
C32   C     C_R   0.288793 0.492787 0.015332 0.112932
C33   C     C_R   0.458509 0.448283 0.942051 0.089091
C34   C     C_R   0.337365 0.478549 0.880247 -0.239410
C35   C     C_R   0.487631 0.423535 0.039201 0.088038
C36   C     C_R   0.681489 0.351987 0.058386 -0.187997
C37   C     C_R   0.253265 0.498354 0.916251 -0.188299
C38   C     C_R   0.535883 0.811921 0.501627 -0.058731
C39   C     C_R   0.464219 0.188092 0.498615 -0.057193
C40   C     C_R   0.337697 0.030358 0.471593 -0.207067
H1    H     H_    0.763267 0.310594 0.103997 0.184309
H2    H     H_    0.789025 0.400477 0.806530 0.177800
H3    H     H_    0.618441 0.339426 0.166417 0.151998
H4    H     H_    0.304426 0.485304 0.803050 0.148552
H5    H     H_    0.341646 0.829029 0.464874 0.160481
H6    H     H_    0.658489 0.170999 0.535484 0.160526
H7    H     H_    0.732451 0.819206 0.538134 0.167144
H8    H     H_    0.267647 0.180807 0.462094 0.167060
H9    H     H_    0.248154 0.991380 0.453938 0.143440
H10   H     H_    0.752001 0.008629 0.546466 0.143558
H11   H     H_    0.772311 0.590568 0.404055 0.130209
H12   H     H_    0.162459 0.522412 0.865815 0.183976
H13   H     H_    0.227912 0.409699 0.596226 0.127815
H14   H     H_    0.848867 0.369925 0.632678 0.129966
H15   H     H_    0.151278 0.630396 0.367611 0.129167
H16   H     H_    0.937645 0.645002 0.349816 0.152202
H17   H     H_    0.062761 0.355693 0.650869 0.151858
H18   H     H_    0.539041 0.437335 0.225823 0.164784
H19   H     H_    0.460876 0.537083 0.782122 0.164275
H20   H     H_    0.195001 0.557599 0.184049 0.176674
I1    I     I_    0.914122 0.293974 0.004335 -0.379430
I2    I     I_    0.033911 0.588439 0.969884 -0.387938
N1    N     N_R   0.799120 0.480200 0.517090 -0.098851
N2    N     N_R   0.200880 0.519800 0.482910 -0.097526
O1    O     O_R   0.580150 0.341050 0.504560 -0.627500
O2    O     O_R   0.419850 0.658950 0.495440 -0.625306
O3    O     O_R   0.388090 0.353760 0.493600 -0.620518
O4    O     O_R   0.611910 0.646240 0.506400 -0.619876
O5    O     O_R   0.650890 0.490020 0.640860 -0.613154
O6    O     O_R   0.349110 0.509980 0.359140 -0.615717
O7    O     O_R   0.458830 0.502730 0.629890 -0.621129
O8    O     O_R   0.541170 0.497270 0.370110 -0.621783
Zn1   Zn    Zn3+2 0.628240 0.491510 0.507320 0.947330
Zn2   Zn    Zn3+2 0.371760 0.508490 0.492680 0.947661

loop_
_geom_bond_atom_site_label_1
_geom_bond_atom_site_label_2
_ccdc_geom_bond_type
C21   C26   A    
C6    H5    S    
C27   C29   A    
C34   C37   A    
C14   C18   A    
C2    C7    A    
C23   H3    S    
C7    C8    A    
C15   C19   A    
C12   O4    A    
C30   C35   A    
C24   C26   A    
C20   C25   A    
C40   H9    S    
O2    Zn2   S    
C29   C33   A    
C3    H8    S    
O1    Zn1   S    
C18   C19   A    
C2    H10   S    
C1    O3    A    
C9    C19   A    
C22   C25   A    
O6    Zn2   S    
C1    O1    A    
C6    C38   A    
O5    Zn1   S    
C15   H11   S    
C3    C39   A    
C17   O6    A    
C24   I2    S    
C36   H1    S    
C16   O7    A    
C22   C31   A    
C10   H17   S    
C34   H4    S    
C11   N2    A    
O3    Zn2   S    
C37   H12   S    
C6    C8    A    
N1    Zn1   S    
O4    Zn1   S    
C12   O2    A    
C17   C21   S    
C2    C4    A    
C24   C32   A    
C13   N1    A    
C16   C20   S    
C14   N2    A    
C33   C34   A    
C9    H16   S    
C32   C37   A    
C9    C11   A    
C21   C28   A    
C4    C38   A    
C3    C40   A    
C23   C35   A    
C5    C39   A    
C11   H15   S    
C5    C7    A    
C13   H14   S    
N2    Zn2   S    
C16   O5    A    
O8    Zn1   S    
C10   C13   A    
C25   H2    S    
O7    Zn2   S    
C20   C27   A    
C28   H18   S    
C5    H6    S    
C28   C30   A    
C29   C31   A    
C27   H19   S    
C22   I1    S    
C30   C32   A    
C10   C18   A    
C33   C35   A    
C12   C38   S    
C1    C39   S    
C14   H13   S    
C17   O8    A    
C23   C36   A    
C15   N1    A    
C31   C36   A    
C8    C40   A    
C26   H20   S    
C4    H7    S    
