data_mof_unit_25412.cif
_audit_creation_date              2012-12-10T17:37:49-0500
_audit_creation_method            fapswitch 2.2
_symmetry_space_group_name_H-M    P1
_symmetry_Int_Tables_number       1
_space_group_crystal_system       triclinic
_cell_length_a                    12.42594
_cell_length_b                    13.293263
_cell_length_c                    17.247536
_cell_angle_alpha                 106.657097
_cell_angle_beta                  74.282982
_cell_angle_gamma                 117.332851
_cell_volume                      2392.00630084

loop_
_atom_site_label
_atom_site_type_symbol
_atom_type_description
_atom_site_fract_x
_atom_site_fract_y
_atom_site_fract_z
_atom_type_partial_charge
C1    C     C_R   0.144555 0.713346 0.507038 0.778421
C2    C     C_R   0.861643 0.449253 0.784506 0.427154
C3    C     C_R   0.001618 0.589296 0.166412 -0.081352
C4    C     C_R   0.993372 0.583161 0.246778 -0.208637
C5    C     C_R   0.072687 0.435845 0.198663 -0.195020
C6    C     C_R   0.078186 0.440157 0.117820 -0.168664
C7    C     C_R   0.038942 0.514306 0.101501 0.210660
C8    C     C_2   0.951148 0.525278 0.993181 0.431625
C9    C     C_2   0.039493 0.513670 0.016268 -0.311017
C10   C     C_R   0.027081 0.505287 0.263260 -0.010559
C11   C     C_R   0.732315 0.972744 0.390452 -0.184951
C12   C     C_R   0.986063 0.502686 0.651891 0.847809
C13   C     C_R   0.774521 0.164031 0.471593 -0.037293
C14   C     C_R   0.181350 0.918145 0.558874 -0.162319
C15   C     C_R   0.259737 0.033933 0.575318 -0.145720
C16   C     C_R   0.385156 0.069740 0.547624 -0.168153
C17   C     C_R   0.434597 0.989973 0.499331 0.086181
C18   C     C_R   0.352361 0.874160 0.474655 0.078409
C19   C     C_R   0.562802 0.021768 0.473574 0.075724
C20   C     C_R   0.605968 0.941685 0.417090 0.164160
C21   C     C_R   0.522600 0.832668 0.386113 -0.234089
C22   C     C_R   0.397683 0.799863 0.413488 -0.191743
C23   C     C_R   0.856016 0.286384 0.488214 0.837733
C24   C     C_R   0.649746 0.130910 0.502590 -0.188991
C25   C     C_R   0.816328 0.083969 0.416972 -0.193446
C26   C     C_R   0.226639 0.836627 0.510989 -0.113361
C27   C     C_R   0.640767 0.675206 0.631310 -0.315775
C28   C     C_R   0.257410 0.365956 0.380062 0.072786
C29   C     C_R   0.368991 0.361160 0.341605 -0.261910
C30   C     C_R   0.470607 0.423529 0.381457 -0.127352
C31   C     C_R   0.459505 0.481804 0.463584 0.025724
C32   C     C_R   0.348679 0.498052 0.494917 0.279617
C33   C     C_R   0.556751 0.534163 0.512589 -0.076523
C34   C     C_R   0.014281 0.498214 0.348078 0.794221
C35   C     C_R   0.547842 0.617658 0.583502 0.085387
C36   C     C_R   0.445107 0.642914 0.607560 -0.243874
C37   C     C_R   0.346638 0.582644 0.565305 -0.176416
C38   C     C_R   0.658455 0.503727 0.498312 0.332160
C39   C     C_R   0.741729 0.648577 0.611935 0.399075
C40   C     C_R   0.976431 0.505403 0.738101 -0.079068
C41   C     C_R   0.081235 0.569916 0.775187 -0.231142
C42   C     C_R   0.072434 0.579113 0.858616 -0.205943
C43   C     C_R   0.959343 0.520636 0.905305 -0.001232
C44   C     C_R   0.854590 0.454646 0.867864 -0.248174
Cu1   Cu    Cu3+1 0.900140 0.524980 0.518800 1.016714
Cu2   Cu    Cu3+1 0.099860 0.475020 0.481200 0.932117
H1    H     H_    0.169206 0.615421 0.739950 0.145691
H2    H     H_    0.110135 0.383832 0.068118 0.133002
H3    H     H_    0.912997 0.108615 0.392252 0.149322
H4    H     H_    0.554021 0.772385 0.340331 0.145783
H5    H     H_    0.765779 0.912139 0.347096 0.132164
H6    H     H_    0.623003 0.193197 0.548626 0.156940
H7    H     H_    0.085298 0.892276 0.585375 0.199692
H8    H     H_    0.440177 0.160921 0.563201 0.145694
H9    H     H_    0.223505 0.096085 0.611930 0.153426
H10   H     H_    0.337434 0.716664 0.383961 0.175748
H11   H     H_    0.961811 0.640150 0.296123 0.148119
H12   H     H_    0.439164 0.708168 0.661239 0.150042
H13   H     H_    0.634659 0.740971 0.684542 0.177892
H14   H     H_    0.179844 0.321199 0.347671 0.125011
H15   H     H_    0.558324 0.431656 0.344763 0.192707
H16   H     H_    0.378219 0.313717 0.279463 0.152847
H17   H     H_    0.272393 0.608229 0.588068 0.197788
H18   H     H_    0.100547 0.376337 0.210720 0.139697
H19   H     H_    0.112631 0.498272 0.970379 0.119544
H20   H     H_    0.768058 0.406286 0.903062 0.165051
H21   H     H_    0.978924 0.652735 0.155255 0.144032
H22   H     H_    0.154022 0.631816 0.886729 0.140198
N1    N     N_R   0.749710 0.562810 0.547300 -0.221498
N2    N     N_R   0.249640 0.437820 0.453210 -0.210175
O1    O     O_R   0.025490 0.682370 0.523640 -0.546820
O2    O     O_R   0.194150 0.640180 0.491890 -0.608730
O3    O     O_R   0.905900 0.523560 0.631310 -0.521913
O4    O     O_R   0.074570 0.481370 0.599560 -0.611888
O5    O     O_R   0.805850 0.359820 0.508110 -0.537483
O6    O     O_R   0.974510 0.317630 0.476360 -0.595806
O7    O     O_R   0.925430 0.518630 0.400440 -0.542958
O8    O     O_R   0.094100 0.476440 0.368690 -0.610355
Br1   Br    Br    0.863916 0.735085 0.681520 -0.566997
Br2   Br    Br    0.657043 0.365997 0.420284 -0.538954
O9    O     O_3   0.760124 0.380266 0.745857 -0.586017
C45   C     C_3   0.672258 0.427731 0.774339 0.083214
H23   H     H_    0.715174 0.522737 0.776653 0.172953
H24   H     H_    0.622709 0.409618 0.836389 0.133093
C46   C     C_3   0.579259 0.372507 0.715942 -0.762880
H25   H     H_    0.532290 0.277825 0.713280 0.238726
H26   H     H_    0.509604 0.409123 0.737477 0.197319
H27   H     H_    0.626257 0.389658 0.653433 0.266125
O10   O     O_3   0.845291 0.521686 0.048788 -0.568148
C47   C     C_3   0.818806 0.614148 0.048202 0.053539
H28   H     H_    0.779948 0.597469 0.992544 0.150479
H29   H     H_    0.902227 0.697391 0.050994 0.130791
C48   C     C_3   0.723625 0.626263 0.122915 -0.794499
H30   H     H_    0.759727 0.644333 0.180018 0.241177
H31   H     H_    0.701653 0.698456 0.123159 0.200711
H32   H     H_    0.638234 0.545387 0.121358 0.253653

loop_
_geom_bond_atom_site_label_1
_geom_bond_atom_site_label_2
_ccdc_geom_bond_type
C24   H6    S    
C48   H30   S    
C12   O4    A    
Cu1   O1    S    
C41   C42   A    
C44   H20   S    
C19   C20   A    
C18   C26   A    
C8    C43   S    
C23   O6    A    
Cu2   O6    S    
O9    C45   S    
Cu1   Cu2   S    
C1    O1    A    
C6    H2    S    
C36   C37   A    
C36   H12   S    
C34   O7    A    
C30   C31   A    
C11   C25   A    
C15   C16   A    
C13   C23   S    
Cu1   O3    S    
C17   C19   A    
C35   C36   A    
C2    C44   A    
C8    C9    D    
C4    H11   S    
C31   C33   A    
Cu2   O2    S    
C46   H26   S    
C38   N1    A    
C48   H31   S    
C12   O3    A    
C42   H22   S    
C13   C25   A    
C21   H4    S    
C37   H17   S    
C25   H3    S    
C28   H14   S    
C41   H1    S    
C3    H21   S    
C11   C20   A    
C1    O2    A    
Cu1   N1    S    
C27   C39   A    
Cu2   O8    S    
C16   C17   A    
C22   H10   S    
C27   C35   A    
C46   H25   S    
C5    H18   S    
C39   Br1   S    
C12   C40   S    
C43   C44   A    
C29   C30   A    
C47   H29   S    
C31   C32   A    
C17   C18   A    
C39   N1    A    
C10   C34   S    
C32   C37   A    
C14   C26   A    
C40   C41   A    
C48   H32   S    
C45   H24   S    
C1    C26   S    
C42   C43   A    
C4    C10   A    
C3    C4    A    
Cu2   O4    S    
C47   C48   S    
C46   H27   S    
C7    C9    S    
C29   H16   S    
C28   C29   A    
C18   C22   A    
C28   N2    A    
C23   O5    A    
C32   N2    A    
C6    C7    A    
C45   C46   S    
C3    C7    A    
C33   C38   A    
Cu1   O5    S    
C16   H8    S    
C19   C24   A    
C5    C10   A    
C27   H13   S    
C34   O8    A    
C47   H28   S    
C5    C6    A    
C38   Br2   S    
C33   C35   A    
C9    H19   S    
Cu2   N2    S    
C11   H5    S    
C2    C40   A    
C14   H7    S    
C20   C21   A    
C13   C24   A    
C45   H23   S    
C30   H15   S    
C14   C15   A    
C2    O9    S    
Cu1   O7    S    
C8    O10   S    
O10   C47   S    
C21   C22   A    
C15   H9    S    
