data_mof_unit_22916.cif
_audit_creation_date              2012-12-11T14:17:26-0500
_audit_creation_method            fapswitch 2.2
_symmetry_space_group_name_H-M    P1
_symmetry_Int_Tables_number       1
_space_group_crystal_system       triclinic
_cell_length_a                    6.970167
_cell_length_b                    13.594156
_cell_length_c                    20.426009
_cell_angle_alpha                 101.975094
_cell_angle_beta                  90.077935
_cell_angle_gamma                 90.520279
_cell_volume                      1893.22894734

loop_
_atom_site_label
_atom_site_type_symbol
_atom_type_description
_atom_site_fract_x
_atom_site_fract_y
_atom_site_fract_z
_atom_type_partial_charge
O1    O     O_R   0.506860 0.599390 0.449240 -0.539119
O2    O     O_R   0.180220 0.594600 0.586780 -0.509186
O3    O     O_R   0.004500 0.400610 0.550760 -0.541608
C1    C     C_R   0.348765 0.614841 0.613685 0.747055
O4    O     O_R   0.177490 0.611290 0.451970 -0.542938
O5    O     O_R   0.001750 0.417420 0.414990 -0.542141
C2    C     C_R   0.347061 0.638784 0.435860 0.690915
O6    O     O_R   0.509610 0.582580 0.585010 -0.539581
O7    O     O_3   0.337420 0.436370 0.488020 -0.380551
V1    V     V_3+5 0.064680 0.511800 0.502220 1.461696
O8    O     O_R   0.671710 0.405400 0.413220 -0.548167
C3    C     C_R   0.839681 0.384538 0.386435 0.731167
O9    O     O_R   0.674440 0.388710 0.548030 -0.542949
C4    C     C_R   0.843249 0.361638 0.564642 0.688138
V2    V     V_3+5 0.564010 0.488200 0.497780 1.425229
O10   O     O_3   0.841140 0.563630 0.511980 -0.360553
C5    C     C_R   0.977103 0.121408 0.615587 -0.165175
H1    H     H_    0.981997 0.174309 0.523749 0.107477
H2    H     H_    0.050008 0.004398 0.701316 0.134013
H3    H     H_    0.043968 0.050883 0.592937 0.115002
C6    C     C_R   0.855629 0.282871 0.603816 -0.042453
C7    C     C_R   0.791892 0.311395 0.926049 0.377789
C8    C     C_R   0.732640 0.378722 0.887247 -0.193051
C9    C     C_R   0.737286 0.352047 0.817726 -0.242112
C10   C     C_R   0.819102 0.260546 0.784555 0.085675
C11   C     C_R   0.876283 0.190686 0.823991 0.003983
C12   C     C_R   0.849119 0.237019 0.713786 0.087416
C13   C     C_R   0.935824 0.144160 0.684274 0.134634
C14   C     C_R   0.985359 0.075674 0.723676 -0.212462
C15   C     C_R   0.955173 0.098130 0.792308 -0.196881
C16   C     C_R   0.805561 0.304563 0.671597 -0.235687
C17   C     C_R   0.940745 0.191140 0.575979 -0.167219
C18   C     C_R   0.855276 0.215386 0.894597 -0.164837
H4    H     H_    0.742111 0.376806 0.690276 0.098703
H5    H     H_    0.678712 0.405450 0.791347 0.132870
H6    H     H_    0.683423 0.452762 0.911262 0.143474
H7    H     H_    0.998066 0.042799 0.820530 0.127359
C19   C     C_2   0.003883 0.292386 0.283749 -0.135785
C20   C     C_2   0.841928 0.316835 0.319380 -0.310027
H8    H     H_    0.140137 0.322813 0.305061 0.132571
H9    H     H_    0.704129 0.287405 0.299507 0.126584
C21   C     C_2   0.012476 0.224597 0.216063 -0.143938
C22   C     C_2   0.858369 0.183770 0.180060 -0.319448
H10   H     H_    0.154742 0.208345 0.195201 0.133264
H11   H     H_    0.714742 0.199758 0.199195 0.128803
C23   C     C_2   0.224502 0.765838 0.792039 -0.280983
C24   C     C_2   0.360786 0.835583 0.814438 0.221678
H12   H     H_    0.111141 0.755664 0.826328 0.120511
C25   C     C_2   0.207786 0.703853 0.722409 0.476629
C26   C     C_2   0.360641 0.680552 0.681166 -0.385468
C27   C     C_R   0.418614 0.888560 0.387316 -0.164864
H13   H     H_    0.408067 0.838587 0.480339 0.106584
H14   H     H_    0.449076 0.012756 0.302972 0.118776
H15   H     H_    0.444113 0.966195 0.411959 0.114790
C28   C     C_R   0.360377 0.716168 0.395851 -0.034359
C29   C     C_R   0.312943 0.683836 0.073660 0.342777
C30   C     C_R   0.317794 0.606706 0.110166 0.364337
C31   C     C_R   0.354439 0.631374 0.179121 -0.340209
C32   C     C_R   0.368586 0.732245 0.213961 0.032636
C33   C     C_R   0.378027 0.809042 0.176151 -0.001599
C34   C     C_R   0.376834 0.758792 0.285272 0.115885
C35   C     C_R   0.407701 0.860906 0.317197 0.136589
C36   C     C_R   0.425536 0.934643 0.278992 -0.202107
C37   C     C_R   0.408780 0.909494 0.209671 -0.151745
C38   C     C_R   0.349211 0.687684 0.326189 -0.219091
C39   C     C_R   0.396854 0.816365 0.426365 -0.173015
C40   C     C_R   0.354907 0.783848 0.105628 -0.233775
H16   H     H_    0.316668 0.609653 0.305670 0.093689
H17   H     H_    0.378175 0.570179 0.204079 0.136843
H18   H     H_    0.419243 0.969892 0.182622 0.110637
O11   O     O_R   0.203230 0.917310 0.915020 -0.555551
O12   O     O_R   0.535500 0.888690 0.048040 -0.540183
O13   O     O_R   0.711080 0.082610 0.085000 -0.547243
C41   C     C_R   0.366141 0.861833 0.065007 0.792759
O14   O     O_R   0.532630 0.905370 0.913230 -0.530160
O15   O     O_R   0.708190 0.099410 0.949230 -0.553418
C42   C     C_R   0.364521 0.888228 0.885690 0.667498
O16   O     O_R   0.206120 0.900510 0.050790 -0.536983
O17   O     O_3   0.375360 0.063570 0.011990 -0.385683
V3    V     V_3+5 0.648170 0.988200 0.997780 1.413188
O18   O     O_R   0.038240 0.111390 0.951940 -0.543529
C43   C     C_R   0.869458 0.137839 0.934958 0.721191
O19   O     O_R   0.041120 0.094710 0.086750 -0.542994
C44   C     C_R   0.872505 0.115973 0.113340 0.747715
V4    V     V_3+5 0.148810 0.011930 0.002180 1.388555
O20   O     O_3   0.871750 0.936430 0.988010 -0.371727
O21   O     O_3   0.497330 0.859530 0.770831 -0.559693
C45   C     C_3   0.488144 0.962854 0.769018 0.122674
H19   H     H_    0.596732 0.004981 0.803995 0.138305
H20   H     H_    0.344654 0.996691 0.782771 0.088900
C46   C     C_3   0.531549 0.975720 0.698325 -0.692167
H21   H     H_    0.534975 0.056920 0.696848 0.187123
H22   H     H_    0.672323 0.941982 0.681775 0.233459
H23   H     H_    0.418450 0.937753 0.663446 0.205330
O22   O     O_3   0.028325 0.664606 0.701576 -0.536919
C47   C     C_3   0.981191 0.585000 0.733930 0.124616
H24   H     H_    0.090824 0.569918 0.770486 0.080057
H25   H     H_    0.968032 0.514643 0.695313 0.129037
C48   C     C_3   0.789652 0.606399 0.769605 -0.740184
H26   H     H_    0.774054 0.688108 0.790590 0.255947
H27   H     H_    0.670424 0.579686 0.734233 0.196403
H28   H     H_    0.780489 0.566419 0.811460 0.177533
H29   H     H_    0.503508 0.704490 0.698281 0.184578
O23   O     O_3   0.273021 0.662137 0.005708 -0.555975
C49   C     C_3   0.080460 0.628138 0.995204 0.123813
H30   H     H_    0.983583 0.658475 0.038106 0.094879
H31   H     H_    0.075746 0.544671 0.985325 0.177393
C50   C     C_3   0.000726 0.660967 0.934212 -0.725880
H32   H     H_    0.083944 0.625475 0.889452 0.211181
H33   H     H_    0.847926 0.637457 0.927022 0.183519
H34   H     H_    0.010293 0.743994 0.941178 0.241565
O24   O     O_3   0.313700 0.507231 0.075851 -0.561755
C51   C     C_3   0.163928 0.452634 0.099212 0.046016
H35   H     H_    0.024584 0.482334 0.086457 0.151371
H36   H     H_    0.169801 0.456916 0.154067 0.108326
C52   C     C_3   0.176221 0.341448 0.065217 -0.594401
H37   H     H_    0.297594 0.304463 0.084725 0.163208
H38   H     H_    0.047773 0.299581 0.076016 0.202418
H39   H     H_    0.190542 0.332945 0.010199 0.227809
O25   O     O_3   0.817653 0.344962 0.994129 -0.582987
C53   C     C_3   0.642036 0.344987 0.027927 0.070534
H40   H     H_    0.595551 0.266476 0.027490 0.134460
H41   H     H_    0.529151 0.383573 0.004457 0.181638
C54   C     C_3   0.669064 0.400328 0.100713 -0.672361
H42   H     H_    0.700746 0.481046 0.102727 0.221411
H43   H     H_    0.539596 0.395645 0.131013 0.197934
H44   H     H_    0.785872 0.366882 0.125251 0.194351

loop_
_geom_bond_atom_site_label_1
_geom_bond_atom_site_label_2
_ccdc_geom_bond_type
O21   C45   S    
O22   C47   S    
C2    C28   S    
C1    O6    A    
O18   C43   A    
C20   H9    S    
V4    O20   S    
C29   C30   A    
C7    O25   S    
C49   H31   S    
C23   C25   S    
C35   C36   A    
C4    C6    S    
C13   C14   A    
C19   C21   S    
O5    C3    A    
C19   C20   D    
C30   O24   S    
V2    O10   S    
C8    H6    S    
C47   C48   S    
C5    H3    S    
C50   H32   S    
O23   C49   S    
C53   C54   S    
V3    O20   S    
O11   V4    S    
O8    V2    S    
C48   H26   S    
C33   C40   A    
C52   H38   S    
C47   H25   S    
C8    C9    A    
O1    V2    S    
C37   H18   S    
O7    V1    S    
O13   C44   A    
C51   C52   S    
C32   C33   A    
O9    C4    A    
C22   C44   S    
C27   C35   A    
C21   H10   S    
O24   C51   S    
C28   C38   A    
C6    C17   A    
C23   H12   S    
C32   C34   A    
C9    H5    S    
C12   C16   A    
C9    C10   A    
C29   O23   S    
O12   C41   A    
O17   V4    S    
O15   C43   A    
C46   H21   S    
O4    C2    A    
C31   C32   A    
O17   V3    S    
C15   H7    S    
C1    C26   S    
C27   C39   A    
C24   O21   S    
O2    C1    A    
C14   C15   A    
C46   H22   S    
C6    C16   A    
C11   C18   A    
O19   C44   A    
C45   C46   S    
C38   H16   S    
C47   H24   S    
C16   H4    S    
C40   C41   S    
C49   C50   S    
C25   O22   S    
O14   C42   A    
C53   H40   S    
O3    C4    A    
C54   H44   S    
O16   V4    S    
O19   V4    S    
C45   H20   S    
C11   C15   A    
O6    V2    S    
O9    V2    S    
H1    C17   S    
C21   C22   D    
C24   C42   S    
O2    V1    S    
O11   C42   A    
C28   C39   A    
H13   C39   S    
O25   C53   S    
C54   H43   S    
C51   H35   S    
O14   V3    S    
C7    C18   A    
C23   C24   D    
C48   H27   S    
O1    C2    A    
C5    C13   A    
O15   V3    S    
O5    V1    S    
O8    C3    A    
C50   H34   S    
C31   H17   S    
C10   C12   A    
C29   C40   A    
C49   H30   S    
C52   H39   S    
C33   C37   A    
C27   H15   S    
C3    C20   S    
C10   C11   A    
O4    V1    S    
C22   H11   S    
O3    V1    S    
V1    O10   S    
C46   H23   S    
C19   H8    S    
H14   C36   S    
C30   C31   A    
O13   V3    S    
C50   H33   S    
C52   H37   S    
O7    V2    S    
C34   C35   A    
C18   C43   S    
C53   H41   S    
C36   C37   A    
C34   C38   A    
C26   H29   S    
C48   H28   S    
C45   H19   S    
O12   V3    S    
C25   C26   D    
C41   O16   A    
C12   C13   A    
C5    C17   A    
C7    C8    A    
O18   V4    S    
C54   H42   S    
C51   H36   S    
H2    C14   S    
