data_mof_unit_44448.cif
_audit_creation_date              2012-12-10T16:50:07-0500
_audit_creation_method            fapswitch 2.2
_symmetry_space_group_name_H-M    P1
_symmetry_Int_Tables_number       1
_space_group_crystal_system       triclinic
_cell_length_a                    23.377279
_cell_length_b                    8.715805
_cell_length_c                    7.465692
_cell_angle_alpha                 104.107689
_cell_angle_beta                  94.848083
_cell_angle_gamma                 92.086722
_cell_volume                      1467.43084514

loop_
_atom_site_label
_atom_site_type_symbol
_atom_type_description
_atom_site_fract_x
_atom_site_fract_y
_atom_site_fract_z
_atom_type_partial_charge
C1    C     C_R   0.498202 0.199238 0.452343 0.877076
C2    C     C_R   0.501687 0.800756 0.547659 0.880745
C3    C     C_R   0.235680 0.573337 0.556374 0.342426
C4    C     C_R   0.753667 0.388381 0.333356 0.446277
C5    C     C_R   0.295584 0.596429 0.569690 -0.228160
C6    C     C_R   0.694682 0.408992 0.336313 -0.245684
C7    C     C_R   0.329161 0.472670 0.497630 -0.146191
C8    C     C_R   0.671675 0.489823 0.495781 -0.188499
C9    C     C_R   0.303688 0.323518 0.412321 -0.265834
C10   C     C_R   0.707960 0.554020 0.656284 -0.212754
C11   C     C_R   0.244508 0.291343 0.406531 0.429055
C12   C     C_R   0.767251 0.537170 0.662787 0.443267
C13   C     C_R   0.208736 0.416986 0.481758 0.064923
C14   C     C_R   0.791864 0.452497 0.499115 0.066429
C15   C     C_2   0.497299 0.030733 0.426246 -0.346220
C16   C     C_2   0.502448 0.969256 0.573756 -0.337675
C17   C     C_R   0.391155 0.497944 0.500935 0.837223
C18   C     C_R   0.609111 0.499285 0.498571 0.859323
C19   C     C_R   0.891739 0.563477 0.571211 0.663296
C20   C     C_R   0.110195 0.311779 0.342691 0.642844
C21   C     C_R   0.875139 0.287511 0.436503 0.666228
C22   C     C_R   0.125207 0.453187 0.658875 0.670555
C23   C     C_R   0.933560 0.278198 0.407099 -0.022610
C24   C     C_R   0.066925 0.484256 0.656352 -0.010778
C25   C     C_R   0.971005 0.400897 0.513493 -0.034743
C26   C     C_R   0.030024 0.387860 0.513617 -0.029157
C27   C     C_R   0.949808 0.540075 0.613525 -0.023277
C28   C     C_R   0.051935 0.284327 0.365434 -0.026035
C29   C     C_R   0.955725 0.156636 0.274292 -0.123856
C30   C     C_R   0.044895 0.612561 0.779820 -0.083885
C31   C     C_R   0.014233 0.168139 0.242485 -0.124093
C32   C     C_R   0.987234 0.648527 0.747140 -0.136058
Cu1   Cu    Cu3+1 0.506340 0.517380 0.684380 0.981257
Cu2   Cu    Cu3+1 0.493660 0.482620 0.315620 0.976337
H1    H     H_    0.927395 0.062331 0.185658 0.197474
H2    H     H_    0.072911 0.692038 0.888714 0.206229
H3    H     H_    0.030209 0.083542 0.128711 0.187041
H4    H     H_    0.971432 0.755004 0.831418 0.178066
H5    H     H_    0.316302 0.712987 0.630120 0.188029
H6    H     H_    0.665824 0.357008 0.213266 0.206460
H7    H     H_    0.330966 0.230251 0.352792 0.169500
H8    H     H_    0.689576 0.618386 0.779145 0.209757
H9    H     H_    0.492454 0.957033 0.284959 0.179299
H10   H     H_    0.507279 0.042959 0.715043 0.180891
H11   H     H_    0.454671 0.378314 0.947642 0.231816
H12   H     H_    0.545351 0.621626 0.052343 0.233384
N1    N     N_R   0.853575 0.433989 0.501593 -0.438576
N2    N     N_R   0.147541 0.388665 0.494076 -0.451662
N3    N     N_2   0.484110 0.456420 0.038520 -0.212290
N4    N     N_2   0.515890 0.543580 0.961480 -0.211602
O1    O     O_R   0.504120 0.286130 0.619770 -0.581489
O2    O     O_R   0.495880 0.713870 0.380230 -0.583688
O3    O     O_R   0.493410 0.256770 0.308360 -0.587491
O4    O     O_R   0.506590 0.743230 0.691640 -0.584274
O5    O     O_R   0.423230 0.514630 0.655730 -0.581285
O6    O     O_R   0.576770 0.485370 0.344270 -0.586646
O7    O     O_R   0.412530 0.485280 0.344320 -0.568421
O8    O     O_R   0.587470 0.514720 0.655680 -0.572008
O9    O     O_2   0.874222 0.711974 0.596996 -0.460848
O10   O     O_2   0.127684 0.271266 0.171498 -0.446893
O11   O     O_2   0.841160 0.153626 0.401350 -0.441540
O12   O     O_2   0.158888 0.488097 0.820749 -0.460510
S1    S     S_3+6 0.197151 0.748049 0.621121 0.087051
O13   O     O_2   0.182290 0.774693 0.817530 -0.194384
O14   O     O_2   0.233946 0.889954 0.612397 -0.179925
O15   O     O_3   0.136396 0.734596 0.479028 -0.503278
H13   H     H_    0.148864 0.706187 0.352135 0.373361
S2    S     S_3+6 0.773536 0.275062 0.116539 0.086316
O16   O     O_2   0.764123 0.102083 0.109494 -0.201936
O17   O     O_2   0.735249 0.308545 0.960049 -0.263895
O18   O     O_3   0.842192 0.313409 0.083664 -0.505538
H14   H     H_    0.850190 0.229193 0.974562 0.393858
S3    S     S_3+6 0.220687 0.091060 0.302657 0.095504
O19   O     O_2   0.169018 0.042493 0.386941 -0.203452
O20   O     O_2   0.205853 0.070622 0.098007 -0.190679
O21   O     O_3   0.274133 0.971516 0.329035 -0.504055
H15   H     H_    0.291631 0.947000 0.209738 0.355913
S4    S     S_3+6 0.805963 0.628047 0.882714 0.086807
O22   O     O_2   0.819492 0.799971 0.892456 -0.212564
O23   O     O_2   0.769111 0.621403 0.036371 -0.231279
O24   O     O_3   0.867324 0.540925 0.918814 -0.527744
H16   H     H_    0.887844 0.611546 0.032208 0.379446

loop_
_geom_bond_atom_site_label_1
_geom_bond_atom_site_label_2
_ccdc_geom_bond_type
Cu1   O5    S    
C22   N2    A    
S1    O14   D    
Cu2   O6    S    
Cu1   O8    S    
C10   H8    S    
S3    O19   D    
O24   H16   S    
C23   C29   A    
C24   C26   A    
S4    O23   D    
C15   C16   D    
C1    O3    A    
C18   O8    A    
S2    O16   D    
C7    C17   S    
C12   S4    S    
Cu2   O7    S    
C1    C15   S    
C32   H4    S    
C20   O10   S    
C2    C16   S    
C16   H10   S    
C21   O11   S    
C3    C13   A    
C18   O6    A    
O15   H13   S    
S1    O15   S    
S3    O20   D    
C10   C12   A    
C26   C28   A    
O21   H15   S    
C4    C6    A    
C11   S3    S    
C5    C7    A    
S4    O22   D    
C6    C8    A    
C20   C28   A    
C19   O9    S    
C25   C26   A    
C8    C18   S    
C31   H3    S    
C22   O12   S    
C1    O1    A    
H11   N3    S    
Cu1   Cu2   S    
C9    C11   A    
C20   N2    A    
C2    O2    A    
S2    O17   D    
C12   C14   A    
C21   C23   A    
C2    O4    A    
S3    O21   S    
C22   C24   A    
Cu1   O1    S    
C19   C27   A    
C4    S2    S    
Cu1   O4    S    
C7    C9    A    
C17   O5    A    
Cu2   N3    S    
C27   C32   A    
Cu2   O2    S    
C28   C31   A    
C3    C5    A    
C13   N2    S    
C14   N1    S    
C3    S1    S    
C25   C27   A    
C29   H1    S    
H12   N4    S    
C9    H7    S    
C30   H2    S    
C5    H5    S    
Cu1   N4    S    
C15   H9    S    
O18   H14   S    
C29   C31   A    
C30   C32   A    
C11   C13   A    
S4    O24   S    
S2    O18   S    
C6    H6    S    
C23   C25   A    
C4    C14   A    
C24   C30   A    
S1    O13   D    
Cu2   O3    S    
C8    C10   A    
N3    N4    D    
C19   N1    A    
C17   O7    A    
C21   N1    A    
