data_mof_unit_6766.cif
_audit_creation_date              2012-12-10T19:45:55-0500
_audit_creation_method            fapswitch 2.2
_symmetry_space_group_name_H-M    P1
_symmetry_Int_Tables_number       1
_space_group_crystal_system       triclinic
_cell_length_a                    11.011102
_cell_length_b                    14.603145
_cell_length_c                    14.334586
_cell_angle_alpha                 91.483817
_cell_angle_beta                  104.94849
_cell_angle_gamma                 90.209884
_cell_volume                      2226.07601623

loop_
_atom_site_label
_atom_site_type_symbol
_atom_type_description
_atom_site_fract_x
_atom_site_fract_y
_atom_site_fract_z
_atom_type_partial_charge
C1    C     C_R   0.504081 0.325585 0.500036 0.886736
C2    C     C_R   0.480280 0.672246 0.496475 0.900073
C3    C     C_R   0.425689 0.040394 0.468210 0.021091
C4    C     C_R   0.359248 0.948819 0.460228 0.032423
C5    C     C_R   0.405289 0.462095 0.085621 -0.336753
C6    C     C_R   0.601116 0.536982 0.913156 -0.328523
C7    C     C_R   0.410370 0.454865 0.183499 0.399184
C8    C     C_R   0.589595 0.547299 0.814733 0.423150
C9    C     C_R   0.583244 0.555259 0.225268 -0.058714
C10   C     C_R   0.421939 0.441856 0.776267 -0.075810
C11   C     C_R   0.586479 0.561400 0.127199 -0.059697
C12   C     C_R   0.422934 0.435436 0.874644 -0.066279
C13   C     C_R   0.501890 0.505141 0.053838 0.037267
C14   C     C_R   0.507415 0.492501 0.946908 0.039281
C15   C     C_R   0.258966 0.495073 0.458925 0.888052
C16   C     C_R   0.741261 0.502462 0.541390 0.936141
C17   C     C_2   0.121558 0.483698 0.433520 -0.192923
C18   C     C_2   0.879392 0.503881 0.569290 -0.206590
C19   C     C_2   0.065041 0.473789 0.505814 0.157185
C20   C     C_2   0.942595 0.517590 0.501679 0.172075
C21   C     C_R   0.492585 0.073996 0.560769 0.206241
C22   C     C_R   0.339943 0.892595 0.378251 0.213955
C23   C     C_R   0.514486 0.168807 0.577332 -0.065610
C24   C     C_R   0.386345 0.803167 0.388505 -0.078011
C25   C     C_R   0.503391 0.223878 0.496214 -0.204581
C26   C     C_R   0.423021 0.765583 0.482918 -0.187444
C27   C     C_R   0.498807 0.179030 0.407397 -0.025686
C28   C     C_R   0.381323 0.813484 0.557229 -0.022823
C29   C     C_R   0.439395 0.092603 0.388355 -0.054751
C30   C     C_R   0.342224 0.905903 0.542632 0.007735
H1    H     H_    0.322270 0.434424 0.036465 0.193326
H2    H     H_    0.686101 0.563377 0.960900 0.188022
H3    H     H_    0.644011 0.598452 0.280290 0.196323
H4    H     H_    0.362329 0.397042 0.722274 0.199010
N1    N     N_R   0.500000 0.499980 0.252470 -0.110834
N2    N     N_R   0.500000 0.500020 0.747530 -0.119269
O1    O     O_R   0.500010 0.369070 0.579480 -0.613202
O2    O     O_R   0.499990 0.630930 0.420520 -0.616387
O3    O     O_R   0.500010 0.369060 0.420520 -0.563161
O4    O     O_R   0.499990 0.630940 0.579480 -0.564245
O5    O     O_R   0.317810 0.500010 0.549800 -0.603850
O6    O     O_R   0.682190 0.499990 0.450200 -0.584129
O7    O     O_R   0.317810 0.500000 0.390840 -0.591020
O8    O     O_R   0.682190 0.500000 0.609160 -0.585434
Zn1   Zn    Zn3+2 0.500000 0.500010 0.606140 1.001656
Zn2   Zn    Zn3+2 0.500000 0.499990 0.393860 1.004057
Br1   Br    Br    0.891217 0.617958 0.416246 -0.626240
Br2   Br    Br    0.117416 0.372301 0.589946 -0.661776
C31   C     C_R   0.666946 0.636930 0.107877 0.096932
C32   C     C_R   0.792364 0.645779 0.161272 -0.177377
C33   C     C_R   0.867989 0.718147 0.146236 -0.100450
C34   C     C_R   0.817925 0.783380 0.077729 -0.072418
C35   C     C_R   0.692467 0.776072 0.024671 -0.131243
C36   C     C_R   0.617489 0.703394 0.040260 -0.154342
H5    H     H_    0.830065 0.596050 0.214477 0.173433
H6    H     H_    0.964991 0.723806 0.187854 0.167895
H7    H     H_    0.876206 0.839450 0.065797 0.150101
H8    H     H_    0.653859 0.826373 0.971255 0.138118
H9    H     H_    0.522042 0.695530 0.997708 0.130946
C37   C     C_R   0.350589 0.356982 0.895852 0.099026
C38   C     C_R   0.410915 0.289485 0.958002 -0.140117
C39   C     C_R   0.343757 0.213735 0.976033 -0.152388
C40   C     C_R   0.216073 0.203517 0.929523 -0.117415
C41   C     C_R   0.156021 0.269170 0.865050 -0.109619
C42   C     C_R   0.222901 0.345898 0.848726 -0.142668
H10   H     H_    0.510864 0.294600 0.989569 0.122125
H11   H     H_    0.392274 0.162261 0.024033 0.139771
H12   H     H_    0.164110 0.143921 0.941334 0.112710
H13   H     H_    0.058308 0.260079 0.826949 0.125518
H14   H     H_    0.176544 0.396493 0.798704 0.176958
C43   C     C_R   0.940764 0.518967 0.673691 0.151607
C44   C     C_R   0.984156 0.607109 0.708541 -0.107078
C45   C     C_R   0.024518 0.626124 0.808015 -0.110898
C46   C     C_R   0.018477 0.558097 0.873415 -0.099663
C47   C     C_R   0.971037 0.471307 0.839400 -0.152426
C48   C     C_R   0.932683 0.451690 0.739871 -0.084269
H15   H     H_    0.985076 0.661460 0.658706 0.164070
H16   H     H_    0.058560 0.694041 0.834322 0.143313
H17   H     H_    0.048483 0.572994 0.950331 0.121181
H18   H     H_    0.964757 0.419308 0.890378 0.125335
H19   H     H_    0.895598 0.384684 0.713594 0.122865
C49   C     C_R   0.063038 0.440802 0.337266 0.166561
C50   C     C_R   0.028833 0.494760 0.255693 -0.110440
C51   C     C_R   0.981686 0.454248 0.163680 -0.160697
C52   C     C_R   0.971711 0.358945 0.152406 -0.082326
C53   C     C_R   0.009473 0.304121 0.233145 -0.111035
C54   C     C_R   0.055875 0.344769 0.325131 -0.123170
H20   H     H_    0.039413 0.568283 0.263764 0.128268
H21   H     H_    0.954294 0.496683 0.101036 0.129264
H22   H     H_    0.936022 0.327665 0.081242 0.115635
H23   H     H_    0.003431 0.230275 0.224456 0.132461
H24   H     H_    0.087492 0.301295 0.386514 0.164473
Br3   Br    Br    0.600558 0.991894 0.648622 -0.602470
Br4   Br    Br    0.179042 0.905483 0.286060 -0.600144
C55   C     C_R   0.570958 0.202659 0.677786 0.189290
C56   C     C_R   0.691038 0.243755 0.703059 -0.085754
C57   C     C_R   0.755412 0.256300 0.800431 -0.135793
C58   C     C_R   0.702627 0.225917 0.872778 -0.118530
C59   C     C_R   0.583928 0.184708 0.847998 -0.127795
C60   C     C_R   0.515907 0.177128 0.751479 -0.102979
H25   H     H_    0.736964 0.261963 0.647768 0.095992
H26   H     H_    0.848614 0.285572 0.820321 0.105047
H27   H     H_    0.754696 0.232627 0.947832 0.115148
H28   H     H_    0.545830 0.156430 0.903423 0.128728
H29   H     H_    0.423343 0.146274 0.733748 0.142475
C61   C     C_R   0.368542 0.748747 0.296983 0.184588
C62   C     C_R   0.425230 0.779656 0.226504 -0.097953
C63   C     C_R   0.380202 0.750085 0.130491 -0.119480
C64   C     C_R   0.287318 0.682264 0.105363 -0.120598
C65   C     C_R   0.235696 0.646596 0.176082 -0.144565
C66   C     C_R   0.273656 0.681216 0.271320 -0.041381
H30   H     H_    0.498948 0.830929 0.245134 0.131301
H31   H     H_    0.414420 0.782317 0.075327 0.115576
H32   H     H_    0.254120 0.658385 0.031004 0.117080
H33   H     H_    0.162900 0.594895 0.155534 0.139180
H34   H     H_    0.225440 0.659234 0.323858 0.116832
C67   C     C_R   0.585574 0.213426 0.351385 0.151181
C68   C     C_R   0.543278 0.237704 0.254421 -0.088733
C69   C     C_R   0.617305 0.294904 0.214460 -0.162216
C70   C     C_R   0.731863 0.329029 0.270424 -0.086834
C71   C     C_R   0.779027 0.299406 0.364259 -0.104930
C72   C     C_R   0.708240 0.239653 0.403515 -0.167971
H35   H     H_    0.450260 0.219100 0.211802 0.163038
H36   H     H_    0.582425 0.318493 0.142396 0.135054
H37   H     H_    0.782235 0.379858 0.241438 0.152947
H38   H     H_    0.867402 0.325741 0.408622 0.158115
H39   H     H_    0.744397 0.220758 0.478058 0.125382
C73   C     C_R   0.364034 0.766394 0.643126 0.138917
C74   C     C_R   0.282559 0.690549 0.632191 -0.084580
C75   C     C_R   0.269839 0.644598 0.713377 -0.103634
C76   C     C_R   0.325284 0.680666 0.805807 -0.147885
C77   C     C_R   0.399905 0.759642 0.816659 -0.146559
C78   C     C_R   0.425638 0.798698 0.736237 -0.079054
H40   H     H_    0.232473 0.665613 0.560841 0.121968
H41   H     H_    0.216494 0.581357 0.704505 0.163573
H42   H     H_    0.310767 0.647361 0.868671 0.127787
H43   H     H_    0.438376 0.791204 0.886859 0.111931
H44   H     H_    0.491765 0.855074 0.746896 0.168899
C79   C     C_R   0.391094 0.063352 0.286457 0.131265
C80   C     C_R   0.466665 0.013004 0.239110 -0.165872
C81   C     C_R   0.421677 0.989106 0.141069 -0.151522
C82   C     C_R   0.301176 0.014993 0.090310 -0.110218
C83   C     C_R   0.228423 0.069744 0.135913 -0.081841
C84   C     C_R   0.274218 0.095469 0.233316 -0.070662
H45   H     H_    0.560036 0.992574 0.278110 0.137075
H46   H     H_    0.479857 0.949843 0.104662 0.124764
H47   H     H_    0.265763 0.994890 0.014921 0.116820
H48   H     H_    0.136374 0.091879 0.096149 0.125452
H49   H     H_    0.217549 0.138176 0.268053 0.146780
C85   C     C_R   0.252333 0.948028 0.592518 0.119964
C86   C     C_R   0.291242 0.986442 0.686423 -0.165186
C87   C     C_R   0.203762 0.025037 0.730854 -0.151358
C88   C     C_R   0.076567 0.026397 0.681829 -0.072489
C89   C     C_R   0.036623 0.988550 0.588351 -0.104546
C90   C     C_R   0.123902 0.949417 0.543944 -0.134624
H50   H     H_    0.388763 0.987494 0.725745 0.153530
H51   H     H_    0.234977 0.054025 0.803333 0.132397
H52   H     H_    0.009066 0.056666 0.716273 0.141910
H53   H     H_    0.937983 0.989341 0.550340 0.158379
H54   H     H_    0.091174 0.919711 0.471779 0.179955
Br5   Br    Br    0.292278 0.376116 0.217024 -0.561851
Br6   Br    Br    0.699060 0.632634 0.778032 -0.486078

loop_
_geom_bond_atom_site_label_1
_geom_bond_atom_site_label_2
_ccdc_geom_bond_type
C6    H2    S    
C27   C29   A    
C67   C68   A    
C62   H30   S    
C19   C20   S    
C67   C72   A    
C73   C74   A    
C57   C58   A    
C35   C36   A    
C70   C71   A    
C7    Br5   S    
C60   H29   S    
C84   H49   S    
C39   H11   S    
C24   C26   A    
C17   C49   S    
C53   H23   S    
C49   C54   A    
C52   C53   A    
C43   C48   A    
C30   C85   S    
C61   C62   A    
C58   H27   S    
C88   H52   S    
C63   C64   A    
C33   H6    S    
C45   C46   A    
C72   H39   S    
C3    C29   A    
C68   C69   A    
C19   Br2   S    
C17   C19   D    
C65   C66   A    
C81   C82   A    
C38   H10   S    
C55   C56   A    
C77   C78   A    
C86   C87   A    
C66   H34   S    
C31   C36   A    
C16   O8    A    
C5    C13   A    
C57   H26   S    
C1    O1    A    
C36   H9    S    
C38   C39   A    
C50   H20   S    
C28   C73   S    
C78   H44   S    
C13   C14   S    
C1    C25   S    
C22   Br4   S    
C83   H48   S    
C61   C66   A    
C27   C67   S    
O4    Zn1   S    
C29   C79   S    
C52   H22   S    
C82   C83   A    
C46   C47   A    
C33   C34   A    
C51   C52   A    
C15   O5    A    
C2    C26   S    
C76   H42   S    
C5    C7    A    
C55   C60   A    
C6    C8    A    
C77   H43   S    
C69   H36   S    
C45   H16   S    
C49   C50   A    
C40   C41   A    
C37   C38   A    
C63   H31   S    
C80   H45   S    
C47   C48   A    
C44   H15   S    
C11   C31   S    
C6    C14   A    
C4    C22   A    
C79   C84   A    
C2    O2    A    
C75   C76   A    
C50   C51   A    
C79   C80   A    
C56   C57   A    
C39   C40   A    
C32   C33   A    
C89   C90   A    
N2    Zn1   S    
C10   H4    S    
C86   H50   S    
C80   C81   A    
C69   C70   A    
C9    C11   A    
C71   C72   A    
C10   C12   A    
C64   H32   S    
C9    H3    S    
O3    Zn2   S    
C81   H46   S    
C75   H41   S    
C12   C14   A    
C37   C42   A    
C31   C32   A    
C46   H17   S    
C21   C23   A    
O6    Zn2   S    
C22   C24   A    
C3    C21   A    
C24   C61   S    
C51   H21   S    
C62   C63   A    
O1    Zn1   S    
C3    C4    S    
C16   O6    A    
C54   H24   S    
C34   C35   A    
C74   C75   A    
C47   H18   S    
C18   C43   S    
C15   C17   S    
C87   H51   S    
C90   H54   S    
C53   C54   A    
C7    N1    A    
C82   H47   S    
O8    Zn1   S    
C44   C45   A    
C48   H19   S    
C35   H8    S    
C8    N2    A    
C25   C27   A    
C41   H13   S    
C40   H12   S    
C26   C28   A    
C32   H5    S    
C59   C60   A    
C85   C90   A    
C41   C42   A    
C28   C30   A    
C83   C84   A    
C15   O7    A    
C71   H38   S    
C8    Br6   S    
C73   C78   A    
C11   C13   A    
C21   Br3   S    
C70   H37   S    
C23   C55   S    
C59   H28   S    
C18   C20   D    
C68   H35   S    
C23   C25   A    
C76   C77   A    
O7    Zn2   S    
O2    Zn2   S    
C20   Br1   S    
C34   H7    S    
C1    O3    A    
C74   H40   S    
C12   C37   S    
C2    O4    A    
C89   H53   S    
C43   C44   A    
C87   C88   A    
C16   C18   S    
C58   C59   A    
C64   C65   A    
C9    N1    A    
O5    Zn1   S    
C85   C86   A    
C10   N2    A    
C88   C89   A    
C56   H25   S    
N1    Zn2   S    
C65   H33   S    
C4    C30   A    
C42   H14   S    
C5    H1    S    
