data_mof_unit_42564.cif
_audit_creation_date              2013-03-05T15:45:11-0500
_audit_creation_method            fapswitch 2.2
_symmetry_space_group_name_H-M    P1
_symmetry_Int_Tables_number       1
_space_group_crystal_system       triclinic
_cell_length_a                    10.869349
_cell_length_b                    11.114437
_cell_length_c                    9.873118
_cell_angle_alpha                 110.812717
_cell_angle_beta                  99.885789
_cell_angle_gamma                 91.096326
_cell_volume                      1094.18784808

loop_
_atom_site_label
_atom_site_type_symbol
_atom_site_description
_atom_site_fract_x
_atom_site_fract_y
_atom_site_fract_z
_atom_type_partial_charge
O1    O     O_R   0.511700 0.332330 0.577400 -0.585813
O2    O     O_R   0.474680 0.295500 0.332650 -0.513924
C1    C     C_R   0.491540 0.254435 0.441771 0.782191
O3    O     O_R   0.338160 0.518420 0.622400 -0.610041
O4    O     O_R   0.301140 0.481590 0.377650 -0.571642
C2    C     C_R   0.263181 0.511910 0.501240 0.829655
Cu1   Cu    Cu3+1 0.521920 0.521810 0.644910 0.993764
Cu2   Cu    Cu3+1 0.478080 0.478190 0.355090 1.043763
O5    O     O_R   0.525320 0.704500 0.667350 -0.591710
O6    O     O_R   0.488300 0.667670 0.422600 -0.574243
O7    O     O_R   0.698860 0.518410 0.622350 -0.543778
O8    O     O_R   0.661840 0.481580 0.377600 -0.524883
C3    C     C_R   0.506322 0.744769 0.559063 0.711150
C4    C     C_R   0.738194 0.492279 0.499856 0.854228
C5    C     C_R   0.161193 0.673521 0.759786 -0.211628
H1    H     H_    0.249117 0.716945 0.753813 0.184124
C6    C     C_R   0.120290 0.714822 0.894932 0.458605
C7    C     C_R   0.008858 0.657161 0.904382 -0.334197
H2    H     H_    0.981967 0.680159 0.010580 0.166928
C8    C     C_R   0.937889 0.561402 0.780136 0.510466
C9    C     C_R   0.963344 0.544035 0.638027 -0.095554
C10   C     C_R   0.085714 0.581932 0.632279 -0.101404
C11   C     C_R   0.128993 0.527146 0.499346 -0.228103
C12   C     C_R   0.041822 0.470969 0.365244 0.412720
C13   C     C_R   0.915438 0.447512 0.367495 0.372584
C14   C     C_R   0.874428 0.488010 0.503270 -0.260765
H3    H     H_    0.531821 0.873185 0.387511 0.202164
C15   C     C_2   0.495094 0.116635 0.413618 0.311628
C16   C     C_2   0.503472 0.071953 0.525192 0.401449
C17   C     C_2   0.498140 0.881244 0.593600 0.454529
C18   C     C_2   0.512115 0.933596 0.493930 -0.355172
H4    H     H_    0.407177 0.428234 0.845723 0.122762
N1    N     N_2   0.445130 0.445430 0.137370 -0.070739
C19   C     C_2   0.501374 0.519270 0.084180 0.704995
N2    N     N_2   0.554930 0.554500 0.862630 -0.002655
C20   C     C_2   0.486217 0.493453 0.918930 -0.005604
O9    O     O_3   0.079145 0.435043 0.230441 -0.573065
C21   C     C_3   0.092133 0.546882 0.195093 -0.333952
H5    H     H_    0.009428 0.604466 0.208822 0.142847
H6    H     H_    0.101201 0.516064 0.077867 0.177307
H7    H     H_    0.177304 0.610771 0.262696 0.186661
F1    F     F_    0.496225 0.035220 0.273270 -0.674146
F2    F     F_    0.567863 0.630321 0.180001 -0.675551
O10   O     O_3   0.666372 0.609056 0.950077 -0.476761
C22   C     C_3   0.686757 0.732247 0.944742 0.043600
H8    H     H_    0.601120 0.785851 0.952750 0.167828
H9    H     H_    0.723756 0.725785 0.844865 0.148128
H10   H     H_    0.759601 0.789215 0.041373 0.121345
O11   O     O_3   0.419113 0.321873 0.043152 -0.536931
C23   C     C_3   0.293220 0.286394 0.037304 -0.016929
H11   H     H_    0.277058 0.287142 0.145354 0.213451
H12   H     H_    0.268804 0.186208 0.956625 0.176703
H13   H     H_    0.230687 0.349685 0.997617 0.091269
O12   O     O_3   0.188869 0.809387 0.019609 -0.567483
C24   C     C_3   0.300528 0.760963 0.066837 -0.165522
H14   H     H_    0.370150 0.760564 0.996436 0.181723
H15   H     H_    0.283522 0.662728 0.069420 0.084400
H16   H     H_    0.341446 0.825486 0.181179 0.229978
O13   O     O_3   0.861080 0.473065 0.804159 -0.538017
C25   C     C_3   0.909989 0.350975 0.758220 -0.327577
H17   H     H_    0.869307 0.289364 0.808975 0.160170
H18   H     H_    0.013749 0.357631 0.794618 0.150476
H19   H     H_    0.883628 0.301674 0.636467 0.176010
O14   O     O_3   0.835785 0.365107 0.241286 -0.565067
C26   C     C_3   0.802789 0.426278 0.138736 -0.099953
H20   H     H_    0.795158 0.531991 0.191469 0.177929
H21   H     H_    0.709952 0.382102 0.070884 0.167560
H22   H     H_    0.869214 0.407379 0.061914 0.191942
O15   O     O_3   0.492169 0.152643 0.666311 -0.527874
C27   C     C_3   0.610713 0.181639 0.761806 -0.140246
H23   H     H_    0.679187 0.108393 0.727658 0.113053
H24   H     H_    0.597016 0.188266 0.872893 0.234457
H25   H     H_    0.651678 0.277388 0.772733 0.170976
F3    F     F_    0.471638 0.951535 0.727794 -0.624590

loop_
_geom_bond_atom_site_label_1
_geom_bond_atom_site_label_2
_geom_bond_distance
_ccdc_geom_bond_type
C6    C7    1.392127 A    
O4    Cu2   1.973249 S    
C23   H12   1.109339 S    
C9    C14   1.427818 A    
C5    C6    1.401785 A    
O9    C21   1.416101 S    
O2    C1    1.299017 A    
C7    C8    1.395872 A    
N2    C20   1.310848 D    
Cu2   O8    1.969512 S    
C26   H22   1.105120 S    
O14   C26   1.410614 S    
C8    C9    1.423120 A    
C27   H25   1.107339 S    
C22   H9    1.107345 S    
C12   O9    1.381778 S    
O13   C25   1.415161 S    
C16   C18   1.465261 S    
O1    Cu1   1.964639 S    
C22   H8    1.113839 S    
C4    C14   1.477415 S    
C8    O13   1.385404 S    
C21   H6    1.106942 S    
N2    O10   1.349483 S    
O4    C2    1.287910 A    
C25   H19   1.111296 S    
C2    C11   1.469249 S    
H4    C20   1.084695 S    
C15   F1    1.361728 S    
C15   C16   1.350713 D    
C5    C10   1.413101 A    
O8    C4    1.307719 A    
N1    C19   1.311620 D    
C19   C20   1.531205 S    
Cu2   N1    2.013948 S    
C24   H15   1.113818 S    
H3    C18   1.087241 S    
C25   H18   1.115935 S    
C17   C18   1.335980 D    
C17   F3    1.361185 S    
O7    C4    1.289364 A    
O15   C27   1.415649 S    
C24   H14   1.111027 S    
C24   H16   1.107519 S    
C23   H13   1.110445 S    
C1    C15   1.458734 S    
C26   H20   1.114579 S    
C19   F2    1.357218 S    
C11   C12   1.414118 A    
N1    O11   1.348392 S    
C5    H1    1.082430 S    
C3    C17   1.439785 S    
Cu1   Cu2   2.680863 S    
C27   H23   1.115637 S    
C21   H5    1.112784 S    
C12   C13   1.398733 A    
C21   H7    1.110232 S    
Cu2   O6    1.964639 S    
O11   C23   1.402612 S    
C22   H10   1.109135 S    
Cu1   O5    1.961632 S    
C16   O15   1.391289 S    
O5    C3    1.285997 A    
O12   C24   1.410346 S    
C7    H2    1.080622 S    
Cu1   O7    1.973249 S    
C27   H24   1.108868 S    
C23   H11   1.107731 S    
O3    Cu1   1.969512 S    
C13   C14   1.407969 A    
C9    C10   1.404000 A    
O3    C2    1.304548 A    
Cu1   N2    2.014099 S    
C6    O12   1.382426 S    
C13   O14   1.388995 S    
C10   C11   1.403446 A    
O2    Cu2   1.961632 S    
O10   C22   1.403650 S    
C26   H21   1.106015 S    
C25   H17   1.106310 S    
O1    C1    1.287959 A    
O6    C3    1.292453 A    
