data_mof_unit_56596.cif
_audit_creation_date              2012-12-11T16:53:31-0500
_audit_creation_method            fapswitch 2.2
_symmetry_space_group_name_H-M    P1
_symmetry_Int_Tables_number       1
_space_group_crystal_system       triclinic
_cell_length_a                    14.938556
_cell_length_b                    14.878229
_cell_length_c                    16.930628
_cell_angle_alpha                 109.024191
_cell_angle_beta                  106.644043
_cell_angle_gamma                 108.226989
_cell_volume                      3046.55087452

loop_
_atom_site_label
_atom_site_type_symbol
_atom_type_description
_atom_site_fract_x
_atom_site_fract_y
_atom_site_fract_z
_atom_type_partial_charge
C1    C     C_R   0.088001 0.279748 0.064495 -0.145933
C2    C     C_R   0.026483 0.464689 0.724189 0.049871
C3    C     C_R   0.664516 0.216318 0.743545 0.064626
C4    C     C_R   0.359090 0.559188 0.052978 0.070040
C5    C     C_R   0.213690 0.702350 0.264741 -0.132728
C6    C     C_R   0.753204 0.567364 0.977186 -0.148924
C7    C     C_R   0.893258 0.392438 0.174492 -0.174193
C8    C     C_R   0.084200 0.797019 0.998184 0.595099
C9    C     C_R   0.912905 0.712296 0.921504 -0.198668
C10   C     C_R   0.065994 0.473939 0.250203 0.035979
C11   C     C_R   0.220762 0.798053 0.187640 -0.129417
C12   C     C_R   0.934756 0.451096 0.734377 -0.126931
C13   C     C_R   0.743714 0.469604 0.053352 -0.121652
C14   C     C_R   0.234875 0.803869 0.274064 0.042115
C15   C     C_R   0.717069 0.546149 0.038826 0.067402
C16   C     C_R   0.975468 0.410667 0.251424 0.047747
C17   C     C_R   0.998247 0.804997 0.946741 -0.120663
C18   C     C_R   0.512317 0.635644 0.028020 0.160097
C19   C     C_R   0.469811 0.593506 0.078690 0.034662
C20   C     C_R   0.531080 0.570328 0.141847 -0.201931
C21   C     C_R   0.623154 0.568312 0.138688 -0.201956
C22   C     C_R   0.652116 0.588299 0.071722 0.027569
C23   C     C_R   0.721282 0.214027 0.822774 -0.134024
C24   C     C_R   0.601660 0.632089 0.023855 0.203252
C25   C     C_3   0.558505 0.601418 0.922338 -0.520481
C26   C     C_3   0.461775 0.607237 0.927419 -0.538771
C27   C     C_R   0.965103 0.366325 0.316904 0.122580
C28   C     C_R   0.033272 0.417076 0.636465 0.131680
C29   C     C_R   0.137082 0.420134 0.549745 -0.224617
C30   C     C_R   0.130800 0.441163 0.633814 -0.171915
C31   C     C_R   0.941657 0.357825 0.553004 -0.276343
C32   C     C_R   0.947650 0.342783 0.469631 0.189154
C33   C     C_R   0.046289 0.378682 0.468714 0.187838
C34   C     C_R   0.300430 0.594051 0.003459 -0.147423
C35   C     C_R   0.053650 0.385031 0.390493 -0.292809
C36   C     C_R   0.866001 0.318207 0.314264 -0.168896
C37   C     C_R   0.857286 0.304659 0.389626 -0.227166
C38   C     C_R   0.555211 0.142619 0.676993 0.130165
C39   C     C_R   0.273971 0.899978 0.360771 0.137868
C40   C     C_R   0.377710 0.091011 0.447428 -0.227490
C41   C     C_R   0.308361 0.000858 0.363591 -0.184260
C42   C     C_R   0.294316 0.892492 0.443983 -0.275360
C43   C     C_R   0.369271 0.980757 0.526945 0.186829
C44   C     C_R   0.415194 0.079688 0.527629 0.192584
C45   C     C_R   0.726024 0.309795 0.746098 -0.140434
C46   C     C_R   0.505821 0.161415 0.604271 -0.283537
C47   C     C_R   0.502911 0.048040 0.680046 -0.175379
C48   C     C_R   0.409044 0.968120 0.605917 -0.225146
C49   C     C_R   0.051885 0.096122 0.124010 0.119094
C50   C     C_R   0.990301 0.088396 0.040272 -0.001760
C51   C     C_R   0.901177 0.991338 0.976970 -0.427305
C52   C     C_R   0.862222 0.911653 0.003975 0.664388
C53   C     C_R   0.918499 0.929882 0.094630 -0.073657
C54   C     C_R   0.016813 0.017388 0.150101 0.056139
C55   C     C_3   0.061212 0.096139 0.249207 -0.427554
C56   C     C_R   0.295350 0.496154 0.078407 -0.128327
C57   C     C_3   0.099133 0.182529 0.220689 -0.486769
C58   C     C_R   0.109168 0.535540 0.811424 -0.112933
C59   C     C_R   0.914324 0.195781 0.984023 -0.131484
C60   C     C_R   0.000229 0.182040 0.024905 0.110384
H1    H     H_    0.166194 0.301698 0.111981 0.097170
H2    H     H_    0.748912 0.624862 0.952669 0.152138
H3    H     H_    0.812926 0.334077 0.145106 0.095649
H4    H     H_    0.835100 0.684120 0.869970 0.156143
H5    H     H_    0.229982 0.862199 0.169626 0.143596
H6    H     H_    0.727793 0.434272 0.097340 0.095173
H7    H     H_    0.502885 0.542702 0.185797 0.125685
H8    H     H_    0.663734 0.539247 0.180404 0.129782
H9    H     H_    0.602116 0.663772 0.907677 0.244493
H10   H     H_    0.855463 0.401540 0.681974 0.096037
H11   H     H_    0.543948 0.519519 0.878207 0.197810
H12   H     H_    0.451511 0.673835 0.916575 0.198905
H13   H     H_    0.391370 0.528710 0.885641 0.205019
H14   H     H_    0.130291 0.414340 0.393063 0.138383
H15   H     H_    0.795049 0.298425 0.257741 0.114686
H16   H     H_    0.213403 0.445888 0.549656 0.126052
H17   H     H_    0.780682 0.274660 0.388725 0.126988
H18   H     H_    0.202715 0.482313 0.696596 0.116870
H19   H     H_    0.865347 0.333726 0.552645 0.117364
H20   H     H_    0.542433 0.235003 0.601831 0.115002
H21   H     H_    0.692531 0.161312 0.850574 0.084370
H22   H     H_    0.537076 0.032215 0.736364 0.114115
H23   H     H_    0.410240 0.167222 0.447566 0.124388
H24   H     H_    0.373482 0.892987 0.606746 0.127209
H25   H     H_    0.289322 0.010025 0.300992 0.116244
H26   H     H_    0.263373 0.816369 0.443948 0.116988
H27   H     H_    0.857203 0.984250 0.910421 0.151662
H28   H     H_    0.000051 0.098755 0.273713 0.199662
H29   H     H_    0.126048 0.088607 0.294445 0.189024
H30   H     H_    0.059514 0.234703 0.227963 0.208939
H31   H     H_    0.329022 0.658459 0.986852 0.117063
H32   H     H_    0.185708 0.225033 0.249891 0.180450
H33   H     H_    0.702047 0.345995 0.703487 0.085575
H34   H     H_    0.319072 0.467162 0.127695 0.084841
H35   H     H_    0.191666 0.563770 0.829713 0.093499
H36   H     H_    0.832995 0.142018 0.958737 0.097616
H37   H     H_    0.215114 0.676875 0.317270 0.097137
N1    N     N_R   0.055640 0.348550 0.045600 -0.042129
N2    N     N_R   0.798340 0.505430 0.954400 -0.040309
N3    N     N_R   0.931580 0.439470 0.128350 -0.042021
N4    N     N_R   0.051950 0.704140 0.002340 -0.093949
N5    N     N_R   0.944360 0.651450 0.954400 -0.074412
N6    N     N_R   0.039170 0.492150 0.176290 -0.052783
N7    N     N_R   0.188710 0.696600 0.128350 -0.035000
N8    N     N_R   0.794820 0.447010 0.002340 -0.039356
N9    N     N_R   0.960830 0.507850 0.823710 -0.044503
N10   N     N_R   0.811290 0.303400 0.871650 -0.037603
N11   N     N_R   0.205180 0.552990 0.997660 -0.039641
N12   N     N_R   0.814810 0.361830 0.823710 -0.038401
N13   N     N_R   0.201660 0.494570 0.045600 -0.042213
N14   N     N_R   0.068420 0.560530 0.871650 -0.039031
N15   N     N_R   0.948050 0.295860 0.997660 -0.040436
N16   N     N_R   0.185190 0.638170 0.176290 -0.046754
Ni1   Ni    Ni4+2 0.119330 0.493420 0.109950 0.199159
Ni2   Ni    Ni4+2 0.880670 0.506580 0.890050 0.201410
Ni3   Ni    Ni4+2 0.872590 0.372590 0.000000 0.206545
Ni4   Ni    Ni4+2 0.127410 0.627410 0.000000 0.257818
O1    O     O_3   0.187556 0.855890 0.018118 -0.636750
C61   C     C_3   0.206941 0.959074 0.028401 -0.293482
H38   H     H_    0.184762 0.000617 0.081556 0.135208
H39   H     H_    0.165896 0.956655 0.961024 0.162036
H40   H     H_    0.291989 0.006066 0.052590 0.175618
N17   N     N_3   0.166794 0.479928 0.292861 -0.234173
H41   H     H_    0.207959 0.546755 0.357693 0.080039
H42   H     H_    0.207854 0.491893 0.253585 0.103473
O2    O     O_3   0.767242 0.819752 0.949145 -0.635732
C62   C     C_3   0.720900 0.800877 0.856147 -0.357469
H43   H     H_    0.776421 0.803106 0.824004 0.153241
H44   H     H_    0.688256 0.857649 0.851619 0.164615
H45   H     H_    0.655042 0.719810 0.814275 0.164935

loop_
_geom_bond_atom_site_label_1
_geom_bond_atom_site_label_2
_ccdc_geom_bond_type
C12   N9    A    
C35   H14   S    
N4    N5    A    
C57   H32   S    
C50   C60   S    
C9    H4    S    
C26   H12   S    
N8    Ni3   S    
C3    C23   A    
C19   C20   A    
N3    Ni3   S    
C58   H35   S    
C2    C12   A    
C8    O1    S    
N17   H41   S    
C39   C41   A    
C29   H16   S    
C53   C54   A    
C56   H34   S    
O2    C62   S    
C18   C24   A    
C36   C37   A    
N16   Ni1   S    
N2    Ni2   S    
C11   C14   A    
C45   N12   A    
N1    Ni1   S    
C49   C54   A    
C29   C33   A    
C26   H13   S    
C49   C57   S    
C18   C19   A    
C47   H22   S    
C55   H28   S    
C34   H31   S    
N5    Ni2   S    
C20   H7    S    
C14   C39   S    
O1    C61   S    
C4    C19   S    
C15   C22   S    
C31   C32   A    
C3    C38   S    
C9    N5    A    
C18   C26   S    
C11   N7    A    
C25   H11   S    
C43   C48   A    
N13   Ni1   S    
N9    N14   A    
C16   C27   S    
C6    C15   A    
C45   H33   S    
C59   C60   A    
C21   C22   A    
C4    C56   A    
N10   N12   A    
C40   H23   S    
C56   N13   A    
C44   C46   A    
C59   N15   A    
C39   C42   A    
C13   H6    S    
C61   H39   S    
N2    N8    A    
C4    C34   A    
N1    N15   A    
C57   H30   S    
C51   C52   A    
N6    Ni1   S    
C24   C25   S    
C13   N8    A    
C10   N17   S    
C7    N3    A    
C1    C60   A    
C51   H27   S    
C52   O2    S    
C27   C35   A    
C25   C26   S    
C37   H17   S    
C3    C45   A    
N3    N6    A    
C58   N14   A    
C43   C44   A    
C62   H44   S    
C29   C30   A    
C36   H15   S    
C47   C48   A    
C23   N10   A    
C10   N6    A    
C50   C51   A    
C5    C14   A    
C32   C37   A    
C7    H3    S    
C38   C47   A    
C42   H26   S    
C9    C17   A    
C40   C41   A    
C5    H37   S    
C55   C57   S    
C21   H8    S    
C22   C24   A    
C25   H9    S    
C42   C43   A    
C62   H43   S    
N15   Ni3   S    
C52   C53   A    
N7    Ni4   S    
C8    N4    A    
C61   H40   S    
C12   H10   S    
C54   C55   S    
C7    C16   A    
C23   H21   S    
C5    N16   A    
N11   Ni4   S    
C28   C31   A    
C1    H1    S    
C1    N1    A    
C61   H38   S    
C2    C58   A    
C31   H19   S    
C27   C36   A    
C41   H25   S    
C8    C17   A    
N9    Ni2   S    
N14   Ni4   S    
C34   N11   A    
C32   C33   A    
C6    H2    S    
C13   C15   A    
C62   H45   S    
N4    Ni4   S    
C55   H29   S    
C10   C16   A    
C6    N2    A    
C46   H20   S    
C28   C30   A    
C33   C35   A    
N11   N13   A    
N10   Ni3   S    
C38   C46   A    
N17   H42   S    
N12   Ni2   S    
N7    N16   A    
C30   H18   S    
C48   H24   S    
C40   C44   A    
C20   C21   A    
C49   C50   A    
C59   H36   S    
C2    C28   S    
C11   H5    S    
