data_mof_unit_18547.cif
_audit_creation_date              2013-03-05T15:47:23-0500
_audit_creation_method            fapswitch 2.2
_symmetry_space_group_name_H-M    P1
_symmetry_Int_Tables_number       1
_space_group_crystal_system       triclinic
_cell_length_a                    8.333942
_cell_length_b                    18.926454
_cell_length_c                    19.196943
_cell_angle_alpha                 96.740976
_cell_angle_beta                  94.469113
_cell_angle_gamma                 93.425095
_cell_volume                      2990.6301539

loop_
_atom_site_label
_atom_site_type_symbol
_atom_site_description
_atom_site_fract_x
_atom_site_fract_y
_atom_site_fract_z
_atom_type_partial_charge
P1    P     P_3+3 0.954930 0.659850 0.559700 0.451742
O1    O     O_2   0.126770 0.670950 0.539180 -0.377360
O2    O     O_3   0.874330 0.583580 0.538020 -0.385669
O3    O     O_3   0.360240 0.629040 0.412110 -0.330326
O4    O     O_2   0.239733 0.748045 0.463431 -0.372432
O5    O     O_3   0.987587 0.666748 0.651679 -0.657704
O6    O     O_3   0.348198 0.757008 0.347279 -0.525886
H1    H     H_    0.490368 0.683115 0.297455 0.065817
C1    C     C_3   0.411246 0.760661 0.230287 0.187492
H2    H     H_    0.301764 0.725538 0.209542 0.161729
H3    H     H_    0.378959 0.817251 0.237450 0.137559
P2    P     P_3+3 0.352180 0.446150 0.339620 0.540114
P3    P     P_3+3 0.916706 0.594067 0.283764 0.520501
O7    O     O_2   0.179370 0.467330 0.329490 -0.308845
O8    O     O_3   0.943350 0.594040 0.376060 -0.372865
O9    O     O_2   0.039178 0.544134 0.251829 -0.329784
O10   O     O_3   0.310684 0.353553 0.330748 -0.584759
O11   O     O_3   0.988796 0.678142 0.266329 -0.476662
C2    C     C_3   0.880744 0.727477 0.290438 0.216265
H4    H     H_    0.850374 0.721277 0.345033 0.015334
H5    H     H_    0.769386 0.719506 0.254550 0.072679
C3    C     C_3   0.954784 0.803586 0.290989 0.257479
H6    H     H_    0.045313 0.815088 0.337182 0.134987
C4    C     C_3   0.917600 0.281958 0.317317 0.156167
H7    H     H_    0.046635 0.297578 0.332382 0.124939
H8    H     H_    0.888076 0.228768 0.333932 0.067578
C5    C     C_3   0.885921 0.274892 0.237088 -0.028714
H9    H     H_    0.758875 0.254911 0.221227 0.142184
H10   H     H_    0.964458 0.234870 0.213329 0.065746
Ba1   Ba    Ba6+2 0.154050 0.534420 0.467300 1.640014
C6    C     C_3   0.869216 0.705716 0.685139 1.057792
H11   H     H_    0.758970 0.708125 0.649184 0.028955
C7    C     C_3   0.935684 0.782597 0.709291 -0.994082
H12   H     H_    0.044141 0.784361 0.746705 0.221972
H13   H     H_    0.844337 0.812979 0.736293 0.306894
H14   H     H_    0.967882 0.809487 0.663580 0.215562
C8    C     C_3   0.430307 0.315886 0.297628 0.714016
H15   H     H_    0.544204 0.348983 0.296459 0.012520
C9    C     C_3   0.366289 0.288701 0.222061 -0.814843
H16   H     H_    0.259860 0.250411 0.221493 0.228615
H17   H     H_    0.460806 0.261653 0.193532 0.250513
H18   H     H_    0.329974 0.333826 0.194261 0.271856
P4    P     P_3+3 0.855360 0.340140 0.440240 0.499122
O12   O     O_2   0.683530 0.329010 0.460790 -0.308414
O13   O     O_3   0.935970 0.416420 0.461920 -0.443896
O14   O     O_3   0.450050 0.370950 0.587830 -0.388109
O15   O     O_3   0.820628 0.332853 0.348388 -0.558831
P5    P     P_3+3 0.891544 0.409049 0.716629 0.511931
O16   O     O_3   0.375780 0.535040 0.584090 -0.390686
O17   O     O_3   0.866950 0.405950 0.623880 -0.335938
O18   O     O_2   0.772829 0.461376 0.747215 -0.391566
O19   O     O_3   0.816496 0.328618 0.743298 -0.508942
Ba2   Ba    Ba6+2 0.656120 0.465570 0.532650 1.671577
P6    P     P_3+3 0.387477 0.722571 0.426818 0.478803
C10   C     C_3   0.468633 0.740907 0.302500 0.215432
H19   H     H_    0.580797 0.773870 0.322870 0.015846
O20   O     O_3   0.434510 0.464950 0.415850 -0.350197
C11   C     C_3   0.382285 0.684805 0.654587 0.202311
H20   H     H_    0.428635 0.689325 0.602431 0.098323
H21   H     H_    0.263797 0.654870 0.647934 0.126958
C12   C     C_3   0.356185 0.758495 0.691657 -0.074318
H22   H     H_    0.264142 0.783655 0.659552 0.092947
H23   H     H_    0.310124 0.752289 0.743560 0.116345
P7    P     P_3+3 0.455545 0.558085 0.672491 0.482726
O21   O     O_2   0.630930 0.532620 0.670490 -0.296874
O22   O     O_3   0.490509 0.650301 0.695821 -0.540933
H24   H     H_    0.861464 0.842766 0.299558 0.000697
C13   C     C_3   0.930157 0.276395 0.738653 0.764129
H25   H     H_    0.054050 0.299113 0.735084 -0.121759
C14   C     C_3   0.934029 0.239251 0.805606 0.121949
H26   H     H_    0.017135 0.195431 0.800338 0.111018
H27   H     H_    0.812083 0.214606 0.811066 0.138100
P8    P     P_3+3 0.427495 0.277986 0.581716 0.559011
C15   C     C_3   0.410236 0.309510 0.714124 0.299364
H28   H     H_    0.287095 0.322382 0.695654 -0.082883
O23   O     O_2   0.564769 0.247310 0.540368 -0.272020
O24   O     O_3   0.467680 0.255936 0.667127 -0.528635
H29   H     H_    0.491325 0.358926 0.717983 0.103302
H30   H     H_    0.349681 0.332965 0.818249 -0.077409
C16   C     C_3   0.405320 0.287785 0.788650 0.874563
N1    N     N_R   0.809532 0.045951 0.470382 -0.054850
N2    N     N_R   0.757667 0.977562 0.469439 -0.068902
C17   C     C_2   0.701009 0.706435 0.487033 -0.459717
C18   C     C_3   0.570064 0.757988 0.486725 0.244530
C19   C     C_2   0.635860 0.832026 0.476388 -0.225983
C20   C     C_2   0.793860 0.852621 0.495247 0.052303
C21   C     C_2   0.901934 0.796676 0.518959 -0.257819
C22   C     C_1   0.844911 0.728780 0.518116 0.263661
N3    N     N_R   0.008765 0.952776 0.519557 -0.065752
N4    N     N_R   0.060576 0.021242 0.520618 -0.070120
C23   C     C_R   0.962322 0.069692 0.496228 0.190132
C24   C     C_R   0.855617 0.929182 0.494118 0.150354
C25   C     C_R   0.922134 0.197989 0.471326 -0.193343
C26   C     C_R   0.975772 0.271234 0.478140 0.266782
C27   C     C_R   0.227247 0.244188 0.538937 0.243875
C28   C     C_R   0.174083 0.171735 0.532891 -0.218085
C29   C     C_R   0.020025 0.147250 0.499598 0.078275
C30   C     C_R   0.127572 0.293124 0.512166 -0.330274
H31   H     H_    0.551674 0.869897 0.460386 0.152039
H32   H     H_    0.026794 0.812113 0.537455 0.162233
H33   H     H_    0.804093 0.181093 0.445055 0.170553
H34   H     H_    0.252622 0.134915 0.554835 0.141213
H35   H     H_    0.676432 0.651860 0.462587 0.200863
H36   H     H_    0.169683 0.348818 0.516891 0.154080
C31   C     C_R   0.604741 0.532019 0.295005 0.262950
C32   C     C_R   0.461396 0.491021 0.272244 0.110527
C33   C     C_R   0.410201 0.482947 0.200005 -0.283139
C34   C     C_R   0.506933 0.512635 0.151489 0.168257
C35   C     C_R   0.656953 0.549640 0.176288 -0.241277
C36   C     C_R   0.707279 0.558921 0.248240 0.086315
C37   C     C_R   0.455035 0.565586 0.039292 -0.403466
C38   C     C_R   0.406464 0.561194 0.966730 0.637523
C39   C     C_R   0.343499 0.495235 0.929725 -0.039158
C40   C     C_R   0.337340 0.434684 0.965562 -0.402245
C41   C     C_R   0.398956 0.437889 0.036336 0.385826
C42   C     C_R   0.453410 0.504641 0.074659 -0.036827
C43   C     C_R   0.141641 0.452598 0.825989 -0.281505
C44   C     C_R   0.094205 0.445867 0.753535 0.192869
C45   C     C_R   0.342169 0.511179 0.733689 0.215557
C46   C     C_R   0.392214 0.516537 0.805522 -0.203926
C47   C     C_R   0.291826 0.487935 0.852767 0.093841
C48   C     C_R   0.195335 0.474757 0.708037 -0.450117
H37   H     H_    0.508294 0.543371 0.824245 0.162299
H38   H     H_    0.493070 0.617023 0.068583 0.181861
H39   H     H_    0.295991 0.454063 0.181576 0.194237
H40   H     H_    0.293469 0.383625 0.936910 0.197174
H41   H     H_    0.060672 0.432007 0.861406 0.195597
H42   H     H_    0.735697 0.569514 0.139600 0.156315
H43   H     H_    0.155967 0.471820 0.652632 0.171956
N5    N     N_R   0.916851 0.343024 0.210239 0.288864
O25   O     O_R   0.819904 0.393648 0.221783 -0.380964
O26   O     O_R   0.024803 0.349410 0.165578 -0.382841
O27   O     O_3   0.816559 0.673614 0.743562 -0.600445
C49   C     C_3   0.941545 0.642153 0.780487 -0.025719
H44   H     H_    0.971995 0.592028 0.749737 0.148160
H45   H     H_    0.897946 0.627893 0.830506 0.125277
H46   H     H_    0.051256 0.678987 0.794029 0.095556
N6    N     N_R   0.464481 0.254659 0.335176 0.244082
O28   O     O_R   0.565935 0.209560 0.312405 -0.453266
O29   O     O_R   0.386467 0.242083 0.389063 -0.398077
O30   O     O_3   0.533572 0.751920 0.183928 -0.658314
C50   C     C_3   0.482859 0.776016 0.119557 -0.276972
H47   H     H_    0.455548 0.833124 0.127018 0.156994
H48   H     H_    0.376675 0.742447 0.092656 0.172213
H49   H     H_    0.582698 0.771895 0.084783 0.159079
N7    N     N_R   0.504598 0.804498 0.701680 0.270053
O31   O     O_R   0.569902 0.825306 0.647500 -0.436264
O32   O     O_R   0.558136 0.833307 0.764704 -0.383355
N8    N     N_R   0.883991 0.225552 0.675909 0.197125
O33   O     O_R   0.864007 0.249344 0.615445 -0.377697
O34   O     O_R   0.856842 0.157599 0.679230 -0.447547
O35   O     O_3   0.983216 0.289879 0.864577 -0.615699
C51   C     C_3   0.022416 0.254557 0.923665 -0.118415
H50   H     H_    0.927742 0.212592 0.930843 0.107875
H51   H     H_    0.032377 0.294257 0.971359 0.212870
H52   H     H_    0.140830 0.231014 0.919434 0.174448
O36   O     O_3   0.562900 0.281000 0.819277 -0.641124
C52   C     C_3   0.567380 0.293684 0.893375 -0.120696
H53   H     H_    0.677776 0.272624 0.916441 0.177628
H54   H     H_    0.462838 0.266394 0.914484 0.158136
H55   H     H_    0.574104 0.351928 0.910546 0.144298
O37   O     O_3   0.302186 0.225831 0.791227 -0.695835
C53   C     C_3   0.362488 0.162260 0.760461 -0.087862
H56   H     H_    0.496334 0.162774 0.763622 0.188914
H57   H     H_    0.312192 0.150227 0.704764 0.159162
H58   H     H_    0.319071 0.117789 0.788523 0.142543
O38   O     O_3   0.404811 0.622035 0.932920 -0.628240
C54   C     C_3   0.562684 0.654504 0.935785 -0.235759
H59   H     H_    0.653845 0.615131 0.923505 0.121761
H60   H     H_    0.597186 0.685676 0.987870 0.132222
H61   H     H_    0.565181 0.692210 0.895716 0.209859
N9    N     N_R   0.417521 0.372618 0.066528 0.219172
O39   O     O_R   0.316449 0.317583 0.046665 -0.441262
O40   O     O_R   0.550126 0.364060 0.104123 -0.393680
O41   O     O_3   0.650329 0.542595 0.364943 -0.683975
C55   C     C_3   0.744205 0.486470 0.379556 0.167315
H62   H     H_    0.837515 0.473709 0.342554 0.139623
H63   H     H_    0.673004 0.436408 0.380906 0.113350
H64   H     H_    0.805160 0.505740 0.430952 0.221673
O42   O     O_3   0.035908 0.811828 0.230037 -0.588334
C56   C     C_3   0.925002 0.819208 0.172421 -0.136364
H65   H     H_    0.843556 0.862628 0.184807 0.136222
H66   H     H_    0.854402 0.767917 0.153989 0.164607
H67   H     H_    0.993687 0.833429 0.128241 0.142004

loop_
_geom_bond_atom_site_label_1
_geom_bond_atom_site_label_2
_geom_bond_distance
_ccdc_geom_bond_type
C21   C22   1.341038 D    
O36   C52   1.411702 S    
C28   H34   1.082566 S    
C5    H10   1.111247 S    
Ba1   O13   2.780857 S    
C27   C28   1.404359 A    
C4    C5    1.530916 S    
O6    C10   1.395974 S    
C10   H19   1.109958 S    
P4    C26   1.871502 S    
C49   H46   1.110781 S    
P6    C18   1.873980 S    
C40   C41   1.407653 A    
N4    C23   1.364310 A    
C27   C30   1.396104 A    
N8    O33   1.295877 A    
C9    H17   1.109980 S    
C19   C20   1.359454 D    
C46   C47   1.412430 A    
P3    C36   1.876989 S    
P7    C45   1.838134 S    
C17   H35   1.083984 S    
P3    O11   1.745621 S    
C53   H57   1.110118 S    
C31   C36   1.403670 A    
C4    H8    1.110747 S    
C39   C40   1.404591 A    
N8    O34   1.302334 A    
N9    O39   1.300671 A    
C40   H40   1.082451 S    
C30   H36   1.082074 S    
C56   H67   1.109174 S    
C32   C33   1.406688 A    
C26   C30   1.394215 A    
C11   H21   1.099511 S    
C41   C42   1.415829 A    
Ba1   O20   2.930790 S    
C7    H14   1.107377 S    
N2    C24   1.363875 A    
C34   C35   1.415854 A    
P1    O1    1.523689 D    
C44   C48   1.394259 A    
C12   H23   1.111583 S    
C43   C47   1.413202 A    
C13   N8    1.461593 S    
C52   H55   1.109690 S    
O12   Ba2   2.813886 S    
C11   O22   1.395350 S    
C54   H61   1.109500 S    
C37   C38   1.411403 A    
N9    O40   1.301124 A    
C13   H25   1.104794 S    
C15   O24   1.407782 S    
P2    O10   1.751658 S    
C33   C34   1.420833 A    
C6    C7    1.531142 S    
C14   H26   1.112480 S    
C1    C10   1.526422 S    
C51   H51   1.108564 S    
Ba2   O21   2.826027 S    
C1    H2    1.114340 S    
C48   H43   1.082372 S    
O19   C13   1.409423 S    
C46   H37   1.080396 S    
C6    O27   1.422824 S    
O3    P6    1.757719 S    
P1    C22   1.858295 S    
C54   H60   1.107681 S    
C17   C22   1.319772 D    
O13   Ba2   2.933358 S    
O16   P7    1.768560 S    
C15   C16   1.537124 S    
C52   H54   1.113750 S    
C50   H49   1.107305 S    
O7    Ba1   2.825966 S    
H1    C10   1.113608 S    
C38   C39   1.412037 A    
P4    Ba2   3.388386 S    
N1    N2    1.337517 A    
C9    H18   1.103868 S    
N7    O32   1.300802 A    
P5    O18   1.541281 D    
Ba1   Ba2   4.587045 S    
O17   Ba2   2.765673 S    
C15   H28   1.109820 S    
N7    O31   1.300712 A    
P1    O5    1.753750 S    
O4    P6    1.539083 D    
C53   H58   1.109050 S    
C14   O35   1.412040 S    
C4    H7    1.104957 S    
C33   H39   1.081619 S    
C3    O42   1.415642 S    
C56   H66   1.110144 S    
C25   H33   1.082399 S    
O38   C54   1.412778 S    
Ba2   O20   2.790068 S    
C20   C21   1.517487 S    
O11   C2    1.400318 S    
C49   H45   1.109220 S    
C11   H20   1.111502 S    
C56   H65   1.112887 S    
C38   O38   1.386859 S    
C23   C29   1.509540 S    
P1    O2    1.551677 S    
P7    O22   1.751283 S    
O2    Ba1   2.932401 S    
N5    O26   1.300225 A    
C12   N7    1.455966 S    
C8    H15   1.108813 S    
C19   H31   1.085620 S    
P4    O13   1.551872 S    
C35   H42   1.083009 S    
C17   C18   1.506837 S    
C28   C29   1.415325 A    
C2    C3    1.531347 S    
C21   H32   1.084418 S    
C7    H12   1.106141 S    
C25   C26   1.418793 A    
O10   C8    1.408421 S    
C18   C19   1.514612 S    
N3    C24   1.360319 A    
P5    O17   1.769962 S    
C1    H3    1.115369 S    
C16   O37   1.419847 S    
C37   C42   1.405362 A    
N6    O29   1.301390 A    
P2    O20   1.559161 S    
C55   H62   1.111688 S    
Ba1   O16   2.790521 S    
P2    O7    1.521935 D    
C8    N6    1.465275 S    
P3    O8    1.768462 S    
P4    O12   1.523875 D    
C15   H29   1.112356 S    
O27   C49   1.414263 S    
P8    O23   1.545520 D    
C50   H48   1.112675 S    
P8    C27   1.845048 S    
C25   C29   1.424516 A    
C9    H16   1.109890 S    
O42   C56   1.410510 S    
O8    Ba1   2.765134 S    
O37   C53   1.414456 S    
C45   C48   1.393100 A    
C54   H59   1.114614 S    
C1    O30   1.409130 S    
P2    Ba1   3.394740 S    
C37   H38   1.082246 S    
C3    H6    1.110747 S    
C4    O15   1.403567 S    
C6    H11   1.111849 S    
C41   N9    1.436273 S    
P5    C44   1.843125 S    
C45   C46   1.399389 A    
C49   H44   1.110627 S    
C31   C32   1.395867 A    
O1    Ba1   2.813356 S    
P7    O21   1.568045 D    
C55   H64   1.086189 S    
C2    H4    1.114860 S    
N5    O25   1.300187 A    
C51   H50   1.113599 S    
C43   H41   1.082476 S    
C8    C9    1.524831 S    
O41   C55   1.397938 S    
C20   C24   1.511637 S    
O30   C50   1.409826 S    
P2    C32   1.889864 S    
O2    Ba2   2.781675 S    
C51   H52   1.111564 S    
C34   C42   1.494740 S    
C16   O36   1.415755 S    
C52   H53   1.105968 S    
C11   C12   1.525201 S    
O16   Ba2   2.929872 S    
O14   Ba2   2.764033 S    
C55   H63   1.091565 S    
P1    Ba1   3.387720 S    
C7    H13   1.105761 S    
O5    C6    1.415691 S    
C12   H22   1.110808 S    
C3    H24   1.114459 S    
C53   H56   1.111777 S    
N6    O28   1.300311 A    
H30   C16   1.115099 S    
N1    C23   1.360263 A    
P5    O19   1.757759 S    
C39   C47   1.494305 S    
O35   C51   1.409487 S    
C13   C14   1.534789 S    
C31   O41   1.354733 S    
P3    O9    1.545160 D    
C35   C36   1.399504 A    
C5    H9    1.109805 S    
C5    N5    1.460101 S    
P8    O24   1.751124 S    
C50   H47   1.112964 S    
C14   H27   1.110335 S    
O6    P6    1.744877 S    
N3    N4    1.338507 A    
C43   C44   1.404916 A    
P4    O15   1.752307 S    
O14   P8    1.747411 S    
O3    Ba1   2.764744 S    
C2    H5    1.103590 S    
