data_mof_unit_60325.cif
_audit_creation_date              2012-12-10T20:06:22-0500
_audit_creation_method            fapswitch 2.2
_symmetry_space_group_name_H-M    P1
_symmetry_Int_Tables_number       1
_space_group_crystal_system       triclinic
_cell_length_a                    22.384304
_cell_length_b                    26.210118
_cell_length_c                    22.384223
_cell_angle_alpha                 90.076643
_cell_angle_beta                  89.997512
_cell_angle_gamma                 89.967686
_cell_volume                      13132.7034398

loop_
_atom_site_label
_atom_site_type_symbol
_atom_type_description
_atom_site_fract_x
_atom_site_fract_y
_atom_site_fract_z
_atom_type_partial_charge
C1    C     C_R   0.499478 0.391395 0.749750 0.639879
C2    C     C_R   0.001144 0.391399 0.748744 0.609140
C3    C     C_3   0.434640 0.969330 0.752169 0.386418
C4    C     C_3   0.434860 0.529326 0.234043 0.353789
C5    C     C_3   0.436656 0.530625 0.769312 0.384217
C6    C     C_3   0.433710 0.470876 0.759312 0.350422
C7    C     C_3   0.438398 0.469547 0.224742 0.385169
C8    C     C_3   0.933634 0.028973 0.251794 0.344645
C9    C     C_3   0.936818 0.030612 0.769931 0.383551
C10   C     C_3   0.933803 0.970862 0.759995 0.349598
C11   C     C_3   0.935228 0.969231 0.240984 0.384039
C12   C     C_3   0.950289 0.530118 0.703471 0.379053
C13   C     C_R   0.999062 0.608600 0.750830 0.645277
C14   C     C_3   0.937395 0.530569 0.272122 0.383948
C15   C     C_3   0.934148 0.470811 0.262435 0.351002
C16   C     C_3   0.945429 0.470150 0.709709 0.374379
C17   C     C_3   0.523279 0.031469 0.683705 -0.084643
C18   C     C_3   0.553950 0.030811 0.295902 -0.152425
C19   C     C_3   0.545335 0.969269 0.304380 -0.119739
C20   C     C_3   0.533998 0.969947 0.687221 -0.153585
C21   C     C_3   0.547094 0.530546 0.197005 -0.115345
C22   C     C_3   0.551235 0.530563 0.799188 -0.150842
C23   C     C_3   0.541951 0.468997 0.806825 -0.115630
C24   C     C_R   0.000002 0.608589 0.249707 0.607213
C25   C     C_3   0.555301 0.469004 0.205870 -0.149429
C26   C     C_3   0.032878 0.031626 0.187451 -0.117414
C27   C     C_3   0.051680 0.030602 0.798691 -0.149733
C28   C     C_3   0.042491 0.969039 0.806465 -0.114512
C29   C     C_3   0.043374 0.969966 0.192620 -0.152967
C30   C     C_3   0.066258 0.531509 0.727428 -0.125497
C31   C     C_3   0.053202 0.530740 0.296813 -0.153152
C32   C     C_3   0.044390 0.469192 0.305063 -0.120023
C33   C     C_3   0.063104 0.470071 0.717215 -0.159847
C34   C     C_3   0.545976 0.030172 0.800028 0.386877
C35   C     C_R   0.999521 0.891396 0.749797 0.639351
C36   C     C_3   0.514774 0.029191 0.184576 0.361603
C37   C     C_3   0.524177 0.969437 0.188015 0.385115
C38   C     C_3   0.539713 0.970217 0.804870 0.379518
C39   C     C_3   0.522142 0.530582 0.312615 0.384162
C40   C     C_3   0.519129 0.529293 0.685630 0.361762
C41   C     C_3   0.527985 0.469505 0.689375 0.383947
C42   C     C_3   0.512474 0.470848 0.315852 0.360772
C43   C     C_3   0.037800 0.030285 0.305701 0.386596
C44   C     C_3   0.018464 0.029277 0.685452 0.361513
C45   C     C_3   0.027409 0.969495 0.689155 0.384234
C46   C     C_R   0.001141 0.891402 0.249097 0.598465
C47   C     C_3   0.030457 0.970409 0.309918 0.364571
C48   C     C_3   0.986533 0.529251 0.814952 0.345062
C49   C     C_3   0.015985 0.529219 0.184821 0.363005
C50   C     C_3   0.025241 0.469456 0.188353 0.385783
C51   C     C_3   0.996907 0.469355 0.815415 0.370176
C52   C     C_2   0.475982 0.045463 0.636055 0.315881
C53   C     C_2   0.556951 0.056951 0.357345 0.216379
C54   C     C_2   0.517916 0.954796 0.365232 0.234292
C55   C     C_2   0.512800 0.944296 0.629202 0.180334
C56   C     C_2   0.521630 0.545045 0.135341 0.223538
C57   C     C_R   0.999168 0.108613 0.250707 0.638961
C58   C     C_2   0.550573 0.556473 0.860859 0.218272
C59   C     C_2   0.510919 0.454481 0.865957 0.226804
C60   C     C_2   0.560177 0.442749 0.144621 0.212612
C61   C     C_2   0.992948 0.046406 0.133845 0.227811
C62   C     C_2   0.051596 0.056547 0.860339 0.216442
C63   C     C_2   0.012013 0.954534 0.865880 0.223128
C64   C     C_2   0.032613 0.944544 0.131488 0.227791
C65   C     C_2   0.090842 0.558005 0.671064 0.324930
C66   C     C_2   0.055191 0.556814 0.358340 0.218357
C67   C     C_2   0.015946 0.454709 0.365451 0.231885
C68   C     C_R   0.000188 0.108588 0.749888 0.605143
C69   C     C_2   0.062991 0.454149 0.651037 0.296886
C70   C     C_2   0.578645 0.058682 0.658389 0.411482
C71   C     C_2   0.614483 0.049159 0.270926 0.288194
C72   C     C_2   0.606344 0.942859 0.310208 0.387868
C73   C     C_2   0.599116 0.950801 0.687704 0.323847
C74   C     C_2   0.608348 0.556724 0.192949 0.385477
C75   C     C_2   0.613129 0.548925 0.777911 0.286964
C76   C     C_2   0.602397 0.442312 0.815944 0.386104
C77   C     C_2   0.615041 0.450591 0.232726 0.287318
C78   C     C_2   0.091172 0.058796 0.170012 0.391826
C79   C     C_3   0.500981 0.051109 0.749184 -0.095440
C80   C     C_2   0.113376 0.048960 0.776828 0.287748
C81   C     C_2   0.103032 0.942392 0.815079 0.386791
C82   C     C_2   0.107859 0.951495 0.203546 0.288228
C83   C     C_2   0.113724 0.546138 0.774588 0.350319
C84   C     C_2   0.114134 0.549092 0.272856 0.287980
C85   C     C_2   0.105257 0.442702 0.311821 0.387578
C86   C     C_2   0.121141 0.444688 0.739207 0.278659
C87   C     C_3   0.501776 0.051040 0.251121 -0.086362
C88   C     C_3   0.501159 0.948901 0.251747 -0.074093
C89   C     C_R   0.499768 0.391407 0.250493 0.609966
C90   C     C_3   0.502392 0.949037 0.747823 -0.123489
C91   C     C_3   0.501279 0.551088 0.248148 -0.072566
C92   C     C_3   0.501994 0.551017 0.751336 -0.087065
C93   C     C_3   0.500993 0.448884 0.751520 -0.073490
C94   C     C_3   0.501657 0.448946 0.248968 -0.085527
C95   C     C_3   0.001025 0.051144 0.248785 -0.075985
C96   C     C_3   0.001969 0.051021 0.751305 -0.087812
C97   C     C_3   0.001024 0.948887 0.751561 -0.074278
C98   C     C_3   0.002704 0.949025 0.247731 -0.089639
C99   C     C_3   0.000604 0.551089 0.749065 -0.090657
C100  C     C_R   0.499910 0.608600 0.249807 0.640459
C101  C     C_3   0.001827 0.551033 0.251160 -0.086496
C102  C     C_3   0.001098 0.448896 0.251665 -0.073223
C103  C     C_3   0.002063 0.449025 0.747733 -0.105698
C104  C     C_1   0.499996 0.250029 0.973285 0.053577
C105  C     C_1   0.500031 0.249999 0.026714 0.052845
C106  C     C_1   0.499994 0.749975 0.026716 0.054408
C107  C     C_1   0.500028 0.750002 0.973284 0.052738
C108  C     C_1   0.499989 0.750023 0.473285 0.053141
C109  C     C_1   0.500024 0.749992 0.526713 0.047596
C110  C     C_1   0.499996 0.249972 0.526717 0.055362
C111  C     C_R   0.500232 0.608587 0.749932 0.606811
C112  C     C_1   0.500029 0.250001 0.473284 0.054834
C113  C     C_1   0.999991 0.250024 0.473285 0.057197
C114  C     C_1   0.000026 0.249993 0.526714 0.056545
C115  C     C_1   0.999991 0.749979 0.526716 0.055598
C116  C     C_1   0.000025 0.750006 0.473284 0.055313
C117  C     C_1   0.999996 0.750030 0.973286 0.053156
C118  C     C_1   0.000032 0.750001 0.026714 0.052615
C119  C     C_1   0.999993 0.249975 0.026716 0.053694
C120  C     C_1   0.000026 0.250003 0.973284 0.053231
C121  C     C_R   0.499992 0.249985 0.590086 0.530528
C122  C     C_R   0.499743 0.891399 0.250040 0.639563
C123  C     C_R   0.500019 0.250005 0.409914 0.534983
C124  C     C_R   0.499989 0.750013 0.409921 0.530996
C125  C     C_R   0.500015 0.749991 0.590078 0.519673
C126  C     C_R   0.499990 0.749987 0.090086 0.530239
C127  C     C_R   0.500019 0.750005 0.909914 0.535362
C128  C     C_R   0.499992 0.250016 0.909921 0.529267
C129  C     C_R   0.500020 0.249995 0.090079 0.534753
C130  C     C_R   0.999991 0.249986 0.090086 0.529869
C131  C     C_R   0.000016 0.250007 0.909914 0.536390
C132  C     C_R   0.999992 0.750015 0.909921 0.529830
C133  C     C_R   0.501250 0.891392 0.748873 0.540702
C134  C     C_R   0.000020 0.749995 0.090079 0.532693
C135  C     C_R   0.999988 0.749989 0.590086 0.532287
C136  C     C_R   0.000018 0.750006 0.409913 0.535037
C137  C     C_R   0.999990 0.250014 0.409921 0.530570
C138  C     C_R   0.000016 0.249991 0.590079 0.534485
C139  C     C_R   0.659917 0.249997 0.750007 0.538649
C140  C     C_R   0.659935 0.249995 0.249994 0.510673
C141  C     C_R   0.659917 0.749996 0.250005 0.536793
C142  C     C_R   0.659936 0.749993 0.749996 0.507319
C143  C     C_R   0.159917 0.249997 0.250006 0.538549
C144  C     C_R   0.499189 0.108605 0.750839 0.634041
C145  C     C_R   0.159936 0.249996 0.749993 0.515785
C146  C     C_R   0.159917 0.749994 0.750004 0.538100
C147  C     C_R   0.159935 0.749994 0.249995 0.509280
C148  C     C_R   0.340071 0.250004 0.750006 0.525826
C149  C     C_R   0.340089 0.250004 0.249995 0.528237
C150  C     C_R   0.340071 0.750004 0.250006 0.524744
C151  C     C_R   0.340089 0.750003 0.749994 0.536378
C152  C     C_R   0.840071 0.250004 0.250006 0.524127
C153  C     C_R   0.840089 0.250002 0.749993 0.529394
C154  C     C_R   0.840071 0.750004 0.750007 0.524034
C155  C     C_R   0.499927 0.108590 0.249637 0.607791
C156  C     C_R   0.840089 0.750004 0.249995 0.529215
C157  C     C_1   0.276715 0.250007 0.750007 0.049639
C158  C     C_1   0.276718 0.250007 0.249995 0.057681
C159  C     C_1   0.276714 0.750006 0.250009 0.048914
C160  C     C_1   0.276718 0.750002 0.749992 0.055655
C161  C     C_1   0.776715 0.250006 0.250008 0.047482
C162  C     C_1   0.776718 0.250005 0.749993 0.057582
C163  C     C_1   0.776715 0.750004 0.750010 0.050901
C164  C     C_1   0.776718 0.750005 0.249993 0.056765
C165  C     C_1   0.223291 0.249995 0.749991 0.041223
C166  C     C_R   0.999657 0.391398 0.249947 0.639595
C167  C     C_1   0.223286 0.249996 0.250008 0.057715
C168  C     C_1   0.223291 0.749992 0.249994 0.040355
C169  C     C_1   0.223286 0.749990 0.750005 0.056618
C170  C     C_1   0.723291 0.249993 0.249992 0.037492
C171  C     C_1   0.723286 0.249995 0.750007 0.057985
C172  C     C_1   0.723291 0.749991 0.749995 0.043308
C173  C     C_1   0.723286 0.749994 0.250007 0.056957
C174  C     C_3   0.434938 0.029219 0.762564 0.341509
C175  C     C_3   0.437731 0.030548 0.273230 0.383666
C176  C     C_3   0.434376 0.970785 0.263673 0.351371
Cl1   Cl    Cl    0.375424 0.060015 0.720974 -0.362233
Cl2   Cl    Cl    0.918398 0.048800 0.845978 -0.386053
Cl3   Cl    Cl    0.889393 0.941678 0.818750 -0.319619
Cl4   Cl    Cl    0.903670 0.951275 0.169383 -0.388557
Cl5   Cl    Cl    0.966042 0.550015 0.627602 -0.409386
Cl6   Cl    Cl    0.921663 0.548865 0.348753 -0.372132
Cl7   Cl    Cl    0.891791 0.441765 0.322828 -0.317491
Cl8   Cl    Cl    0.934400 0.441219 0.636479 -0.337510
Cl9   Cl    Cl    0.410261 0.046258 0.836648 -0.329502
Cl10  Cl    Cl    0.374672 0.062758 0.238923 -0.298507
Cl11  Cl    Cl    0.384525 0.953041 0.203785 -0.326060
Cl12  Cl    Cl    0.423341 0.048902 0.350107 -0.381866
Cl13  Cl    Cl    0.390615 0.935977 0.807690 -0.308766
Cl14  Cl    Cl    0.383099 0.547318 0.292225 -0.333166
Cl15  Cl    Cl    0.376100 0.563230 0.731285 -0.313248
Cl16  Cl    Cl    0.387593 0.453485 0.696397 -0.324188
Cl17  Cl    Cl    0.374116 0.437625 0.257057 -0.303631
Cl18  Cl    Cl    0.898049 0.045713 0.321423 -0.334847
Cl19  Cl    Cl    0.875860 0.063158 0.732475 -0.296592
Cl20  Cl    Cl    0.887105 0.953420 0.697531 -0.321015
Cl21  Cl    Cl    0.882269 0.935894 0.288210 -0.319306
Cl22  Cl    Cl    0.877069 0.559662 0.710858 -0.277184
Cl23  Cl    Cl    0.393078 0.941805 0.324851 -0.320443
Cl24  Cl    Cl    0.875012 0.562897 0.236759 -0.310915
Cl25  Cl    Cl    0.885324 0.453169 0.201671 -0.338902
Cl26  Cl    Cl    0.875707 0.450473 0.743501 -0.290323
Cl27  Cl    Cl    0.621964 0.050027 0.785151 -0.287448
Cl28  Cl    Cl    0.576767 0.058245 0.144514 -0.310372
Cl29  Cl    Cl    0.601205 0.951349 0.174651 -0.274414
Cl30  Cl    Cl    0.612804 0.941351 0.816786 -0.319893
Cl31  Cl    Cl    0.598726 0.548463 0.328481 -0.271664
Cl32  Cl    Cl    0.583747 0.558141 0.649653 -0.308083
Cl33  Cl    Cl    0.605586 0.451104 0.680719 -0.273939
Cl34  Cl    Cl    0.390580 0.951294 0.687746 -0.437519
Cl35  Cl    Cl    0.572999 0.441619 0.357944 -0.308005
Cl36  Cl    Cl    0.115451 0.049582 0.302235 -0.278275
Cl37  Cl    Cl    0.082687 0.058154 0.648823 -0.311322
Cl38  Cl    Cl    0.104941 0.951148 0.679778 -0.276049
Cl39  Cl    Cl    0.100649 0.941774 0.333962 -0.314603
Cl40  Cl    Cl    0.027536 0.560231 0.874783 -0.352403
Cl41  Cl    Cl    0.078738 0.558214 0.145869 -0.312275
Cl42  Cl    Cl    0.102465 0.451286 0.176306 -0.276175
Cl43  Cl    Cl    0.060851 0.451495 0.860232 -0.438981
Cl44  Cl    Cl    0.537808 0.059801 0.873141 -0.274599
Cl45  Cl    Cl    0.395602 0.558219 0.171428 -0.320503
Cl46  Cl    Cl    0.455748 0.046966 0.133752 -0.309998
Cl47  Cl    Cl    0.490843 0.937219 0.124395 -0.304686
Cl48  Cl    Cl    0.505113 0.950580 0.874193 -0.274606
Cl49  Cl    Cl    0.486831 0.563062 0.374983 -0.306076
Cl50  Cl    Cl    0.463502 0.547478 0.631268 -0.301172
Cl51  Cl    Cl    0.498451 0.437752 0.623563 -0.297631
Cl52  Cl    Cl    0.451769 0.453333 0.364750 -0.310933
Cl53  Cl    Cl    0.018763 0.060739 0.376192 -0.285383
Cl54  Cl    Cl    0.962294 0.047396 0.631629 -0.303305
Cl55  Cl    Cl    0.997284 0.937669 0.623667 -0.299726
Cl56  Cl    Cl    0.417491 0.548788 0.845180 -0.390593
Cl57  Cl    Cl    0.984890 0.951183 0.372638 -0.291410
Cl58  Cl    Cl    0.912190 0.546252 0.838835 -0.328778
Cl59  Cl    Cl    0.957884 0.547106 0.132984 -0.309770
Cl60  Cl    Cl    0.992960 0.437361 0.124095 -0.302796
Cl61  Cl    Cl    0.940898 0.435954 0.858765 -0.307263
Cl62  Cl    Cl    0.388746 0.441652 0.817610 -0.333948
Cl63  Cl    Cl    0.426513 0.451071 0.147478 -0.385170
Cl64  Cl    Cl    0.880219 0.058949 0.201852 -0.342709
H1    H     H_    0.440890 0.019513 0.623664 0.215269
H2    H     H_    0.069194 0.036130 0.898655 0.115967
H3    H     H_    0.988847 0.981969 0.893277 0.191782
H4    H     H_    0.038726 0.966289 0.090753 0.121978
H5    H     H_    0.125174 0.539190 0.644783 0.157685
H6    H     H_    0.074715 0.536666 0.395929 0.125474
H7    H     H_    0.994312 0.482252 0.393969 0.199685
H8    H     H_    0.053804 0.480844 0.615474 0.176664
H9    H     H_    0.601492 0.042014 0.620267 0.190001
H10   H     H_    0.622019 0.089928 0.266707 0.169979
H11   H     H_    0.640021 0.960273 0.338608 0.152918
H12   H     H_    0.577389 0.036940 0.394548 0.128440
H13   H     H_    0.606838 0.909839 0.688022 0.125233
H14   H     H_    0.642795 0.539114 0.165625 0.148826
H15   H     H_    0.620639 0.589706 0.773636 0.167259
H16   H     H_    0.634528 0.459453 0.846289 0.148598
H17   H     H_    0.622677 0.409821 0.236758 0.171040
H18   H     H_    0.118713 0.042212 0.135055 0.149769
H19   H     H_    0.120876 0.089739 0.772532 0.167443
H20   H     H_    0.135413 0.959572 0.845126 0.149172
H21   H     H_    0.115772 0.910668 0.206774 0.161793
H22   H     H_    0.124591 0.521177 0.811149 0.206458
H23   H     H_    0.497056 0.982385 0.394269 0.198405
H24   H     H_    0.121647 0.589864 0.268595 0.169182
H25   H     H_    0.138512 0.460036 0.340780 0.151901
H26   H     H_    0.121702 0.413030 0.769779 0.201138
H27   H     H_    0.482295 0.912574 0.628453 0.205616
H28   H     H_    0.502096 0.517421 0.105446 0.191277
H29   H     H_    0.567603 0.535973 0.899368 0.118116
H30   H     H_    0.487301 0.481878 0.893012 0.195588
H31   H     H_    0.582216 0.462509 0.108163 0.116925
H32   H     H_    0.961833 0.020090 0.114047 0.200332
O1    O     O_3   0.500000 0.250000 0.750000 -0.520923
O2    O     O_R   0.465380 0.366870 0.215380 -0.425549
O3    O     O_R   0.034610 0.633130 0.215390 -0.510733
O4    O     O_R   0.034610 0.866870 0.715390 -0.448113
O5    O     O_R   0.034610 0.866870 0.284610 -0.496999
O6    O     O_R   0.034610 0.133130 0.284610 -0.451282
O7    O     O_R   0.034610 0.133130 0.715390 -0.509465
O8    O     O_2   0.476234 0.086594 0.610193 -0.417054
O9    O     O_2   0.543995 0.101717 0.365012 -0.458575
O10   O     O_2   0.518104 0.910623 0.382883 -0.427212
O11   O     O_2   0.532835 0.958038 0.580999 -0.475635
O12   O     O_2   0.521904 0.589308 0.118001 -0.434873
O13   O     O_R   0.465380 0.633130 0.215380 -0.455213
O14   O     O_2   0.538861 0.601570 0.867771 -0.460255
O15   O     O_2   0.511244 0.410550 0.884417 -0.429457
O16   O     O_2   0.546768 0.398143 0.136528 -0.460739
O17   O     O_2   0.994411 0.089092 0.111758 -0.426265
O18   O     O_2   0.039648 0.101589 0.867363 -0.461384
O19   O     O_2   0.012290 0.910556 0.884190 -0.432892
O20   O     O_2   0.025823 0.898614 0.125700 -0.461347
O21   O     O_2   0.078347 0.601982 0.658086 -0.446481
O22   O     O_2   0.042552 0.601672 0.365784 -0.457212
O23   O     O_2   0.016154 0.410596 0.383305 -0.424398
O24   O     O_R   0.465380 0.633130 0.784620 -0.424516
O25   O     O_2   0.071010 0.409636 0.636507 -0.450894
O26   O     O_2   0.594378 0.101077 0.674663 -0.450684
O27   O     O_2   0.655666 0.021280 0.256592 -0.383091
O28   O     O_2   0.617186 0.900811 0.289461 -0.419809
O29   O     O_2   0.643038 0.978285 0.687543 -0.382144
O30   O     O_2   0.618776 0.598745 0.213932 -0.418172
O31   O     O_2   0.655222 0.521079 0.766434 -0.385364
O32   O     O_2   0.614041 0.400234 0.795681 -0.424754
O33   O     O_2   0.655601 0.478447 0.248703 -0.382256
O34   O     O_2   0.104969 0.100927 0.188763 -0.432594
O35   O     O_R   0.465380 0.866870 0.284620 -0.455770
O36   O     O_2   0.155348 0.021111 0.764941 -0.384725
O37   O     O_2   0.114545 0.900316 0.794740 -0.423353
O38   O     O_2   0.151237 0.979276 0.208472 -0.389879
O39   O     O_2   0.141139 0.586501 0.772503 -0.391966
O40   O     O_2   0.155604 0.521222 0.259339 -0.383359
O41   O     O_2   0.116326 0.400647 0.291202 -0.420631
O42   O     O_2   0.169478 0.458579 0.719634 -0.424755
O43   O     O_R   0.465380 0.866870 0.715380 -0.514667
O44   O     O_R   0.465380 0.133130 0.715380 -0.460231
O45   O     O_R   0.465380 0.133130 0.284620 -0.425559
O46   O     O_R   0.965380 0.366870 0.284620 -0.455268
O47   O     O_R   0.965380 0.366870 0.715380 -0.444869
O48   O     O_R   0.965380 0.633130 0.715380 -0.447170
O49   O     O_3   0.500000 0.250000 0.250000 -0.511166
O50   O     O_R   0.965380 0.633130 0.284620 -0.425371
O51   O     O_R   0.965380 0.866870 0.784620 -0.454603
O52   O     O_R   0.965380 0.866870 0.215380 -0.427119
O53   O     O_R   0.965380 0.133130 0.215380 -0.454608
O54   O     O_R   0.965380 0.133130 0.784620 -0.425691
O55   O     O_R   0.534610 0.280640 0.617980 -0.509665
O56   O     O_R   0.534610 0.280640 0.382020 -0.505780
O57   O     O_R   0.534610 0.719360 0.382020 -0.509407
O58   O     O_R   0.534610 0.719360 0.617980 -0.500673
O59   O     O_R   0.534610 0.780640 0.117980 -0.510476
O60   O     O_3   0.500000 0.750000 0.250000 -0.522301
O61   O     O_R   0.534610 0.780640 0.882020 -0.503248
O62   O     O_R   0.534610 0.219360 0.882020 -0.511438
O63   O     O_R   0.534610 0.219360 0.117980 -0.505793
O64   O     O_R   0.034610 0.280640 0.117980 -0.510556
O65   O     O_R   0.034610 0.280640 0.882020 -0.505922
O66   O     O_R   0.034610 0.719360 0.882020 -0.510909
O67   O     O_R   0.034610 0.719360 0.117980 -0.506851
O68   O     O_R   0.034610 0.780640 0.617980 -0.509564
O69   O     O_R   0.034610 0.780640 0.382020 -0.505441
O70   O     O_R   0.034610 0.219360 0.382020 -0.511271
O71   O     O_3   0.500000 0.750000 0.750000 -0.505722
O72   O     O_R   0.034610 0.219360 0.617980 -0.504104
O73   O     O_R   0.632030 0.280640 0.715400 -0.499989
O74   O     O_R   0.632030 0.280640 0.284600 -0.524661
O75   O     O_R   0.632030 0.719360 0.284600 -0.500628
O76   O     O_R   0.632030 0.719360 0.715400 -0.526594
O77   O     O_R   0.632030 0.780640 0.215400 -0.501210
O78   O     O_R   0.632030 0.780640 0.784600 -0.516208
O79   O     O_R   0.632030 0.219360 0.784600 -0.504019
O80   O     O_R   0.632030 0.219360 0.215400 -0.524100
O81   O     O_R   0.132030 0.280640 0.215400 -0.500734
O82   O     O_3   1.000000 0.250000 0.250000 -0.521831
O83   O     O_R   0.132030 0.280640 0.784600 -0.530100
O84   O     O_R   0.132030 0.719360 0.784600 -0.501666
O85   O     O_R   0.132030 0.719360 0.215400 -0.526174
O86   O     O_R   0.132030 0.780640 0.715400 -0.500059
O87   O     O_R   0.132030 0.780640 0.284600 -0.518634
O88   O     O_R   0.132030 0.219360 0.284600 -0.502071
O89   O     O_R   0.132030 0.219360 0.715400 -0.521354
O90   O     O_R   0.367970 0.280650 0.784620 -0.513113
O91   O     O_R   0.367970 0.280650 0.215380 -0.509116
O92   O     O_R   0.367970 0.719350 0.215380 -0.512512
O93   O     O_3   1.000000 0.250000 0.750000 -0.510106
O94   O     O_R   0.367970 0.719350 0.784620 -0.506329
O95   O     O_R   0.367970 0.780650 0.284620 -0.511340
O96   O     O_R   0.367970 0.780650 0.715380 -0.499863
O97   O     O_R   0.367970 0.219350 0.715380 -0.510474
O98   O     O_R   0.367970 0.219350 0.284620 -0.508087
O99   O     O_R   0.867970 0.280650 0.284620 -0.512219
O100  O     O_R   0.867970 0.280650 0.715380 -0.508489
O101  O     O_R   0.867970 0.719350 0.715380 -0.512994
O102  O     O_R   0.867970 0.719350 0.284620 -0.507651
O103  O     O_R   0.867970 0.780650 0.784620 -0.511302
O104  O     O_3   1.000000 0.750000 0.750000 -0.521141
O105  O     O_R   0.867970 0.780650 0.215380 -0.507376
O106  O     O_R   0.867970 0.219350 0.215380 -0.511980
O107  O     O_R   0.867970 0.219350 0.784620 -0.507316
O108  O     O_R   0.465380 0.219370 0.617980 -0.502257
O109  O     O_R   0.465380 0.219370 0.382020 -0.499460
O110  O     O_R   0.465380 0.780630 0.382020 -0.504831
O111  O     O_R   0.465380 0.780630 0.617980 -0.536419
O112  O     O_R   0.465380 0.719370 0.117980 -0.503817
O113  O     O_R   0.465380 0.719370 0.882020 -0.499208
O114  O     O_R   0.465380 0.280630 0.882020 -0.503220
O115  O     O_3   1.000000 0.750000 0.250000 -0.512886
O116  O     O_R   0.465380 0.280630 0.117980 -0.500182
O117  O     O_R   0.965380 0.219370 0.117980 -0.502101
O118  O     O_R   0.965380 0.219370 0.882020 -0.499609
O119  O     O_R   0.965380 0.780630 0.882020 -0.503225
O120  O     O_R   0.965380 0.780630 0.117980 -0.499516
O121  O     O_R   0.965380 0.719370 0.617980 -0.504360
O122  O     O_R   0.965380 0.719370 0.382020 -0.498552
O123  O     O_R   0.965380 0.280630 0.382020 -0.502193
O124  O     O_R   0.965380 0.280630 0.617980 -0.505419
O125  O     O_R   0.534610 0.366870 0.715390 -0.448203
O126  O     O_R   0.465380 0.366870 0.784620 -0.454045
O127  O     O_R   0.534610 0.366870 0.284610 -0.514005
O128  O     O_R   0.534610 0.633130 0.284610 -0.446489
O129  O     O_R   0.534610 0.633130 0.715390 -0.506431
O130  O     O_R   0.534610 0.866870 0.215390 -0.446547
O131  O     O_R   0.534610 0.866870 0.784610 -0.470474
O132  O     O_R   0.534610 0.133130 0.784610 -0.452382
O133  O     O_R   0.534610 0.133130 0.215390 -0.512213
O134  O     O_R   0.034610 0.366870 0.215390 -0.447126
O135  O     O_R   0.034610 0.366870 0.784610 -0.517369
O136  O     O_R   0.034610 0.633130 0.784610 -0.463276
Zn1   Zn    Zn3+2 0.450550 0.206230 0.700550 1.075361
Zn2   Zn    Zn3+2 0.950550 0.206230 0.799450 1.086493
Zn3   Zn    Zn3+2 0.950550 0.793770 0.799450 1.076523
Zn4   Zn    Zn3+2 0.950550 0.793770 0.200550 1.080893
Zn5   Zn    Zn3+2 0.950550 0.706230 0.700550 1.082034
Zn6   Zn    Zn3+2 0.950550 0.706230 0.299450 1.087443
Zn7   Zn    Zn3+2 0.950550 0.293770 0.299450 1.077079
Zn8   Zn    Zn3+2 0.950550 0.293770 0.700550 1.083354
Zn9   Zn    Zn3+2 0.549450 0.293780 0.700550 1.091773
Zn10  Zn    Zn3+2 0.549450 0.293780 0.299450 1.041376
Zn11  Zn    Zn3+2 0.549450 0.706220 0.299450 1.089357
Zn12  Zn    Zn3+2 0.450550 0.206230 0.299450 1.086153
Zn13  Zn    Zn3+2 0.549450 0.706220 0.700550 1.034988
Zn14  Zn    Zn3+2 0.549450 0.793780 0.200550 1.088383
Zn15  Zn    Zn3+2 0.549450 0.793780 0.799450 1.048970
Zn16  Zn    Zn3+2 0.549450 0.206220 0.799450 1.087948
Zn17  Zn    Zn3+2 0.549450 0.206220 0.200550 1.042001
Zn18  Zn    Zn3+2 0.049450 0.293780 0.200550 1.089624
Zn19  Zn    Zn3+2 0.049450 0.293780 0.799450 1.036870
Zn20  Zn    Zn3+2 0.049450 0.706220 0.799450 1.082327
Zn21  Zn    Zn3+2 0.049450 0.706220 0.200550 1.038128
Zn22  Zn    Zn3+2 0.049450 0.793780 0.700550 1.091964
Zn23  Zn    Zn3+2 0.450550 0.793770 0.299450 1.075850
Zn24  Zn    Zn3+2 0.049450 0.793780 0.299450 1.048670
Zn25  Zn    Zn3+2 0.049450 0.206220 0.299450 1.088884
Zn26  Zn    Zn3+2 0.049450 0.206220 0.700550 1.046319
Zn27  Zn    Zn3+2 0.450550 0.793770 0.700550 1.025054
Zn28  Zn    Zn3+2 0.450550 0.706230 0.200550 1.075752
Zn29  Zn    Zn3+2 0.450550 0.706230 0.799450 1.090313
Zn30  Zn    Zn3+2 0.450550 0.293770 0.799450 1.075775
Zn31  Zn    Zn3+2 0.450550 0.293770 0.200550 1.085443
Zn32  Zn    Zn3+2 0.950550 0.206230 0.200550 1.075227

loop_
_geom_bond_atom_site_label_1
_geom_bond_atom_site_label_2
_ccdc_geom_bond_type
C54   O10   D    
C63   O19   D    
C40   Cl32  S    
C46   O52   A    
C126  O59   A    
O45   Zn12  S    
O50   Zn6   S    
O89   Zn26  S    
C156  O102  A    
C6    Cl62  S    
C47   C98   S    
C11   C98   S    
C31   C101  S    
C3    Cl13  S    
O49   Zn31  S    
C5    C6    S    
O120  Zn4   S    
C130  O117  A    
O83   Zn19  S    
C106  C107  T    
C48   Cl40  S    
C119  C130  S    
O119  Zn3   S    
C108  C109  T    
O92   Zn28  S    
C152  O99   A    
C124  O110  A    
C150  O95   A    
C2    O135  A    
C7    C94   S    
C117  C132  S    
O90   Zn30  S    
O7    Zn26  S    
C175  Cl12  S    
O76   Zn13  S    
C162  C171  T    
C12   C16   S    
C166  O46   A    
O13   Zn28  S    
C128  O114  A    
O49   Zn10  S    
C139  C171  S    
C25   C60   S    
C91   C100  S    
O127  Zn10  S    
C154  O101  A    
C33   C69   S    
C3    Cl34  S    
O106  Zn32  S    
C46   C98   S    
C29   C64   S    
C42   C94   S    
C55   O11   D    
C151  O96   A    
C138  O72   A    
O47   Zn8   S    
C108  C124  S    
O68   Zn22  S    
C17   C52   S    
C140  O74   A    
C104  C105  T    
C14   Cl6   S    
C158  C167  T    
C148  O97   A    
C1    O125  A    
C150  C159  S    
C88   C122  S    
C59   O15   D    
O70   Zn25  S    
C60   O16   D    
C49   Cl41  S    
C131  O65   A    
O3    Zn21  S    
C12   Cl5   S    
C104  C128  S    
O5    Zn24  S    
C82   H21   S    
C9    Cl19  S    
C164  C173  T    
C62   O18   D    
O82   Zn25  S    
O35   Zn23  S    
C163  C172  T    
C137  O123  A    
C174  Cl1   S    
C5    Cl15  S    
C74   H14   S    
C143  O81   A    
O96   Zn27  S    
C64   H4    S    
C111  O129  A    
O114  Zn30  S    
O104  Zn5   S    
O132  Zn16  S    
C113  C137  S    
C123  O109  A    
C86   H26   S    
C176  Cl23  S    
C75   O31   D    
C76   O32   D    
C66   H6    S    
C18   C71   S    
O113  Zn29  S    
C166  O134  A    
O97   Zn1   S    
O60   Zn28  S    
C22   C58   S    
C16   Cl8   S    
C92   C111  S    
C42   Cl52  S    
C38   C90   S    
C129  O116  A    
O43   Zn27  S    
C107  C127  S    
C29   C82   S    
C52   H1    S    
C175  Cl10  S    
C85   O41   D    
C21   C74   S    
O49   Zn12  S    
C20   C73   S    
O59   Zn14  S    
C40   Cl50  S    
C129  O63   A    
C71   O27   D    
O71   Zn27  S    
C28   C63   S    
O82   Zn7   S    
C1    C93   S    
O49   Zn17  S    
C151  O94   A    
C12   Cl22  S    
C22   C23   S    
C84   H24   S    
C134  O67   A    
C43   C47   S    
C47   Cl57  S    
C28   C97   S    
O125  Zn9   S    
O64   Zn18  S    
C23   C76   S    
O69   Zn24  S    
C11   Cl21  S    
C155  O133  A    
C23   C59   S    
C26   C78   S    
C128  O62   A    
C3    C90   S    
O95   Zn23  S    
C54   H23   S    
C2    C103  S    
O51   Zn3   S    
C36   C37   S    
C116  C136  S    
C75   H15   S    
C110  C121  S    
C66   O22   D    
C115  C116  T    
C123  O56   A    
C89   C94   S    
C46   O5    A    
C24   C101  S    
C82   O38   D    
C12   C99   S    
C67   H7    S    
O71   Zn15  S    
C13   O136  A    
O48   Zn5   S    
C9    C10   S    
C61   H32   S    
C152  C161  S    
C118  C134  S    
C4    C91   S    
C57   O6    A    
C102  C166  S    
C77   H17   S    
C13   O48   A    
C4    C7    S    
C15   Cl25  S    
C8    Cl64  S    
O4    Zn22  S    
O101  Zn5   S    
C4    Cl14  S    
C37   Cl47  S    
C68   O54   A    
C27   C80   S    
C146  O86   A    
C157  C165  T    
O104  Zn20  S    
C51   Cl43  S    
O115  Zn21  S    
C8    C95   S    
C31   C84   S    
C23   C93   S    
C15   Cl7   S    
C13   C99   S    
C10   C97   S    
C44   C96   S    
C27   C62   S    
C10   Cl20  S    
C34   C79   S    
C3    C174  S    
C31   C32   S    
C144  O132  A    
C127  O61   A    
C80   H19   S    
C50   Cl60  S    
C143  C167  S    
O1    Zn9   S    
C32   C67   S    
O91   Zn31  S    
C19   C54   S    
O126  Zn30  S    
C73   O29   D    
C67   O23   D    
O24   Zn29  S    
C58   O14   D    
C153  O100  A    
C109  C125  S    
C21   C25   S    
C121  O108  A    
O103  Zn3   S    
O55   Zn9   S    
O54   Zn2   S    
C37   Cl29  S    
C141  O77   A    
O52   Zn4   S    
O78   Zn15  S    
C53   O9    D    
O86   Zn22  S    
C87   C175  S    
C88   C176  S    
C64   O20   D    
C41   C93   S    
O57   Zn11  S    
C117  C118  T    
C153  O107  A    
O71   Zn13  S    
C115  C135  S    
C32   C102  S    
C148  C157  S    
C114  C138  S    
C72   H11   S    
O130  Zn14  S    
C76   H16   S    
C110  C112  T    
C40   C92   S    
C30   C65   S    
O53   Zn32  S    
O123  Zn7   S    
C136  O122  A    
C49   C50   S    
C100  O128  A    
C146  C169  S    
C22   C92   S    
C14   C15   S    
C134  O120  A    
O93   Zn8   S    
O58   Zn13  S    
C8    Cl18  S    
O107  Zn2   S    
O105  Zn4   S    
C120  C131  S    
C37   C88   S    
O1    Zn1   S    
O79   Zn16  S    
C25   C77   S    
C127  O113  A    
C145  C165  S    
C68   C96   S    
C138  O124  A    
C29   C98   S    
O74   Zn10  S    
C26   C61   S    
C174  Cl9   S    
C49   C101  S    
O136  Zn20  S    
C34   Cl44  S    
C51   C103  S    
C17   C20   S    
O135  Zn19  S    
C18   C19   S    
C38   Cl48  S    
C30   C83   S    
O44   Zn1   S    
C140  O80   A    
C18   C53   S    
O1    Zn30  S    
C77   O33   D    
C47   Cl39  S    
C43   C95   S    
C160  C169  T    
O60   Zn14  S    
O112  Zn28  S    
C100  O13   A    
C81   O37   D    
C83   O39   D    
C25   C94   S    
C69   O25   D    
O108  Zn1   S    
C79   C174  S    
C27   C96   S    
O6    Zn25  S    
C80   O36   D    
C39   C42   S    
C44   Cl37  S    
C112  C123  S    
C19   C88   S    
C125  O111  A    
C90   C133  S    
C14   C101  S    
O129  Zn13  S    
C155  O45   A    
C57   O53   A    
C147  O87   A    
O104  Zn3   S    
O81   Zn18  S    
C59   H30   S    
C53   H12   S    
O115  Zn6   S    
O117  Zn32  S    
O98   Zn12  S    
O88   Zn25  S    
C124  O57   A    
C6    C93   S    
C45   Cl38  S    
C78   H18   S    
C5    Cl56  S    
C43   Cl36  S    
C9    C96   S    
O131  Zn15  S    
C73   H13   S    
C50   C102  S    
C35   O4    A    
C89   O2    A    
C150  O92   A    
C125  O58   A    
O102  Zn6   S    
C10   Cl3   S    
C44   C45   S    
C176  Cl11  S    
C113  C114  T    
C21   C91   S    
C48   C99   S    
C65   H5    S    
C156  O105  A    
C81   H20   S    
C140  C170  S    
C1    O126  A    
C33   C103  S    
C139  O79   A    
O60   Zn23  S    
O71   Zn29  S    
C21   C56   S    
C119  C120  T    
C43   Cl53  S    
O72   Zn26  S    
C133  O131  A    
C139  O73   A    
C106  C126  S    
O121  Zn5   S    
C153  C162  S    
C56   O12   D    
C86   O42   D    
C152  O106  A    
C145  O83   A    
C149  O91   A    
C14   Cl24  S    
O2    Zn31  S    
C32   C85   S    
O87   Zn24  S    
C74   O30   D    
O82   Zn32  S    
C39   Cl49  S    
C147  C168  S    
O82   Zn18  S    
C6    Cl16  S    
O56   Zn10  S    
C11   Cl4   S    
C132  O119  A    
C89   O127  A    
C48   Cl58  S    
C9    Cl2   S    
C4    Cl45  S    
C149  O98   A    
C31   C66   S    
C41   Cl51  S    
O84   Zn20  S    
O85   Zn21  S    
C35   O51   A    
C68   O7    A    
O134  Zn18  S    
C159  C168  T    
C147  O85   A    
C58   H29   S    
O133  Zn17  S    
O115  Zn4   S    
O100  Zn8   S    
O116  Zn31  S    
C130  O64   A    
O115  Zn24  S    
C17   C79   S    
C132  O66   A    
C2    O47   A    
C135  O121  A    
C44   Cl54  S    
C126  O112  A    
C16   C103  S    
O93   Zn26  S    
C142  O78   A    
C48   C51   S    
C175  C176  S    
O94   Zn29  S    
C39   Cl31  S    
C7    Cl17  S    
C71   H10   S    
C52   O8    D    
C41   Cl33  S    
O65   Zn19  S    
C17   C70   S    
C60   H31   S    
C141  C173  S    
O75   Zn11  S    
C19   C72   S    
C22   C75   S    
C20   C55   S    
C56   H28   S    
C72   O28   D    
O73   Zn9   S    
C62   H2    S    
C122  O130  A    
C36   C87   S    
O66   Zn20  S    
C85   H25   S    
C154  C163  S    
C55   H27   S    
C136  O69   A    
C121  O55   A    
C105  C129  S    
C78   O34   D    
C20   C90   S    
C30   C99   S    
C50   Cl42  S    
O99   Zn7   S    
C16   Cl26  S    
C33   C86   S    
O46   Zn7   S    
O93   Zn2   S    
C143  O88   A    
O122  Zn6   S    
C69   H8    S    
C79   C144  S    
C70   H9    S    
C34   Cl27  S    
C131  O118  A    
C63   H3    S    
C135  O68   A    
C70   O26   D    
C51   Cl61  S    
C141  O75   A    
C146  O84   A    
C161  C170  T    
O104  Zn22  S    
C40   C41   S    
C7    Cl63  S    
O77   Zn14  S    
C148  O90   A    
O128  Zn11  S    
C122  O35   A    
C87   C155  S    
O109  Zn12  S    
C144  O44   A    
C36   Cl46  S    
C84   O40   D    
C154  O103  A    
C142  C172  S    
C149  C158  S    
C26   C95   S    
C111  O24   A    
C38   Cl30  S    
C30   C33   S    
C28   C81   S    
C34   C38   S    
C39   C91   S    
O60   Zn11  S    
O1    Zn16  S    
C145  O89   A    
C137  O70   A    
O61   Zn15  S    
C45   Cl55  S    
O62   Zn16  S    
C18   C87   S    
C24   O50   A    
O80   Zn17  S    
O111  Zn27  S    
C151  C160  S    
O63   Zn17  S    
O67   Zn21  S    
C49   Cl59  S    
C45   C97   S    
O124  Zn8   S    
C142  O76   A    
O118  Zn2   S    
C8    C11   S    
C61   O17   D    
C15   C102  S    
C5    C92   S    
C42   Cl35  S    
C65   O21   D    
C156  C164  S    
C26   C29   S    
C57   C95   S    
C27   C28   S    
C133  O43   A    
C83   H22   S    
C36   Cl28  S    
C35   C97   S    
O110  Zn23  S    
O93   Zn19  S    
C24   O3    A    
