data_mof_unit_35126.cif
_audit_creation_date              2013-03-05T15:42:28-0500
_audit_creation_method            fapswitch 2.2
_symmetry_space_group_name_H-M    P1
_symmetry_Int_Tables_number       1
_space_group_crystal_system       triclinic
_cell_length_a                    7.752075
_cell_length_b                    8.662661
_cell_length_c                    23.401893
_cell_angle_alpha                 91.101724
_cell_angle_beta                  85.689379
_cell_angle_gamma                 93.88708
_cell_volume                      1563.3131552

loop_
_atom_site_label
_atom_site_type_symbol
_atom_site_description
_atom_site_fract_x
_atom_site_fract_y
_atom_site_fract_z
_atom_type_partial_charge
O1    O     O_R   0.389250 0.738570 0.503790 -0.594440
O2    O     O_R   0.610750 0.261430 0.496210 -0.585985
O3    O     O_R   0.678390 0.711620 0.493890 -0.582086
O4    O     O_R   0.321610 0.288380 0.506110 -0.587732
C1    C     C_R   0.545389 0.793691 0.496120 0.897772
C2    C     C_R   0.454794 0.205608 0.500264 0.891833
O5    O     O_R   0.355400 0.513520 0.588790 -0.605881
O6    O     O_R   0.644600 0.486480 0.411210 -0.581310
O7    O     O_R   0.644550 0.486570 0.578900 -0.598947
O8    O     O_R   0.355450 0.513430 0.421100 -0.623939
C3    C     C_R   0.502042 0.500599 0.610641 0.935449
C4    C     C_R   0.498761 0.503434 0.389386 0.927124
Zn1   Zn    Zn3+2 0.306930 0.518000 0.506610 1.083812
Zn2   Zn    Zn3+2 0.693070 0.482000 0.493390 1.110728
C5    C     C_R   0.407716 0.395187 0.118408 0.630455
C6    C     C_R   0.545608 0.675666 0.881734 0.641723
N1    N     N_R   0.460276 0.524621 0.148324 -0.344165
N2    N     N_R   0.485478 0.548618 0.852267 -0.351997
C7    C     C_R   0.502690 0.662965 0.121908 0.635776
C8    C     C_R   0.408544 0.420272 0.879009 0.616818
C9    C     C_R   0.519997 0.669804 0.061830 -0.128571
C10   C     C_R   0.404448 0.409236 0.938937 -0.130876
C11   C     C_R   0.461524 0.537530 0.030433 -0.035057
C12   C     C_R   0.466381 0.540754 0.970256 -0.037567
C13   C     C_R   0.399813 0.401149 0.059167 -0.049992
C14   C     C_R   0.534758 0.675390 0.941472 -0.062709
C15   C     C_R   0.592926 0.802855 0.032182 0.300367
C16   C     C_R   0.340289 0.273414 0.968695 0.324394
C17   C     C_R   0.597134 0.804426 0.972525 -0.127619
C18   C     C_R   0.337767 0.271804 0.028281 -0.115221
O9    O     O_2   0.365649 0.260725 0.145917 -0.478280
O10   O     O_2   0.617246 0.800706 0.853046 -0.454349
O11   O     O_2   0.525670 0.792589 0.154074 -0.438847
O12   O     O_2   0.335283 0.305811 0.847200 -0.430428
H1    H     H_    0.655991 0.905693 0.950376 0.244901
H2    H     H_    0.291228 0.166322 0.050257 0.229871
C19   C     C_R   0.633057 0.461777 0.762146 0.259077
C20   C     C_R   0.636162 0.553445 0.231892 0.272715
C21   C     C_R   0.633991 0.443871 0.702280 0.184560
C22   C     C_R   0.643795 0.557940 0.291687 0.201734
C23   C     C_R   0.506661 0.512494 0.672841 -0.196055
C24   C     C_R   0.494642 0.510917 0.327201 -0.216422
C25   C     C_R   0.382881 0.599671 0.703037 -0.167471
C26   C     C_R   0.338712 0.467471 0.303015 -0.151153
H3    H     H_    0.285784 0.654760 0.681094 0.206462
H4    H     H_    0.224433 0.428787 0.329693 0.224473
C27   C     C_R   0.382532 0.617366 0.761816 -0.066011
C28   C     C_R   0.328380 0.472663 0.244363 -0.032611
H5    H     H_    0.283444 0.681463 0.784873 0.201202
H6    H     H_    0.205382 0.443304 0.226433 0.225577
C29   C     C_R   0.505082 0.547752 0.791356 0.125262
C30   C     C_R   0.475731 0.514764 0.208625 0.101327
C31   C     C_2   0.571321 0.955633 0.494784 0.009948
C32   C     C_2   0.432531 0.043614 0.492996 -0.019909
N3    N     N_2   0.950330 0.457950 0.484560 -0.122769
N4    N     N_2   0.049670 0.542050 0.515440 -0.125997
H7    H     H_    0.014138 0.383024 0.457068 0.225699
H8    H     H_    0.985874 0.617045 0.542907 0.226912
N5    N     N_R   0.678368 0.931091 0.060884 0.259531
O13   O     O_R   0.806778 0.907135 0.091648 -0.245085
O14   O     O_R   0.656381 0.071775 0.045810 -0.346597
N6    N     N_R   0.286309 0.132974 0.939686 0.245703
O15   O     O_R   0.398550 0.061929 0.906477 -0.298388
O16   O     O_R   0.140046 0.059027 0.956385 -0.318528
N7    N     N_R   0.754679 0.386192 0.793688 0.237702
O17   O     O_R   0.831491 0.459229 0.834820 -0.350961
O18   O     O_R   0.783419 0.241767 0.783157 -0.235157
N8    N     N_R   0.789471 0.589811 0.194805 0.232900
O19   O     O_R   0.827797 0.501154 0.150793 -0.353319
O20   O     O_R   0.888681 0.713788 0.203842 -0.248541
N9    N     N_R   0.760355 0.353170 0.672088 0.245731
O21   O     O_R   0.710517 0.229719 0.643653 -0.298099
O22   O     O_R   0.924995 0.386604 0.676648 -0.321725
N10   N     N_R   0.801577 0.611812 0.315965 0.252557
O23   O     O_R   0.805974 0.734934 0.348709 -0.298575
O24   O     O_R   0.942565 0.541228 0.303699 -0.376173
N11   N     N_R   0.744875 0.017156 0.502417 0.239839
O25   O     O_R   0.851791 0.046576 0.457823 -0.284937
O26   O     O_R   0.801967 0.020921 0.553288 -0.274636
N12   N     N_R   0.262230 0.981820 0.481072 0.230829
O27   O     O_R   0.140266 0.970640 0.522285 -0.279278
O28   O     O_R   0.231578 0.931169 0.429869 -0.306370

loop_
_geom_bond_atom_site_label_1
_geom_bond_atom_site_label_2
_geom_bond_distance
_ccdc_geom_bond_type
N3    N4    1.278031 D    
C15   C17   1.394323 A    
C27   H5    1.083279 S    
C31   C32   1.363586 D    
O5    C3    1.293489 A    
N10   O24   1.299033 A    
O1    C1    1.271838 A    
C1    C31   1.404236 S    
C7    C9    1.404255 A    
C12   C14   1.409863 A    
C19   C29   1.408832 A    
C5    C13   1.394382 A    
C20   C30   1.412000 A    
O4    Zn1   1.999820 S    
C4    C24   1.460775 S    
C22   N10   1.433014 S    
N8    O19   1.301322 A    
N7    O18   1.301273 A    
C19   N7    1.438543 S    
N6    O16   1.301231 A    
C11   C12   1.406694 A    
Zn1   N4    2.013967 S    
C8    O12   1.348571 S    
C22   C24   1.413595 A    
Zn2   N3    2.013965 S    
C9    C15   1.418765 A    
N5    O13   1.301451 A    
C10   C16   1.420140 A    
C23   C25   1.402210 A    
O2    C2    1.268753 A    
C24   C26   1.398616 A    
C2    C32   1.410805 S    
N1    C30   1.429861 S    
C26   H4    1.082373 S    
N2    C29   1.422049 S    
C32   N12   1.435662 S    
N11   O26   1.299963 A    
C9    C11   1.416180 A    
C6    C14   1.394219 A    
N5    O14   1.300939 A    
N10   O23   1.301325 A    
N12   O28   1.301240 A    
C7    O11   1.348982 S    
N9    O22   1.301298 A    
C27   C29   1.391579 A    
N11   O25   1.300980 A    
C31   N11   1.435727 S    
O7    Zn2   2.008298 S    
N6    O15   1.300908 A    
O7    C3    1.295502 A    
C28   C30   1.396018 A    
O6    C4    1.293351 A    
C25   H3    1.083614 S    
O3    Zn2   1.999820 S    
O8    C4    1.295823 A    
O4    C2    1.293890 A    
C20   N8    1.438623 S    
N3    H7    1.029315 S    
C10   C12   1.418550 A    
O1    Zn1   1.973741 S    
C13   C18   1.399037 A    
C5    N1    1.365314 A    
O6    Zn2   1.988650 S    
C8    C10   1.405346 A    
N12   O27   1.299064 A    
O3    C1    1.288831 A    
O8    Zn1   2.008298 S    
C5    O9    1.350300 S    
C6    O10   1.350094 S    
C17   H1    1.083540 S    
C18   H2    1.084008 S    
C16   C18   1.393403 A    
N9    O21   1.300378 A    
C19   C21   1.406095 A    
C15   N5    1.436072 S    
C20   C22   1.404688 A    
C28   H6    1.083074 S    
N1    C7    1.367841 A    
N4    H8    1.029321 S    
C3    C23   1.460228 S    
N2    C8    1.365357 A    
C11   C13   1.407956 A    
O2    Zn2   1.973742 S    
O5    Zn1   1.988650 S    
C21   C23   1.414150 A    
C14   C17   1.399883 A    
C6    N2    1.361482 A    
N7    O17   1.301177 A    
N8    O20   1.301287 A    
C21   N9    1.433566 S    
C25   C27   1.380935 A    
C26   C28   1.382674 A    
C16   N6    1.434560 S    
