data_mof_unit_27243.cif
_audit_creation_date              2012-12-11T15:30:33-0500
_audit_creation_method            fapswitch 2.2
_symmetry_space_group_name_H-M    P1
_symmetry_Int_Tables_number       1
_space_group_crystal_system       triclinic
_cell_length_a                    6.957554
_cell_length_b                    20.476699
_cell_length_c                    24.419602
_cell_angle_alpha                 89.708752
_cell_angle_beta                  90.428199
_cell_angle_gamma                 89.464828
_cell_volume                      3478.71037758

loop_
_atom_site_label
_atom_site_type_symbol
_atom_type_description
_atom_site_fract_x
_atom_site_fract_y
_atom_site_fract_z
_atom_type_partial_charge
O1    O     O_R   0.507310 0.423620 0.460450 -0.536107
O2    O     O_R   0.170760 0.556060 0.437190 -0.537158
O3    O     O_R   0.004040 0.576380 0.539550 -0.536337
C1    C     C_R   0.338814 0.576163 0.421251 0.724347
O4    O     O_R   0.177350 0.422870 0.454070 -0.537918
O5    O     O_R   0.010680 0.442240 0.556560 -0.535221
C2    C     C_R   0.346309 0.398991 0.443403 0.693576
O6    O     O_R   0.500670 0.557760 0.443440 -0.535306
O7    O     O_3   0.340380 0.506510 0.533610 -0.366705
V1    V     V_3+5 0.064130 0.498790 0.493770 1.419430
O8    O     O_R   0.681170 0.443940 0.562810 -0.538034
C3    C     C_R   0.850773 0.423932 0.578697 0.726606
O9    O     O_R   0.674570 0.577130 0.545930 -0.537621
C4    C     C_R   0.842655 0.601011 0.556622 0.694104
V2    V     V_3+5 0.564560 0.501210 0.506230 1.419904
O10   O     O_3   0.838170 0.493490 0.466390 -0.366895
C5    C     C_R   0.976880 0.837824 0.911698 -0.039923
C6    C     C_R   0.847411 0.661477 0.589129 -0.042011
C7    C     C_R   0.041937 0.722009 0.907634 -0.158639
C8    C     C_R   0.031956 0.779680 0.937268 -0.176535
C9    C     C_R   0.931936 0.838053 0.855550 -0.200460
C10   C     C_R   0.943808 0.779875 0.823661 0.048686
C11   C     C_R   0.000129 0.720934 0.850925 0.120364
C12   C     C_R   0.904067 0.778605 0.765799 0.054594
C13   C     C_R   0.921530 0.718667 0.735992 0.013797
C14   C     C_R   0.977095 0.661821 0.764962 -0.189741
C15   C     C_R   0.015620 0.662119 0.821202 0.148491
C16   C     C_R   0.847596 0.835465 0.736644 -0.174504
C17   C     C_R   0.809550 0.834168 0.680824 -0.207028
C18   C     C_R   0.825118 0.776361 0.651326 0.144706
C19   C     C_R   0.881886 0.717459 0.678010 0.098717
C20   C     C_R   0.781674 0.777254 0.595094 -0.167061
C21   C     C_R   0.791043 0.720246 0.564466 -0.170329
C22   C     C_R   0.893764 0.659963 0.645307 -0.215950
H1    H     H_    0.933788 0.612972 0.661999 0.092221
H2    H     H_    0.752976 0.721869 0.521366 0.103866
H3    H     H_    0.766065 0.879196 0.660492 0.117860
H4    H     H_    0.085465 0.678430 0.929811 0.126771
H5    H     H_    0.068811 0.779004 0.980472 0.105150
H6    H     H_    0.892993 0.884756 0.838128 0.091016
H7    H     H_    0.992319 0.615644 0.744632 0.125435
H8    H     H_    0.830234 0.882377 0.755674 0.118548
H9    H     H_    0.737538 0.822223 0.574824 0.109875
C23   C     C_3   0.807080 0.270662 0.809748 0.048306
C24   C     C_3   0.125059 0.232759 0.773806 -0.398029
C25   C     C_3   0.106004 0.282118 0.725378 -0.337775
H10   H     H_    0.840293 0.367618 0.771934 0.117986
H11   H     H_    0.890458 0.296107 0.842273 0.124164
H12   H     H_    0.216364 0.190571 0.761262 0.149749
H13   H     H_    0.197929 0.256916 0.808823 0.145513
H14   H     H_    0.172217 0.329306 0.737229 0.141834
H15   H     H_    0.187121 0.263199 0.689597 0.145619
C26   C     C_1   0.862810 0.378680 0.624573 -0.194385
C27   C     C_3   0.924986 0.208654 0.792233 0.287684
C28   C     C_3   0.783368 0.318993 0.760197 -0.322541
C29   C     C_3   0.891932 0.293311 0.709276 0.260971
C30   C     C_3   0.804836 0.226406 0.693734 -0.332852
C31   C     C_3   0.828125 0.176520 0.741632 -0.320828
C32   C     C_1   0.874899 0.340438 0.662721 -0.092710
C33   C     C_1   0.946814 0.160570 0.838078 -0.084941
C34   C     C_1   0.960987 0.121775 0.875775 -0.195853
H16   H     H_    0.685866 0.156177 0.752468 0.139569
H17   H     H_    0.917707 0.134533 0.727730 0.135203
H18   H     H_    0.649564 0.232598 0.683463 0.137918
H19   H     H_    0.628933 0.326508 0.749327 0.151875
H20   H     H_    0.877009 0.206892 0.656651 0.139336
C35   C     C_3   0.602516 0.702489 0.269531 -0.308298
C36   C     C_3   0.255459 0.691961 0.242552 -0.340479
C37   C     C_3   0.282275 0.741717 0.194838 -0.363566
H21   H     H_    0.631528 0.651443 0.256149 0.128507
H22   H     H_    0.104024 0.693997 0.256837 0.172616
H23   H     H_    0.282796 0.641612 0.227359 0.137656
H24   H     H_    0.312638 0.715476 0.156148 0.141813
H25   H     H_    0.144432 0.768415 0.187512 0.181141
C38   C     C_1   0.476138 0.878195 0.124562 -0.198393
C39   C     C_3   0.393334 0.706960 0.290979 0.225486
C40   C     C_3   0.638062 0.752804 0.221591 0.402897
C41   C     C_3   0.443623 0.791455 0.208552 0.253334
C42   C     C_3   0.375795 0.827166 0.261223 -0.373991
C43   C     C_3   0.355116 0.778188 0.309756 -0.336930
C44   C     C_1   0.463017 0.839507 0.162411 -0.096375
C45   C     C_1   0.365587 0.659889 0.337267 -0.084313
C46   C     C_1   0.348989 0.621606 0.375289 -0.195150
H26   H     H_    0.458039 0.791178 0.342964 0.136652
H27   H     H_    0.207798 0.782445 0.326914 0.156608
H28   H     H_    0.475652 0.866956 0.272585 0.135707
H29   H     H_    0.704312 0.710982 0.304114 0.135024
H30   H     H_    0.234260 0.851399 0.253339 0.164217
C47   C     C_R   0.471654 0.161748 0.088764 -0.041162
C48   C     C_R   0.352861 0.338334 0.411185 -0.040736
C49   C     C_R   0.527170 0.277886 0.093765 -0.163652
C50   C     C_R   0.520196 0.220540 0.063533 -0.168978
C51   C     C_R   0.430637 0.160548 0.145083 -0.215855
C52   C     C_R   0.439937 0.218393 0.177273 0.086533
C53   C     C_R   0.488867 0.277337 0.150124 0.141276
C54   C     C_R   0.404978 0.219857 0.235229 0.058757
C55   C     C_R   0.419609 0.280247 0.264705 0.058548
C56   C     C_R   0.468120 0.337119 0.235212 -0.188972
C57   C     C_R   0.501522 0.335503 0.179273 -0.204282
C58   C     C_R   0.356472 0.162983 0.264720 -0.189209
C59   C     C_R   0.323059 0.164596 0.320654 -0.205061
C60   C     C_R   0.335698 0.222760 0.349803 0.142150
C61   C     C_R   0.384636 0.281709 0.322663 0.086475
C62   C     C_R   0.297357 0.222197 0.406155 -0.164977
C63   C     C_R   0.304302 0.279534 0.436395 -0.170078
C64   C     C_R   0.393914 0.339551 0.354863 -0.215865
H31   H     H_    0.538915 0.380546 0.158562 0.119839
H32   H     H_    0.428053 0.386465 0.337538 0.092483
H33   H     H_    0.270494 0.278135 0.479627 0.103267
H34   H     H_    0.285664 0.119551 0.341362 0.119207
H35   H     H_    0.565218 0.322853 0.073076 0.111034
H36   H     H_    0.553951 0.221927 0.020293 0.104806
H37   H     H_    0.396495 0.113637 0.162412 0.092406
H38   H     H_    0.482165 0.384172 0.254180 0.121136
H39   H     H_    0.342433 0.115928 0.245756 0.121008
H40   H     H_    0.259292 0.177227 0.426836 0.109388
O11   O     O_R   0.323590 0.942280 0.056590 -0.534840
O12   O     O_R   0.647030 0.077140 0.045940 -0.538011
O13   O     O_R   0.813570 0.057750 0.943430 -0.535178
C65   C     C_R   0.478114 0.101074 0.056576 0.693893
O14   O     O_R   0.653510 0.943950 0.062820 -0.537956
O15   O     O_R   0.820100 0.923600 0.960440 -0.536354
C66   C     C_R   0.485498 0.923866 0.078763 0.726578
O16   O     O_R   0.317060 0.076430 0.039590 -0.536062
O17   O     O_3   0.483830 0.993520 0.966410 -0.366769
V3    V     V_3+5 0.760140 0.001200 0.006230 1.418479
O18   O     O_R   0.149560 0.922820 0.954030 -0.537737
C67   C     C_R   0.981459 0.898913 0.943395 0.692157
O19   O     O_R   0.143080 0.056020 0.937150 -0.537756
C68   C     C_R   0.973453 0.076103 0.921330 0.727091
V4    V     V_3+5 0.259690 0.998730 0.993720 1.420965
O20   O     O_3   0.986120 0.006480 0.033580 -0.366916
C69   C     C_3   0.074452 0.598460 0.848532 -0.812712
H41   H     H_    0.078679 0.557105 0.819290 0.206128
H42   H     H_    0.220428 0.602987 0.866729 0.210639
H43   H     H_    0.970014 0.585895 0.881003 0.206462
C70   C     C_3   0.611481 0.254564 0.835106 -0.832435
H44   H     H_    0.521430 0.227141 0.805854 0.219722
H45   H     H_    0.630421 0.225073 0.873064 0.217797
H46   H     H_    0.534709 0.300380 0.846193 0.207559
C71   C     C_3   0.711619 0.715291 0.170866 -0.770805
H47   H     H_    0.731576 0.748792 0.135515 0.204333
H48   H     H_    0.852902 0.691975 0.180251 0.209358
H49   H     H_    0.612632 0.675758 0.158573 0.184756
N1    N     N_3   0.792470 0.797588 0.238170 -0.694991
H50   H     H_    0.764339 0.818554 0.276219 0.214884
H51   H     H_    0.806345 0.835329 0.209520 0.229679

loop_
_geom_bond_atom_site_label_1
_geom_bond_atom_site_label_2
_ccdc_geom_bond_type
C31   H16   S    
C28   C29   S    
C13   C19   A    
C23   C70   S    
C4    C6    S    
O2    C1    A    
C7    C8    A    
C35   C40   S    
C30   H20   S    
C43   H26   S    
C5    C8    A    
C55   C56   A    
C26   C32   T    
C27   C33   S    
C24   C25   S    
C70   H45   S    
C14   C15   A    
C17   C18   A    
C38   C66   S    
C16   C17   A    
C71   H48   S    
O5    C3    A    
C18   C19   A    
C60   C62   A    
C53   C57   A    
C56   H38   S    
V2    O10   S    
C41   C44   S    
C25   H15   S    
O13   C68   A    
C29   C30   S    
C22   H1    S    
C49   H35   S    
C42   H30   S    
O9    C4    A    
C28   H19   S    
C62   H40   S    
O8    V2    S    
C36   C37   S    
C69   H43   S    
C37   H24   S    
O1    V2    S    
C24   H12   S    
O7    V1    S    
C3    C26   S    
C1    O6    A    
C9    C10   A    
O15   C67   A    
C37   C41   S    
C52   C53   A    
C58   H39   S    
C62   C63   A    
N1    H51   S    
N1    H50   S    
O12   C65   A    
C70   H46   S    
C21   H2    S    
C15   C69   S    
C59   C60   A    
C39   C43   S    
C12   C13   A    
C48   C64   A    
C71   H49   S    
C39   C45   S    
C49   C50   A    
O4    C2    A    
C8    H5    S    
C41   C42   S    
C38   C44   T    
C13   C14   A    
C40   C41   S    
C2    C48   S    
C25   H14   S    
C5    C9    A    
O16   V4    S    
C65   O16   A    
C33   C34   T    
O15   V3    S    
C7    C11   A    
C43   H27   S    
C7    H4    S    
C6    C22   A    
O17   V4    S    
C47   C65   S    
V3    O20   S    
C36   H23   S    
C54   C55   A    
C19   C22   A    
C37   H25   S    
C51   C52   A    
C51   H37   S    
C47   C50   A    
C52   C54   A    
C59   H34   S    
C55   C61   A    
O3    C4    A    
C34   C68   S    
C24   C27   S    
C45   C46   T    
O6    V2    S    
C11   C15   A    
O9    V2    S    
O17   V3    S    
C10   C12   A    
C25   C29   S    
O18   C67   A    
O2    V1    S    
C40   N1    S    
C30   H18   S    
H10   C28   S    
O19   C68   A    
C27   C31   S    
C31   H17   S    
C63   H33   S    
O1    C2    A    
C50   H36   S    
C12   C16   A    
C48   C63   A    
O5    V1    S    
O8    C3    A    
C5    C67   S    
C36   C39   S    
C57   H31   S    
C70   H44   S    
C35   H29   S    
C29   C32   S    
C35   H21   S    
C20   C21   A    
O11   C66   A    
O4    V1    S    
O3    V1    S    
V1    O10   S    
V4    O20   S    
C18   C20   A    
C23   C28   S    
C30   C31   S    
C69   H41   S    
C1    C46   S    
C64   H32   S    
C24   H13   S    
C36   H22   S    
C54   C58   A    
C16   H8    S    
C58   C59   A    
C20   H9    S    
C61   C64   A    
C47   C51   A    
C60   C61   A    
O11   V4    S    
C6    C21   A    
O18   V4    S    
O14   C66   A    
C49   C53   A    
C42   C43   S    
O13   V3    S    
C23   C27   S    
O14   V3    S    
C14   H7    S    
C40   C71   S    
C56   C57   A    
C17   H3    S    
C69   H42   S    
C10   C11   A    
C35   C39   S    
O12   V3    S    
C71   H47   S    
C42   H28   S    
C23   H11   S    
O7    V2    S    
O19   V4    S    
C9    H6    S    
