data_mof_unit_58348.cif
_audit_creation_date              2012-12-10T16:50:01-0500
_audit_creation_method            fapswitch 2.2
_symmetry_space_group_name_H-M    P1
_symmetry_Int_Tables_number       1
_space_group_crystal_system       triclinic
_cell_length_a                    7.73109
_cell_length_b                    8.57484
_cell_length_c                    10.680702
_cell_angle_alpha                 90.424179
_cell_angle_beta                  86.778961
_cell_angle_gamma                 93.211694
_cell_volume                      705.818916103

loop_
_atom_site_label
_atom_site_type_symbol
_atom_type_description
_atom_site_fract_x
_atom_site_fract_y
_atom_site_fract_z
_atom_type_partial_charge
C1    C     C_R   0.544432 0.794504 0.490876 1.043950
C2    C     C_R   0.454322 0.205592 0.496006 0.868779
C3    C     C_R   0.494301 0.497079 0.259304 0.908463
C4    C     C_R   0.277600 0.723575 0.884869 0.630190
C5    C     C_R   0.124944 0.766836 0.947770 -0.206816
C6    C     C_R   0.075573 0.703342 0.064299 -0.214614
C7    C     C_R   0.186351 0.607955 0.123185 -0.070531
C8    C     C_R   0.349970 0.573161 0.065237 0.031151
C9    C     C_R   0.382742 0.614520 0.939117 -0.048366
C10   C     C_R   0.516517 0.540684 0.870292 -0.088804
C11   C     C_R   0.641108 0.461566 0.929145 -0.216000
C12   C     C_R   0.627443 0.445124 0.056256 -0.202689
C13   C     C_R   0.483790 0.499379 0.125407 -0.064066
C14   C     C_2   0.564869 0.957946 0.491592 -0.487701
C15   C     C_2   0.431544 0.045361 0.467647 0.295440
C16   C     C_R   0.506247 0.516338 0.738664 0.937395
F1    F     F_    0.325865 0.793817 0.773891 -0.678967
H1    H     H_    0.745737 0.406999 0.876634 0.175991
H2    H     H_    0.985788 0.616067 0.594399 0.220292
H3    H     H_    0.043107 0.847330 0.904951 0.173781
H4    H     H_    0.952753 0.730806 0.110678 0.183781
H5    H     H_    0.136078 0.560318 0.211470 0.185919
H6    H     H_    0.728328 0.385923 0.100242 0.171088
H7    H     H_    0.683941 0.006482 0.529914 0.176756
H8    H     H_    0.014185 0.384037 0.405616 0.218012
H9    H     H_    0.080897 0.096146 0.257007 0.372032
N1    N     N_2   0.950330 0.457950 0.466250 -0.175925
N2    N     N_2   0.049670 0.542050 0.533750 -0.141904
O1    O     O_R   0.389250 0.738570 0.508280 -0.507089
O2    O     O_2   0.107060 0.914751 0.462739 -0.289013
O3    O     O_3   0.180707 0.138904 0.303171 -0.592775
O4    O     O_R   0.678390 0.711630 0.486650 -0.626350
O5    O     O_R   0.355400 0.513470 0.694050 -0.595023
O6    O     O_R   0.644540 0.486530 0.672420 -0.647472
O7    O     O_R   0.321610 0.288370 0.513350 -0.577038
O8    O     O_R   0.610750 0.261430 0.491720 -0.644457
O9    O     O_R   0.355460 0.513470 0.327580 -0.620671
O10   O     O_R   0.644600 0.486530 0.305950 -0.638712
O11   O     O_2   0.307725 0.866388 0.281687 -0.326819
S1    S     S_3+6 0.251984 0.984814 0.377689 0.028926
Zn1   Zn    Zn3+2 0.306930 0.517990 0.514440 1.065341
Zn2   Zn    Zn3+2 0.693070 0.482010 0.485560 0.974517

loop_
_geom_bond_atom_site_label_1
_geom_bond_atom_site_label_2
_ccdc_geom_bond_type
C2    O7    A    
C11   C12   A    
C11   H1    S    
C6    C7    A    
C2    C15   S    
C16   O5    A    
H8    N1    S    
C7    H5    S    
C9    C10   A    
O8    Zn2   S    
O6    Zn2   S    
O5    Zn1   S    
C1    O1    A    
O2    S1    D    
C7    C8    A    
C5    H3    S    
C10   C16   S    
C12   C13   A    
H2    N2    S    
N1    Zn2   S    
C8    C13   A    
O1    Zn1   S    
C4    F1    S    
O10   Zn2   S    
O9    Zn1   S    
C5    C6    A    
O7    Zn1   S    
C15   S1    S    
C10   C11   A    
C2    O8    A    
N2    Zn1   S    
N1    N2    D    
O3    S1    S    
C3    O9    A    
C14   H7    S    
O11   S1    D    
O4    Zn2   S    
C14   C15   D    
C8    C9    A    
C12   H6    S    
C1    C14   S    
C16   O6    A    
C4    C9    A    
C6    H4    S    
H9    O3    S    
C1    O4    A    
C3    O10   A    
C4    C5    A    
C3    C13   S    
