data_mof_unit_43938.cif
_audit_creation_date              2012-12-11T15:07:37-0500
_audit_creation_method            fapswitch 2.2
_symmetry_space_group_name_H-M    P1
_symmetry_Int_Tables_number       1
_space_group_crystal_system       triclinic
_cell_length_a                    21.619144
_cell_length_b                    7.209326
_cell_length_c                    18.625046
_cell_angle_alpha                 89.9659
_cell_angle_beta                  95.990035
_cell_angle_gamma                 89.975357
_cell_volume                      2887.03908769

loop_
_atom_site_label
_atom_site_type_symbol
_atom_type_description
_atom_site_fract_x
_atom_site_fract_y
_atom_site_fract_z
_atom_type_partial_charge
O1    O     O_R   0.449650 0.506500 0.414480 -0.528891
O2    O     O_R   0.550350 0.006500 0.585520 -0.538059
O3    O     O_R   0.432010 0.173150 0.560250 -0.542032
O4    O     O_R   0.567990 0.673150 0.439750 -0.536792
C1    C     C_R   0.416198 0.344678 0.581177 0.687443
C2    C     C_R   0.583865 0.844711 0.418897 0.681914
O5    O     O_R   0.442320 0.176650 0.413480 -0.540995
O6    O     O_R   0.557680 0.676650 0.586520 -0.526661
O7    O     O_R   0.560730 0.008380 0.437700 -0.539845
O8    O     O_R   0.439270 0.508380 0.562300 -0.534986
C3    C     C_R   0.428642 0.345146 0.387492 0.720213
C4    C     C_R   0.571411 0.844993 0.612458 0.717196
O9    O     O_3   0.538840 0.339860 0.508120 -0.373016
O10   O     O_3   0.461160 0.839860 0.491880 -0.375235
V1    V     V_3+5 0.492800 0.064220 0.498490 1.416214
V2    V     V_3+5 0.507200 0.564220 0.501510 1.449293
C5    C     C_R   0.870967 0.979795 0.690078 -0.161327
C6    C     C_R   0.128395 0.468378 0.310341 -0.161240
H1    H     H_    0.959176 0.007440 0.753302 0.103564
H2    H     H_    0.040140 0.495757 0.247131 0.103305
H3    H     H_    0.788890 0.975996 0.574127 0.124057
H4    H     H_    0.210201 0.458433 0.426517 0.124142
H5    H     H_    0.890847 0.008003 0.640130 0.114153
H6    H     H_    0.108214 0.490906 0.360505 0.114133
C7    C     C_R   0.886255 0.942385 0.819822 -0.035445
C8    C     C_R   0.113663 0.441343 0.180207 -0.034942
C9    C     C_R   0.584565 0.816172 0.745867 0.209147
C10   C     C_R   0.415798 0.324414 0.253797 0.205946
C11   C     C_R   0.621695 0.813548 0.812045 -0.150355
C12   C     C_R   0.378930 0.327653 0.187453 -0.151281
C13   C     C_R   0.685536 0.844296 0.815773 -0.199844
C14   C     C_R   0.314944 0.355401 0.183855 -0.200090
C15   C     C_R   0.715115 0.879289 0.753021 0.080062
C16   C     C_R   0.284979 0.382027 0.246899 0.079930
C17   C     C_R   0.677276 0.883309 0.685102 0.019709
C18   C     C_R   0.322598 0.381247 0.314982 0.018421
C19   C     C_R   0.780976 0.910194 0.755480 0.085024
C20   C     C_R   0.218964 0.409715 0.244546 0.085030
C21   C     C_R   0.806974 0.946130 0.689855 0.136367
C22   C     C_R   0.192588 0.438268 0.310439 0.136126
C23   C     C_R   0.769093 0.949086 0.624242 -0.195435
C24   C     C_R   0.230278 0.437135 0.376198 -0.195267
C25   C     C_R   0.705479 0.917851 0.621760 -0.180610
C26   C     C_R   0.294045 0.408659 0.378574 -0.180546
C27   C     C_R   0.822220 0.907633 0.820478 -0.214929
C28   C     C_R   0.177908 0.410575 0.179405 -0.214929
C29   C     C_R   0.910067 0.979112 0.754453 -0.165627
C30   C     C_R   0.089448 0.470880 0.245847 -0.165942
C31   C     C_R   0.611958 0.851030 0.681854 -0.099939
C32   C     C_R   0.388078 0.351953 0.318097 -0.098373
H7    H     H_    0.806199 0.881426 0.872409 0.094786
H8    H     H_    0.194181 0.389261 0.127290 0.094319
H9    H     H_    0.710438 0.839650 0.868913 0.120942
H10   H     H_    0.290259 0.355430 0.130568 0.120920
H11   H     H_    0.601028 0.787056 0.861579 0.118551
H12   H     H_    0.399889 0.307329 0.137699 0.118883
H13   H     H_    0.678474 0.921504 0.569440 0.107720
H14   H     H_    0.320886 0.408718 0.431015 0.106067
C33   C     C_R   0.638103 0.019674 0.327010 -0.215564
C34   C     C_R   0.362309 0.519081 0.673474 -0.201029
C35   C     C_R   0.632993 0.857638 0.368583 -0.076394
C36   C     C_R   0.367194 0.357497 0.631639 -0.080687
C37   C     C_R   0.675169 0.711223 0.361918 -0.215597
C38   C     C_R   0.324923 0.211372 0.638192 -0.228767
C39   C     C_R   0.722174 0.726928 0.315332 0.089278
C40   C     C_R   0.277965 0.227014 0.684833 0.091343
C41   C     C_R   0.726523 0.889633 0.273814 0.055156
C42   C     C_R   0.273688 0.389493 0.726433 0.054936
C43   C     C_R   0.684107 0.036028 0.279510 0.086264
C44   C     C_R   0.316227 0.535570 0.720886 0.081497
C45   C     C_R   0.765164 0.583117 0.309676 -0.185700
C46   C     C_R   0.234936 0.083376 0.690438 -0.185444
C47   C     C_R   0.811504 0.599233 0.262833 -0.196813
C48   C     C_R   0.188584 0.099503 0.737261 -0.197098
C49   C     C_R   0.815857 0.759748 0.220887 0.086882
C50   C     C_R   0.184246 0.259881 0.779221 0.086716
C51   C     C_R   0.773416 0.906111 0.226564 0.055408
C52   C     C_R   0.226753 0.406031 0.773629 0.055460
C53   C     C_R   0.777753 0.068829 0.185048 0.091957
C54   C     C_R   0.222437 0.568587 0.815177 0.091770
C55   C     C_R   0.734758 0.212638 0.190702 -0.187571
C56   C     C_R   0.265517 0.712141 0.809628 -0.186102
C57   C     C_R   0.688432 0.196529 0.237557 -0.195032
C58   C     C_R   0.311930 0.695892 0.762886 -0.194307
C59   C     C_R   0.861912 0.776198 0.173422 -0.211621
C60   C     C_R   0.138143 0.276383 0.826622 -0.211622
C61   C     C_R   0.866900 0.938112 0.131753 -0.080711
C62   C     C_R   0.133162 0.438143 0.868310 -0.080626
C63   C     C_R   0.824735 0.084523 0.138438 -0.227091
C64   C     C_R   0.175396 0.584353 0.861715 -0.227373
H15   H     H_    0.605887 0.133475 0.331060 0.143627
H16   H     H_    0.394779 0.632342 0.669702 0.150230
H17   H     H_    0.672072 0.586211 0.393711 0.130986
H18   H     H_    0.327908 0.086638 0.606262 0.131609
H19   H     H_    0.762823 0.457610 0.341315 0.136160
H20   H     H_    0.237251 0.957999 0.658771 0.136050
H21   H     H_    0.843823 0.485512 0.259191 0.131087
H22   H     H_    0.156231 0.985924 0.740858 0.131183
H23   H     H_    0.894324 0.662760 0.169501 0.126870
H24   H     H_    0.105686 0.163102 0.830475 0.126828
H25   H     H_    0.827832 0.209509 0.106628 0.129578
H26   H     H_    0.172313 0.709209 0.893552 0.129523
H27   H     H_    0.737083 0.338128 0.159052 0.137044
H28   H     H_    0.263202 0.837524 0.841290 0.136268
H29   H     H_    0.656088 0.310205 0.241188 0.140757
H30   H     H_    0.344347 0.809353 0.759352 0.133719
O11   O     O_R   0.060820 0.290050 0.937800 -0.539447
O12   O     O_R   0.939180 0.790050 0.062200 -0.539492
O13   O     O_R   0.057690 0.616620 0.086540 -0.536258
O14   O     O_R   0.942310 0.116620 0.913460 -0.536263
C65   C     C_R   0.071590 0.448646 0.112467 0.684412
C66   C     C_R   0.928374 0.948810 0.887550 0.684462
O15   O     O_R   0.068010 0.619890 0.939770 -0.540748
O16   O     O_R   0.931990 0.119890 0.060230 -0.540779
O17   O     O_R   0.949640 0.787940 0.914460 -0.532221
O18   O     O_R   0.050360 0.287940 0.085540 -0.532195
C67   C     C_R   0.084090 0.451015 0.918682 0.697199
C68   C     C_R   0.915926 0.951003 0.081335 0.697364
O19   O     O_3   0.961210 0.453080 0.991940 -0.373644
O20   O     O_3   0.038790 0.953080 0.008060 -0.373596
V3    V     V_3+5 0.007200 0.728820 0.001500 1.409653
V4    V     V_3+5 0.992800 0.228820 0.998500 1.409779
N1    N     N_3   0.518788 0.781918 0.743047 -0.681533
H31   H     H_    0.495843 0.905899 0.728049 0.214325
H32   H     H_    0.506416 0.747744 0.794217 0.223413
N2    N     N_3   0.481778 0.294325 0.256368 -0.683350
H33   H     H_    0.491051 0.162105 0.277951 0.221433
H34   H     H_    0.495750 0.292668 0.204285 0.223507

loop_
_geom_bond_atom_site_label_1
_geom_bond_atom_site_label_2
_ccdc_geom_bond_type
C40   C42   A    
C37   C39   A    
N2    H33   S    
O17   V3    S    
C50   C60   A    
C9    C11   A    
C23   C25   A    
O1    C3    A    
O12   V3    S    
O2    C4    A    
C2    O7    A    
C4    C31   S    
C18   C32   A    
N1    H31   S    
C48   H22   S    
C47   H21   S    
C5    H5    S    
C48   C50   A    
C43   C57   A    
C2    C35   S    
C50   C52   A    
O13   C65   A    
C46   H20   S    
C60   C62   A    
N1    H32   S    
C45   H19   S    
C27   H7    S    
C28   H8    S    
C34   C36   A    
C5    C21   A    
C35   C37   A    
C6    C22   A    
C64   H26   S    
C36   C38   A    
C7    C66   S    
C10   C32   A    
C49   C59   A    
C40   C46   A    
C26   H14   S    
C39   C41   A    
C41   C51   A    
C17   C31   A    
C58   H30   S    
C13   C15   A    
C65   O18   A    
C6    H6    S    
C12   C14   A    
C44   C58   A    
C7    C29   A    
C16   C18   A    
C8    C30   A    
O5    V1    S    
O6    V2    S    
C47   C49   A    
C24   C26   A    
C14   H10   S    
C55   C57   A    
C10   N2    S    
C51   C53   A    
C42   C52   A    
C33   C35   A    
C53   C63   A    
C59   C61   A    
O12   C68   A    
C61   C68   S    
C46   C48   A    
C53   C55   A    
C9    N1    S    
C11   H11   S    
C39   C45   A    
C12   H12   S    
C15   C19   A    
C57   H29   S    
C41   C43   A    
C38   C40   A    
O4    V2    S    
O5    C3    A    
C59   H23   S    
C25   H13   S    
C34   C44   A    
O6    C4    A    
C52   C54   A    
O1    V2    S    
C33   H15   S    
C13   H9    S    
O2    V1    S    
C49   C51   A    
O16   C68   A    
O18   V4    S    
C33   C43   A    
O15   C67   A    
C54   C56   A    
C62   C64   A    
C56   C58   A    
C61   C63   A    
H3    C23   S    
C18   C26   A    
O4    C2    A    
C19   C27   A    
C7    C27   A    
C17   C25   A    
O20   V3    S    
C45   C47   A    
C55   H27   S    
O19   V4    S    
N2    H34   S    
H2    C30   S    
C63   H25   S    
C16   C20   A    
C5    C29   A    
O3    C1    A    
C6    C30   A    
C37   H17   S    
C10   C12   A    
O7    V1    S    
C38   H18   S    
C1    O8    A    
C19   C21   A    
C3    C32   S    
O8    V2    S    
O14   V4    S    
C20   C22   A    
C60   H24   S    
O13   V3    S    
H4    C24   S    
C22   C24   A    
C15   C17   A    
C1    C36   S    
H1    C29   S    
C54   C64   A    
O14   C66   A    
C20   C28   A    
C8    C28   A    
O16   V4    S    
O15   V3    S    
C21   C23   A    
C11   C13   A    
O9    V2    S    
C42   C44   A    
C56   H28   S    
O10   V1    S    
O3    V1    S    
O11   V4    S    
C62   C67   S    
C34   H16   S    
C8    C65   S    
O11   C67   A    
C66   O17   A    
C9    C31   A    
C14   C16   A    
