data_mof_unit_63115.cif
_audit_creation_date              2012-12-10T17:59:55-0500
_audit_creation_method            fapswitch 2.2
_symmetry_space_group_name_H-M    P1
_symmetry_Int_Tables_number       1
_space_group_crystal_system       triclinic
_cell_length_a                    18.607694
_cell_length_b                    18.715558
_cell_length_c                    18.794759
_cell_angle_alpha                 109.529257
_cell_angle_beta                  109.778359
_cell_angle_gamma                 109.172526
_cell_volume                      5034.35899828

loop_
_atom_site_label
_atom_site_type_symbol
_atom_type_description
_atom_site_fract_x
_atom_site_fract_y
_atom_site_fract_z
_atom_type_partial_charge
C1    C     C_R   0.619798 0.620284 0.499502 0.897567
C2    C     C_R   0.684802 0.686247 0.497933 -0.041475
C3    C     C_R   0.679536 0.505463 0.761396 -0.214819
C4    C     C_R   0.380638 0.501138 0.379300 1.002210
C5    C     C_R   0.743214 0.506963 0.828383 -0.029112
C6    C     C_R   0.814920 0.502998 0.819947 -0.092159
C7    C     C_R   0.821357 0.497340 0.746411 -0.201738
C8    C     C_R   0.756656 0.494444 0.680064 -0.161881
C9    C     C_R   0.686535 0.499333 0.688220 -0.036421
C10   C     C_R   0.263142 0.336137 0.535159 -0.211659
C11   C     C_R   0.198274 0.273970 0.536272 -0.046705
C12   C     C_3   0.190236 0.418895 0.189668 -0.202411
C13   C     C_R   0.186827 0.188863 0.504048 -0.077039
C14   C     C_R   0.238528 0.167069 0.471727 -0.184692
C15   C     C_R   0.301571 0.229323 0.469552 -0.151286
C16   C     C_R   0.380020 0.379656 0.500454 0.921775
C17   C     C_R   0.313818 0.313803 0.501332 -0.042558
C18   C     C_R   0.002772 0.620264 0.122902 0.998045
C19   C     C_R   0.124866 0.501046 0.125043 0.990451
C20   C     C_R   0.005908 0.379764 0.885546 0.906191
C21   C     C_R   0.882412 0.501430 0.884411 0.937379
C22   C     C_R   0.001422 0.880498 0.380798 0.930822
C23   C     C_3   0.217784 0.462377 0.287257 -0.044668
C24   C     C_R   0.879702 0.878511 0.498299 0.907267
C25   C     C_R   0.998440 0.119347 0.619300 0.927062
C26   C     C_R   0.120224 0.120676 0.500988 0.914053
C27   C     C_R   0.000441 0.758594 0.179641 -0.020199
C28   C     C_R   0.620999 0.499929 0.621181 0.855135
C29   C     C_R   0.000379 0.822104 0.244077 -0.232456
C30   C     C_R   0.001657 0.814586 0.315410 -0.039294
C31   C     C_R   0.002894 0.744481 0.324753 -0.152173
C32   C     C_R   0.003273 0.679610 0.262140 -0.059650
C33   C     C_R   0.002068 0.686719 0.188792 -0.171122
C34   C     C_3   0.314941 0.502124 0.312235 -0.191055
C35   C     C_R   0.086034 0.316511 0.828528 -0.059734
C36   C     C_R   0.081733 0.252244 0.760559 -0.150625
C37   C     C_R   0.000631 0.187153 0.685932 -0.015033
C38   C     C_R   0.922558 0.185384 0.677039 -0.189195
C39   C     C_R   0.925459 0.248180 0.744514 -0.186177
C40   C     C_3   0.316042 0.584394 0.312306 -0.025198
C41   C     C_R   0.006505 0.313536 0.819793 -0.086894
C42   C     C_3   0.218589 0.545365 0.288372 -0.211873
C43   C     C_3   0.192859 0.502380 0.191826 -0.013652
C44   C     C_3   0.289755 0.543027 0.215194 -0.243396
C45   C     C_R   0.746781 0.766379 0.574307 -0.164849
C46   C     C_3   0.288126 0.460182 0.215361 -0.032223
C47   C     C_2   0.732817 0.514893 0.905464 0.931582
C48   C     C_2   0.146019 0.301124 0.572727 0.916860
C49   C     C_2   0.996135 0.768998 0.103403 0.943788
C50   C     C_2   0.385241 0.678219 0.377302 0.933594
C51   C     C_2   0.007591 0.607995 0.278132 0.929835
C52   C     C_2   0.173420 0.382461 0.908025 0.938306
C53   C     C_2   0.328263 0.414728 0.174402 0.959877
C54   C     C_2   0.172792 0.416235 0.324017 0.936764
C55   C     C_2   0.751173 0.705859 0.334160 0.922961
C56   C     C_R   0.811393 0.828183 0.573302 -0.191378
C57   C     C_R   0.813133 0.810392 0.495743 -0.085286
C58   C     C_R   0.750279 0.729662 0.417656 -0.047927
C59   C     C_R   0.685927 0.668035 0.420034 -0.184222
H1    H     H_    0.859675 0.134571 0.619067 0.152779
H2    H     H_    0.102490 0.386500 0.602097 0.356262
H3    H     H_    0.228966 0.101420 0.446958 0.144696
H4    H     H_    0.341126 0.211773 0.443963 0.163670
H5    H     H_    0.946779 0.712735 0.973070 0.343957
H6    H     H_    0.506871 0.764921 0.481983 0.345766
H7    H     H_    0.998861 0.877614 0.238704 0.174748
H8    H     H_    0.004122 0.741040 0.381621 0.190650
H9    H     H_    0.976708 0.533395 0.331351 0.363113
H10   H     H_    0.244355 0.458754 0.038538 0.339889
H11   H     H_    0.141598 0.252042 0.766007 0.192750
H12   H     H_    0.318892 0.577295 0.185494 0.176175
H13   H     H_    0.864654 0.246699 0.737597 0.152595
H14   H     H_    0.437278 0.423638 0.169604 0.354486
H15   H     H_    0.137208 0.351033 0.138026 0.188218
H16   H     H_    0.181287 0.370225 0.407089 0.352958
H17   H     H_    0.746089 0.780428 0.634800 0.158477
H18   H     H_    0.859578 0.890438 0.632779 0.148635
H19   H     H_    0.682149 0.631117 0.202640 0.358895
H20   H     H_    0.191631 0.581825 0.319964 0.206130
H21   H     H_    0.637082 0.605174 0.361495 0.207621
H22   H     H_    0.624268 0.509428 0.765978 0.190844
H23   H     H_    0.649959 0.495745 0.952839 0.356790
H24   H     H_    0.875847 0.493585 0.739751 0.155000
H25   H     H_    0.762019 0.489987 0.623267 0.154930
H26   H     H_    0.274109 0.402280 0.560458 0.209045
O1    O     O_R   0.592040 0.539900 0.448690 -0.624703
O2    O     O_R   0.948580 0.908330 0.356880 -0.597907
O3    O     O_R   0.960490 0.908280 0.552000 -0.619136
O4    O     O_R   0.591220 0.643330 0.551330 -0.606559
O5    O     O_R   0.856260 0.908310 0.447800 -0.610772
O6    O     O_R   0.051420 0.091500 0.642940 -0.629155
O7    O     O_R   0.947190 0.091540 0.538750 -0.606417
O8    O     O_R   0.143740 0.091510 0.552020 -0.612805
O9    O     O_R   0.039510 0.091550 0.447830 -0.611896
O10   O     O_R   0.408100 0.448290 0.356370 -0.615396
O11   O     O_R   0.407270 0.551710 0.459000 -0.572927
O12   O     O_R   0.054890 0.643310 0.094620 -0.619483
O13   O     O_R   0.408780 0.356670 0.448670 -0.625871
O14   O     O_R   0.407960 0.460100 0.551310 -0.614514
O15   O     O_R   0.592730 0.448290 0.541000 -0.625793
O16   O     O_R   0.591900 0.551710 0.643630 -0.626199
O17   O     O_R   0.951430 0.539890 0.094630 -0.571303
O18   O     O_2   0.796788 0.548046 0.977317 -0.592563
O19   O     O_R   0.648884 0.486301 0.896043 -0.800843
O20   O     O_2   0.110765 0.261641 0.602315 -0.650283
O21   O     O_R   0.138965 0.373976 0.575216 -0.794300
O22   O     O_2   0.035298 0.841958 0.114249 -0.621411
O23   O     O_R   0.044450 0.448260 0.096050 -0.594123
O24   O     O_R   0.945090 0.696585 0.019106 -0.778712
O25   O     O_2   0.371361 0.735951 0.371207 -0.611733
O26   O     O_R   0.465607 0.699494 0.443012 -0.792935
O27   O     O_2   0.047083 0.573708 0.254468 -0.652395
O28   O     O_R   0.968630 0.581778 0.323488 -0.785502
O29   O     O_2   0.239507 0.406092 0.901759 -0.599228
O30   O     O_R   0.181092 0.415402 0.990296 -0.811831
O31   O     O_2   0.282903 0.337840 0.117161 -0.604398
O32   O     O_R   0.417514 0.461013 0.201817 -0.783635
O33   O     O_2   0.094217 0.390125 0.296458 -0.588152
O34   O     O_R   0.147910 0.551670 0.096030 -0.620110
O35   O     O_R   0.219968 0.402783 0.388821 -0.821722
O36   O     O_2   0.819752 0.739303 0.334289 -0.637143
O37   O     O_R   0.673246 0.642518 0.254824 -0.780934
O38   O     O_R   0.952840 0.356630 0.912840 -0.628853
O39   O     O_R   0.056290 0.460040 0.912820 -0.613652
O40   O     O_R   0.859820 0.448260 0.911420 -0.615904
O41   O     O_R   0.963280 0.551670 0.911400 -0.613697
O42   O     O_R   0.052810 0.908290 0.461080 -0.634686
Zn1   Zn    Zn3+2 0.500550 0.430940 0.431470 1.015083
Zn2   Zn    Zn3+2 0.499450 0.569060 0.568530 1.029835
Zn3   Zn    Zn3+2 0.934780 0.430920 0.003740 1.057913
Zn4   Zn    Zn3+2 0.072940 0.569020 0.003710 1.030844
Zn5   Zn    Zn3+2 0.069600 0.999890 0.569480 1.007570
Zn6   Zn    Zn3+2 0.930400 0.999940 0.430340 1.029967

loop_
_geom_bond_atom_site_label_1
_geom_bond_atom_site_label_2
_ccdc_geom_bond_type
C26   O9    A    
C7    H24   S    
C55   O36   D    
C10   H26   S    
C51   O27   D    
C54   O35   S    
C27   C29   A    
O2    Zn6   S    
C35   C36   A    
C20   C41   S    
H5    O24   S    
C7    C8    A    
C39   C41   A    
C27   C33   A    
C31   H8    S    
C5    C47   S    
C12   C23   S    
C29   C30   A    
C23   C42   S    
C45   H17   S    
C34   C40   S    
C36   C37   A    
C12   C43   S    
C12   H15   S    
C30   C31   A    
C53   O32   S    
C10   C17   A    
C14   H3    S    
C50   O25   D    
O9    Zn6   S    
O4    Zn2   S    
C56   C57   A    
C44   H12   S    
C1    C2    S    
C18   O17   A    
O42   Zn5   S    
H6    O26   S    
C20   O38   A    
C25   C37   S    
C4    O11   A    
C28   O16   A    
C48   O21   S    
O7    Zn6   S    
C45   C56   A    
C44   C46   S    
C24   C57   S    
C3    H22   S    
O34   Zn4   S    
C39   H13   S    
C34   C46   S    
C18   O12   A    
O8    Zn5   S    
O23   Zn3   S    
C53   O31   D    
H9    O28   S    
C19   O23   A    
C28   O15   A    
C26   O8    A    
O13   Zn1   S    
C55   O37   S    
C19   O34   A    
C42   H20   S    
C48   O20   D    
C8    H25   S    
C13   C14   A    
C11   C48   S    
C35   C41   A    
O10   Zn1   S    
C19   C43   S    
C2    C45   A    
C38   C39   A    
C4    C34   S    
C25   O6    A    
C47   O18   D    
O14   Zn2   S    
O1    Zn1   S    
H14   O32   S    
O12   Zn4   S    
C49   O22   D    
O5    Zn6   S    
C2    C59   A    
C16   C17   S    
O6    Zn5   S    
C58   C59   A    
C6    C21   S    
C56   H18   S    
O39   Zn4   S    
C43   C44   S    
C32   C51   S    
C37   C38   A    
C3    C9    A    
C4    O10   A    
C31   C32   A    
C23   C34   S    
C8    C9    A    
C51   O28   S    
C22   O2    A    
H2    O21   S    
C24   O3    A    
C22   O42   A    
C38   H1    S    
C12   C46   S    
C36   H11   S    
C54   O33   D    
O38   Zn3   S    
C13   C26   S    
C42   C43   S    
O3    Zn5   S    
C21   O40   A    
C23   C54   S    
C49   O24   S    
C52   O30   S    
C1    O1    A    
C15   C17   A    
H10   O30   S    
C25   O7    A    
C1    O4    A    
C47   O19   S    
C22   C30   S    
O15   Zn1   S    
H16   O35   S    
O17   Zn3   S    
C3    C5    A    
C24   O5    A    
C59   H21   S    
C16   O14   A    
C6    C7    A    
C52   O29   D    
C15   H4    S    
C32   C33   A    
C11   C13   A    
C16   O13   A    
C57   C58   A    
C5    C6    A    
O41   Zn4   S    
C40   C50   S    
C46   C53   S    
C40   C42   S    
C50   O26   S    
H19   O37   S    
C18   C33   S    
C20   O39   A    
C10   C11   A    
O40   Zn3   S    
C29   H7    S    
C40   C44   S    
C55   C58   S    
C35   C52   S    
H23   O19   S    
C14   C15   A    
C21   O41   A    
C27   C49   S    
C9    C28   S    
O11   Zn2   S    
O16   Zn2   S    
