data_mof_unit_49024.cif
_audit_creation_date              2012-12-11T16:51:22-0500
_audit_creation_method            fapswitch 2.2
_symmetry_space_group_name_H-M    P1
_symmetry_Int_Tables_number       1
_space_group_crystal_system       triclinic
_cell_length_a                    24.096369
_cell_length_b                    17.066069
_cell_length_c                    15.645765
_cell_angle_alpha                 90.242889
_cell_angle_beta                  129.067174
_cell_angle_gamma                 90.248386
_cell_volume                      4995.16799169

loop_
_atom_site_label
_atom_site_type_symbol
_atom_type_description
_atom_site_fract_x
_atom_site_fract_y
_atom_site_fract_z
_atom_type_partial_charge
C1    C     C_R   0.847800 0.858190 0.237834 0.295680
C2    C     C_R   0.132865 0.193458 0.498865 0.117377
C3    C     C_3   0.728909 0.353322 0.817882 -1.020487
C4    C     C_3   0.773196 0.803581 0.799445 -0.833923
C5    C     C_3   0.223073 0.794510 0.199054 -0.862819
C6    C     C_3   0.273196 0.303581 0.799445 -0.833923
C7    C     C_3   0.723074 0.294511 0.199055 -0.862821
C8    C     C_3   0.243810 0.084958 0.844929 -0.962996
C9    C     C_3   0.757277 0.076178 0.156073 -0.960757
C10   C     C_3   0.743810 0.584958 0.844929 -0.962996
C11   C     C_3   0.257277 0.576178 0.156073 -0.960756
C12   C     C_R   0.366060 0.692374 0.501391 0.117087
C13   C     C_R   0.632865 0.693458 0.498865 0.117377
C14   C     C_R   0.849791 0.120224 0.132681 0.115401
C15   C     C_R   0.150150 0.122632 0.867998 0.120569
C16   C     C_R   0.349791 0.620224 0.132681 0.115401
C17   C     C_R   0.650150 0.622632 0.867998 0.120569
C18   C     C_R   0.767999 0.848528 0.600052 0.093435
C19   C     C_R   0.230570 0.845377 0.399263 0.093632
C20   C     C_R   0.267999 0.348528 0.600052 0.093434
C21   C     C_R   0.150153 0.857505 0.758288 0.290585
C22   C     C_R   0.730570 0.345377 0.399263 0.093632
C23   C     C_R   0.755713 0.864095 0.501930 -0.031438
C24   C     C_R   0.243398 0.863344 0.497362 -0.032269
C25   C     C_R   0.255713 0.364095 0.501930 -0.031438
C26   C     C_R   0.743398 0.363345 0.497362 -0.032269
C27   C     C_R   0.684687 0.855666 0.404058 -0.303079
C28   C     C_R   0.314470 0.856518 0.595129 -0.302936
C29   C     C_R   0.184687 0.355666 0.404057 -0.303079
C30   C     C_R   0.814470 0.356518 0.595130 -0.302935
C31   C     C_R   0.134340 0.313147 0.404022 0.541746
C32   C     C_R   0.347800 0.358190 0.237834 0.295680
C33   C     C_R   0.864408 0.313344 0.595532 0.545944
C34   C     C_R   0.634340 0.813147 0.404022 0.541746
C35   C     C_R   0.364408 0.813344 0.595532 0.545945
C36   C     C_R   0.158120 0.273489 0.501573 -0.164891
C37   C     C_R   0.840205 0.271785 0.498343 -0.171188
C38   C     C_R   0.658120 0.773490 0.501573 -0.164891
C39   C     C_R   0.340205 0.771785 0.498342 -0.171188
C40   C     C_R   0.219849 0.304927 0.600483 0.111146
C41   C     C_R   0.778346 0.301359 0.399045 0.115411
C42   C     C_R   0.719849 0.804927 0.600483 0.111145
C43   C     C_R   0.650154 0.357505 0.758288 0.290585
C44   C     C_R   0.278345 0.801359 0.399045 0.115411
C45   C     C_3   0.778808 0.773359 0.712696 0.041209
C46   C     C_3   0.218764 0.766984 0.287980 0.046512
C47   C     C_3   0.278808 0.273360 0.712696 0.041209
C48   C     C_3   0.718765 0.266985 0.287980 0.046513
C49   C     C_R   0.114983 0.897436 0.408284 -0.127147
C50   C     C_R   0.884621 0.897848 0.591266 -0.130163
C51   C     C_R   0.614983 0.397436 0.408284 -0.127146
C52   C     C_R   0.384621 0.397848 0.591266 -0.130161
C53   C     C_3   0.831317 0.820132 0.709804 -0.484387
C54   C     C_R   0.912111 0.144877 0.592301 -0.058410
C55   C     C_3   0.166754 0.814168 0.290913 -0.479668
C56   C     C_3   0.331317 0.320132 0.709804 -0.484387
C57   C     C_3   0.666755 0.314168 0.290913 -0.479668
C58   C     C_2   0.128470 0.732838 0.828668 0.521360
C59   C     C_2   0.865764 0.731650 0.163790 0.549907
C60   C     C_2   0.628470 0.232838 0.828668 0.521361
C61   C     C_2   0.365764 0.231650 0.163790 0.549907
C62   C     C_2   0.186515 0.694945 0.857339 -0.261478
C63   C     C_2   0.812884 0.690098 0.150891 -0.293826
C64   C     C_2   0.686515 0.194945 0.857339 -0.261479
C65   C     C_R   0.087442 0.144946 0.407966 -0.059595
C66   C     C_2   0.312884 0.190098 0.150891 -0.293826
C67   C     C_2   0.800798 0.138477 0.014602 -0.191426
C68   C     C_2   0.195902 0.155601 0.980744 -0.231621
C69   C     C_2   0.300798 0.638477 0.014602 -0.191425
C70   C     C_2   0.695902 0.655601 0.980744 -0.231620
C71   C     C_2   0.737892 0.170811 0.971710 -0.032177
C72   C     C_2   0.265162 0.137045 0.056924 -0.048761
C73   C     C_2   0.237892 0.670811 0.971710 -0.032178
C74   C     C_2   0.765162 0.637045 0.056924 -0.048761
C75   C     C_R   0.189637 0.899006 0.589745 -0.114130
C76   C     C_R   0.412111 0.644877 0.592301 -0.058410
C77   C     C_R   0.810030 0.898864 0.409870 -0.117299
C78   C     C_R   0.689637 0.399006 0.589745 -0.114130
C79   C     C_R   0.310030 0.398864 0.409870 -0.117300
C80   C     C_R   0.053048 0.855356 0.747591 -0.079099
C81   C     C_R   0.944466 0.855902 0.247692 -0.079421
C82   C     C_R   0.553048 0.355356 0.747591 -0.079099
C83   C     C_R   0.444466 0.355902 0.247692 -0.079421
C84   C     C_R   0.884675 0.811868 0.214044 -0.099091
C85   C     C_R   0.111294 0.811223 0.778524 -0.101641
C86   C     C_R   0.384675 0.311868 0.214044 -0.099091
C87   C     C_R   0.587441 0.644946 0.407966 -0.059595
C88   C     C_R   0.611294 0.311223 0.778524 -0.101640
C89   C     C_R   0.184444 0.881764 0.498618 0.114002
C90   C     C_R   0.814929 0.882007 0.500739 0.116992
C91   C     C_R   0.684444 0.381764 0.498618 0.114002
C92   C     C_R   0.314929 0.382006 0.500739 0.116992
C93   C     C_R   0.843834 0.147717 0.410352 -0.145951
C94   C     C_R   0.155061 0.149200 0.589612 -0.155591
C95   C     C_R   0.343834 0.647717 0.410352 -0.145953
C96   C     C_R   0.655061 0.649200 0.589612 -0.155591
C97   C     C_R   0.921876 0.103139 0.195838 -0.097558
C98   C     C_R   0.866060 0.192374 0.501391 0.117086
C99   C     C_R   0.077507 0.106354 0.803001 -0.106147
C100  C     C_R   0.421876 0.603139 0.195838 -0.097558
C101  C     C_R   0.577507 0.606354 0.803001 -0.106147
C102  C     C_R   0.169679 0.101549 0.804655 0.247789
C103  C     C_R   0.830470 0.100858 0.196841 0.237714
C104  C     C_R   0.669679 0.601549 0.804655 0.247789
C105  C     C_R   0.330470 0.600858 0.196841 0.237715
C106  C     C_3   0.768856 0.854478 0.177940 -1.030437
C107  C     C_3   0.228909 0.853322 0.817882 -1.020487
C108  C     C_3   0.268856 0.354478 0.177940 -1.030437
H1    H     H_    0.788161 0.709375 0.715719 0.153440
H2    H     H_    0.132163 0.776619 0.298336 0.192075
H3    H     H_    0.366474 0.282083 0.704591 0.195329
H4    H     H_    0.632163 0.276620 0.298335 0.192076
H5    H     H_    0.726835 0.189388 0.025694 0.165918
H6    H     H_    0.287011 0.086594 0.046847 0.203227
H7    H     H_    0.226835 0.689388 0.025694 0.165918
H8    H     H_    0.787011 0.586594 0.046847 0.203227
H9    H     H_    0.207353 0.704394 0.813954 0.141273
H10   H     H_    0.791810 0.709182 0.191000 0.150156
H11   H     H_    0.707353 0.204394 0.813954 0.141273
H12   H     H_    0.209771 0.702972 0.287183 0.149029
H13   H     H_    0.291810 0.209182 0.191000 0.150156
H14   H     H_    0.816626 0.127459 0.964234 0.151470
H15   H     H_    0.173585 0.202801 0.997214 0.176029
H16   H     H_    0.316626 0.627459 0.964234 0.151469
H17   H     H_    0.673585 0.702801 0.997214 0.176029
H18   H     H_    0.095132 0.905291 0.324912 0.103319
H19   H     H_    0.904609 0.906317 0.674735 0.104122
H20   H     H_    0.595132 0.405291 0.324913 0.103319
H21   H     H_    0.404609 0.406317 0.674735 0.104122
H22   H     H_    0.239191 0.909730 0.670811 0.115752
H23   H     H_    0.288161 0.209375 0.715719 0.153440
H24   H     H_    0.760666 0.909513 0.328914 0.114399
H25   H     H_    0.739191 0.409730 0.670811 0.115752
H26   H     H_    0.260666 0.409513 0.328914 0.114399
H27   H     H_    0.012456 0.838706 0.753684 0.176657
H28   H     H_    0.984568 0.839337 0.240643 0.176627
H29   H     H_    0.512456 0.338706 0.753684 0.176658
H30   H     H_    0.484568 0.339337 0.240643 0.176627
H31   H     H_    0.812892 0.167711 0.327824 0.135833
H32   H     H_    0.184470 0.171219 0.671531 0.139895
H33   H     H_    0.312892 0.667711 0.327824 0.135833
H34   H     H_    0.709771 0.202972 0.287183 0.149029
H35   H     H_    0.684470 0.671219 0.671531 0.139896
H36   H     H_    0.951484 0.098398 0.165424 0.120626
H37   H     H_    0.046614 0.105543 0.831427 0.128351
H38   H     H_    0.451484 0.598398 0.165424 0.120626
H39   H     H_    0.546614 0.605543 0.831427 0.128351
H40   H     H_    0.938898 0.158212 0.677304 0.165956
H41   H     H_    0.060305 0.157621 0.322911 0.167227
H42   H     H_    0.438898 0.658212 0.677304 0.165956
H43   H     H_    0.560305 0.657621 0.322911 0.167227
H44   H     H_    0.668884 0.877675 0.326895 0.186976
H45   H     H_    0.859409 0.868292 0.771915 0.207832
H46   H     H_    0.330588 0.880262 0.672061 0.187628
H47   H     H_    0.168884 0.377675 0.326895 0.186976
H48   H     H_    0.830588 0.380261 0.672061 0.187628
H49   H     H_    0.747883 0.913381 0.171051 0.263637
H50   H     H_    0.740224 0.832751 0.092485 0.260176
H51   H     H_    0.756659 0.815731 0.220910 0.250142
H52   H     H_    0.250267 0.912234 0.823061 0.258568
H53   H     H_    0.257525 0.834145 0.903970 0.264171
H54   H     H_    0.240135 0.812338 0.775405 0.252677
H55   H     H_    0.247883 0.413382 0.171051 0.263637
H56   H     H_    0.138099 0.860626 0.227528 0.209231
H57   H     H_    0.240224 0.332751 0.092485 0.260176
H58   H     H_    0.256659 0.315731 0.220910 0.250142
H59   H     H_    0.750266 0.412234 0.823061 0.258568
H60   H     H_    0.757525 0.334145 0.903970 0.264171
H61   H     H_    0.740135 0.312338 0.775405 0.252677
H62   H     H_    0.972690 0.407275 0.172690 0.392089
H63   H     H_    0.026516 0.409951 0.827967 0.392837
H64   H     H_    0.472690 0.907275 0.172689 0.392089
H65   H     H_    0.526516 0.909952 0.827964 0.392837
H66   H     H_    0.822649 0.789454 0.882392 0.293188
H67   H     H_    0.359409 0.368292 0.771915 0.207832
H68   H     H_    0.765805 0.868144 0.794150 0.251425
H69   H     H_    0.727345 0.775726 0.788311 0.238308
H70   H     H_    0.175075 0.773876 0.117663 0.293824
H71   H     H_    0.226120 0.859485 0.198004 0.258096
H72   H     H_    0.270948 0.770478 0.213343 0.232830
H73   H     H_    0.322649 0.289454 0.882392 0.293188
H74   H     H_    0.265805 0.368144 0.794149 0.251426
H75   H     H_    0.227345 0.275726 0.788312 0.238308
H76   H     H_    0.675076 0.273878 0.117663 0.293825
H77   H     H_    0.726122 0.359486 0.198006 0.258096
H78   H     H_    0.638100 0.360627 0.227529 0.209231
H79   H     H_    0.770949 0.270478 0.213342 0.232830
H80   H     H_    0.960048 0.661874 0.752660 0.379724
H81   H     H_    0.034987 0.666732 0.240371 0.379638
H82   H     H_    0.460048 0.161870 0.752660 0.379726
H83   H     H_    0.534987 0.166731 0.240371 0.379639
H84   H     H_    0.243032 0.064384 0.776930 0.237683
H85   H     H_    0.277583 0.138537 0.882393 0.291880
H86   H     H_    0.267350 0.036337 0.904504 0.259100
H87   H     H_    0.761875 0.039806 0.218723 0.235442
H88   H     H_    0.724813 0.127397 0.143154 0.261123
H89   H     H_    0.866474 0.782083 0.704591 0.195327
H90   H     H_    0.729364 0.041325 0.078861 0.289031
H91   H     H_    0.743032 0.564384 0.776930 0.237683
H92   H     H_    0.777583 0.638537 0.882393 0.291880
H93   H     H_    0.767351 0.536337 0.904504 0.259100
H94   H     H_    0.261875 0.539806 0.218723 0.235442
H95   H     H_    0.224813 0.627397 0.143153 0.261122
H96   H     H_    0.229364 0.541325 0.078861 0.289031
N1    N     N_R   0.888400 0.921830 0.294620 -0.051221
N2    N     N_R   0.874350 0.922400 0.443380 -0.039747
N3    N     N_R   0.625650 0.422400 0.556620 -0.038960
N4    N     N_R   0.374350 0.422400 0.443380 -0.039747
N5    N     N_R   0.054230 0.922730 0.705400 -0.074742
N6    N     N_R   0.945770 0.922730 0.294600 -0.075052
N7    N     N_R   0.554230 0.422730 0.705400 -0.074742
N8    N     N_R   0.445770 0.422730 0.294600 -0.075052
N9    N     N_R   0.873790 0.077030 0.443380 -0.047294
N10   N     N_R   0.126210 0.077030 0.556620 -0.047147
N11   N     N_R   0.373790 0.577030 0.443380 -0.047294
N12   N     N_R   0.111600 0.921830 0.705380 -0.051815
N13   N     N_R   0.626210 0.577030 0.556620 -0.047147
N14   N     N_R   0.945200 0.076700 0.294600 -0.058580
N15   N     N_R   0.054800 0.076700 0.705400 -0.059827
N16   N     N_R   0.445200 0.576700 0.294600 -0.058580
N17   N     N_R   0.554800 0.576700 0.705400 -0.059827
N18   N     N_R   0.111030 0.077600 0.705380 -0.053635
N19   N     N_R   0.888970 0.077600 0.294620 -0.051698
N20   N     N_R   0.611030 0.577600 0.705380 -0.053635
N21   N     N_R   0.388970 0.577600 0.294620 -0.051698
N22   N     N_R   0.919490 0.077280 0.556590 -0.057793
N23   N     N_R   0.388400 0.421830 0.294620 -0.051221
N24   N     N_R   0.080510 0.077280 0.443410 -0.057436
N25   N     N_R   0.419490 0.577280 0.556590 -0.057793
N26   N     N_R   0.580510 0.577280 0.443410 -0.057436
N27   N     N_R   0.611600 0.421830 0.705380 -0.051815
N28   N     N_R   0.079940 0.922160 0.443410 -0.046508
N29   N     N_R   0.920060 0.922160 0.556590 -0.046435
N30   N     N_R   0.579940 0.422160 0.443410 -0.046508
N31   N     N_R   0.420060 0.422160 0.556590 -0.046435
N32   N     N_R   0.125650 0.922400 0.556620 -0.038960
Ni1   Ni    Ni4+2 0.882160 0.999430 0.370180 0.220449
Ni2   Ni    Ni4+2 0.117840 0.999430 0.629820 0.219950
Ni3   Ni    Ni4+2 0.382160 0.499430 0.370180 0.220449
Ni4   Ni    Ni4+2 0.617840 0.499430 0.629820 0.219950
Ni5   Ni    Ni4+2 0.012460 0.999430 0.370180 0.219789
Ni6   Ni    Ni4+2 0.987540 0.999430 0.629820 0.219540
Ni7   Ni    Ni4+2 0.512460 0.499430 0.370180 0.219789
Ni8   Ni    Ni4+2 0.487540 0.499430 0.629820 0.219540
O1    O     O_2   0.033155 0.266316 0.195369 -0.320126
O2    O     O_2   0.465192 0.768416 0.803847 -0.323646
O3    O     O_2   0.503254 0.789878 0.691940 -0.296093
O4    O     O_3   0.475936 0.911240 0.760227 -0.481094
O5    O     O_2   0.099995 0.611729 0.908224 -0.263566
O6    O     O_2   0.068567 0.744096 0.926354 -0.338701
O7    O     O_3   0.990197 0.678732 0.733186 -0.522760
O8    O     O_2   0.897985 0.609179 0.087192 -0.283241
O9    O     O_2   0.924601 0.742606 0.064532 -0.333020
O10   O     O_3   0.004501 0.683085 0.259333 -0.528025
O11   O     O_2   0.599995 0.111728 0.908223 -0.263568
O12   O     O_2   0.995430 0.288050 0.307749 -0.295355
O13   O     O_2   0.568568 0.244096 0.926355 -0.338698
O14   O     O_3   0.490197 0.178733 0.733186 -0.522762
O15   O     O_2   0.397985 0.109179 0.087193 -0.283241
O16   O     O_2   0.424601 0.242605 0.064532 -0.333019
O17   O     O_3   0.504501 0.183086 0.259333 -0.528026
O18   O     O_3   0.023318 0.409295 0.240330 -0.482709
O19   O     O_2   0.965192 0.268415 0.803847 -0.323648
O20   O     O_2   0.003254 0.289879 0.691940 -0.296092
O21   O     O_3   0.975936 0.411240 0.760229 -0.481093
O22   O     O_2   0.533155 0.766316 0.195369 -0.320126
O23   O     O_2   0.495430 0.788050 0.307749 -0.295354
O24   O     O_3   0.523318 0.909295 0.240330 -0.482708
S1    S     S_3+6 0.043746 0.316176 0.284142 -0.041637
S2    S     S_3+6 0.954989 0.317731 0.715583 -0.043560
S3    S     S_3+6 0.543746 0.816176 0.284142 -0.041637
S4    S     S_3+6 0.454989 0.817731 0.715582 -0.043560
S5    S     S_3+6 0.072704 0.690305 0.854361 -0.040801
S6    S     S_3+6 0.921662 0.689596 0.137942 -0.043165
S7    S     S_3+6 0.572704 0.190305 0.854361 -0.040801
S8    S     S_3+6 0.421662 0.189596 0.137942 -0.043165

loop_
_geom_bond_atom_site_label_1
_geom_bond_atom_site_label_2
_ccdc_geom_bond_type
C58   C62   D    
C40   C47   S    
C108  H57   S    
C58   C85   S    
C53   H45   S    
C27   H44   S    
C60   S7    S    
C21   N12   A    
C33   S2    S    
C50   N29   A    
C95   N11   A    
H82   O14   S    
O1    S1    D    
N17   Ni8   S    
C4    H69   S    
C20   C56   S    
C2    C65   A    
C10   H91   S    
C81   C84   A    
C22   C57   S    
C107  H52   S    
C60   C88   S    
C9    H88   S    
C3    H59   S    
C48   C57   S    
C5    H72   S    
O17   S8    S    
C19   C44   A    
C1    C84   A    
C49   H18   S    
C3    C43   S    
C64   H11   S    
N7    N27   A    
C7    H76   S    
C6    H74   S    
C51   N30   A    
C52   H21   S    
H83   O17   S    
C7    H79   S    
N10   Ni2   S    
C17   C104  A    
C8    H84   S    
C55   H56   S    
C38   C42   A    
N17   N20   A    
O2    S4    D    
O22   S3    D    
C18   C42   A    
C20   C40   A    
C43   N27   A    
N22   Ni6   S    
C22   C41   A    
C20   C25   A    
C2    C36   S    
C79   N4    A    
C59   S6    S    
C72   H6    S    
N13   Ni4   S    
N28   N32   A    
C94   H32   S    
C71   H5    S    
C25   C29   A    
C78   H25   S    
N14   Ni5   S    
C56   H67   S    
C17   C101  A    
C78   N3    A    
C54   N22   A    
C62   H9    S    
N26   Ni7   S    
C18   C53   S    
C103  N19   A    
O6    S5    D    
N8    N23   A    
O23   S3    D    
C61   C66   D    
C50   C90   A    
O19   S2    D    
C5    H71   S    
N24   Ni5   S    
C107  H53   S    
C28   C35   A    
C100  H38   S    
C46   C55   S    
C11   C105  S    
C14   C67   S    
O24   S3    S    
C12   C95   A    
C69   C73   D    
H81   O10   S    
N9    N22   A    
C23   C27   A    
N2    N29   A    
C1    N1    A    
C96   N13   A    
C35   S4    S    
C56   H3    S    
C67   C71   D    
C83   N8    A    
C75   H22   S    
C9    C103  S    
C1    C106  S    
C29   H47   S    
C51   C91   A    
C30   H48   S    
C81   N6    A    
C99   H37   S    
C58   S5    S    
C45   C53   S    
C17   C70   S    
C64   C71   S    
C4    H66   S    
C24   C89   S    
C28   H46   S    
C80   H27   S    
C43   C88   A    
C68   H15   S    
C70   H17   S    
C37   C98   S    
C108  H55   S    
C44   C46   S    
C3    H60   S    
C4    C45   S    
C82   H29   S    
C27   C34   A    
O10   S6    S    
C2    C94   A    
C5    H70   S    
N16   Ni7   S    
C21   C85   A    
C77   C90   A    
C94   N10   A    
N5    N12   A    
O13   S7    D    
C6    C47   S    
C6    H73   S    
C93   N9    A    
N28   Ni5   S    
C15   C102  A    
C75   N32   A    
N14   N19   A    
C66   C72   S    
C59   C84   S    
N19   Ni1   S    
C15   C99   A    
N25   Ni8   S    
C75   C89   A    
O16   S8    D    
C3    H61   S    
C13   C96   A    
C69   H16   S    
C26   C91   S    
C106  H50   S    
N18   Ni2   S    
C33   C37   A    
C18   C23   A    
C65   N24   A    
C47   H23   S    
N27   Ni4   S    
C60   C64   D    
C77   H24   S    
C34   C38   A    
N5    Ni6   S    
H80   O7    S    
C35   C39   A    
O21   S2    S    
C97   H36   S    
C70   C74   D    
C80   C85   A    
C93   H31   S    
N13   N26   A    
C81   H28   S    
O4    S4    S    
C32   N23   A    
C76   H42   S    
C68   C72   D    
C32   C86   A    
C13   C87   A    
C4    H68   S    
C79   C92   A    
C66   H13   S    
C48   H34   S    
C8    H85   S    
C62   C73   S    
C11   H95   S    
N1    Ni1   S    
N20   Ni4   S    
N4    N31   A    
C13   C38   S    
C21   C107  S    
C16   C105  A    
N3    Ni4   S    
H65   O4    S    
C47   C56   S    
C99   N15   A    
C95   H33   S    
C6    H75   S    
C105  N21   A    
C12   C76   A    
C55   H2    S    
O15   S8    D    
N21   Ni3   S    
C24   C28   A    
O5    S5    D    
C34   S3    S    
C52   C92   A    
N11   Ni3   S    
C51   H20   S    
C106  H49   S    
C67   H14   S    
C37   C41   A    
N23   Ni3   S    
C36   C40   A    
N10   N24   A    
C9    H90   S    
C102  N18   A    
C14   C97   A    
C54   H40   S    
C82   N7    A    
O12   S1    D    
C19   C55   S    
C63   H10   S    
C79   H26   S    
C108  H58   S    
C101  H39   S    
C25   C92   S    
O20   S2    D    
C30   C33   A    
O14   S7    S    
N11   N25   A    
C59   C63   D    
N7    Ni8   S    
C7    H77   S    
C16   C100  A    
C16   C69   S    
O7    S5    S    
N6    Ni5   S    
C49   C89   A    
C46   H12   S    
C10   H92   S    
N4    Ni3   S    
C9    H87   S    
C26   C30   A    
C39   C44   A    
C63   C74   S    
C78   C91   A    
N8    Ni7   S    
C87   N26   A    
C5    C46   S    
N30   Ni7   S    
N9    Ni1   S    
C73   H7    S    
N15   Ni6   S    
H62   O18   S    
C31   S1    S    
O9    S6    D    
N12   Ni2   S    
C7    C48   S    
C49   N28   A    
C10   C104  S    
C19   C24   A    
C97   N14   A    
C53   H89   S    
H64   O24   S    
C74   H8    S    
N15   N18   A    
C23   C90   S    
O3    S4    D    
C14   C103  A    
O8    S6    D    
N1    N6    A    
C12   C39   S    
C82   C88   A    
C15   C68   S    
C80   N5    A    
C41   C48   S    
N32   Ni2   S    
N16   N21   A    
H63   O21   S    
N2    Ni1   S    
C45   H1    S    
C11   H96   S    
C101  N17   A    
C65   H41   S    
C10   H93   S    
N31   Ni8   S    
C61   C86   S    
C42   C45   S    
C22   C26   A    
C57   H4    S    
N29   Ni6   S    
C83   C86   A    
C104  N20   A    
C100  N16   A    
C29   C31   A    
C32   C108  S    
C107  H54   S    
O11   S7    D    
C76   N25   A    
C61   S8    S    
C31   C36   A    
C54   C98   A    
C57   H78   S    
C87   H43   S    
C50   H19   S    
C77   N2    A    
C8    C102  S    
C93   C98   A    
C11   H94   S    
C83   H30   S    
C106  H51   S    
N3    N30   A    
C8    H86   S    
C96   H35   S    
C52   N31   A    
O18   S1    S    
