data_mof_unit_40590.cif
_audit_creation_date              2012-12-11T15:41:24-0500
_audit_creation_method            fapswitch 2.2
_symmetry_space_group_name_H-M    P1
_symmetry_Int_Tables_number       1
_space_group_crystal_system       triclinic
_cell_length_a                    19.080603
_cell_length_b                    10.960846
_cell_length_c                    18.729821
_cell_angle_alpha                 89.984676
_cell_angle_beta                  90.342442
_cell_angle_gamma                 89.801385
_cell_volume                      3917.0526953

loop_
_atom_site_label
_atom_site_type_symbol
_atom_type_description
_atom_site_fract_x
_atom_site_fract_y
_atom_site_fract_z
_atom_type_partial_charge
C1    C     C_R   0.725816 0.958534 0.854974 0.550685
C2    C     C_R   0.283328 0.519981 0.046739 0.033850
C3    C     C_R   0.760039 0.863342 0.353104 0.546632
C4    C     C_2   0.499589 0.166568 0.922173 -0.115500
C5    C     C_2   0.505414 0.169386 0.080471 -0.115779
C6    C     C_2   0.996032 0.670070 0.920444 -0.112854
C7    C     C_2   0.001949 0.669776 0.078486 -0.106580
C8    C     C_2   0.501837 0.067777 0.040910 -0.166749
C9    C     C_2   0.514343 0.069096 0.963462 -0.160387
C10   C     C_2   0.993874 0.569230 0.038421 -0.158562
C11   C     C_2   0.002871 0.569068 0.960381 -0.159291
C12   C     C_R   0.785191 0.494180 0.061917 0.011146
C13   C     C_R   0.215011 0.020042 0.953261 0.034476
C14   C     C_R   0.214442 0.495953 0.938404 0.010017
C15   C     C_R   0.284124 0.993692 0.061696 0.009470
C16   C     C_R   0.740680 0.923926 0.928460 0.017568
C17   C     C_3   0.592586 0.432697 0.954398 -0.382935
C18   C     C_3   0.407122 0.429545 0.043598 -0.381572
C19   C     C_3   0.087837 0.945679 0.946592 -0.386862
C20   C     C_3   0.924976 0.040420 0.070131 -0.389606
C21   C     C_R   0.809027 0.946786 0.037135 0.048777
C22   C     C_R   0.823739 0.404432 0.950362 -0.158917
C23   C     C_R   0.174876 0.411654 0.051256 -0.152656
C24   C     C_R   0.325178 0.915787 0.947625 -0.153747
C25   C     C_R   0.686602 0.895339 0.044005 -0.162637
C26   C     C_R   0.835020 0.428841 0.022550 -0.160663
C27   C     C_R   0.163860 0.434170 0.978558 -0.156547
C28   C     C_R   0.336271 0.937485 0.020520 -0.158076
C29   C     C_R   0.292180 0.004523 0.139340 0.568607
C30   C     C_R   0.683177 0.889119 0.970381 -0.155025
C31   C     C_3   0.655962 0.570357 0.041505 -0.235471
C32   C     C_3   0.343661 0.573255 0.959041 -0.235967
C33   C     C_3   0.152808 0.066818 0.041721 -0.237366
C34   C     C_3   0.848139 0.063089 0.958274 -0.251020
C35   C     C_3   0.639930 0.542862 0.963280 -0.150064
C36   C     C_3   0.360271 0.541620 0.036803 -0.145973
C37   C     C_3   0.138387 0.048774 0.962111 -0.155550
C38   C     C_3   0.851617 0.061268 0.039249 -0.148419
C39   C     C_R   0.759415 0.435872 0.916878 0.009781
C40   C     C_R   0.207437 0.505170 0.860461 0.569341
C41   C     C_R   0.240202 0.438115 0.083793 0.014273
C42   C     C_R   0.259211 0.940123 0.915508 0.015306
C43   C     C_R   0.750277 0.919815 0.078407 0.010867
C44   C     C_R   0.515366 0.172875 0.417705 0.019931
C45   C     C_R   0.553123 0.175387 0.561565 0.016700
C46   C     C_R   0.011745 0.671092 0.419196 0.019448
C47   C     C_R   0.020927 0.669905 0.566924 0.021819
C48   C     C_R   0.528856 0.283273 0.453022 0.026511
C49   C     C_R   0.546600 0.284305 0.523933 0.018703
C50   C     C_R   0.024257 0.779909 0.456500 0.022778
C51   C     C_R   0.792504 0.505058 0.139519 0.569991
C52   C     C_R   0.027699 0.778178 0.529096 0.036609
C53   C     C_R   0.550624 0.064236 0.524176 -0.155943
C54   C     C_R   0.533043 0.063022 0.451558 -0.160317
C55   C     C_R   0.024306 0.558958 0.529382 -0.152579
C56   C     C_R   0.020780 0.559692 0.454876 -0.155196
C57   C     C_R   0.530143 0.177336 0.851012 0.560466
C58   C     C_R   0.471091 0.177489 0.149863 0.542490
C59   C     C_R   0.029012 0.677751 0.850273 0.545170
C60   C     C_R   0.970463 0.677629 0.149357 0.547943
C61   C     C_3   0.481722 0.392149 0.461412 -0.268469
C62   C     C_R   0.730833 0.550307 0.023821 0.015639
C63   C     C_3   0.499852 0.391388 0.539442 -0.269136
C64   C     C_3   0.985030 0.899513 0.458209 -0.268862
C65   C     C_3   0.989095 0.895269 0.538441 -0.278886
C66   C     C_R   0.761486 0.431169 0.428198 0.018374
C67   C     C_R   0.238242 0.436637 0.570647 0.018846
C68   C     C_R   0.261690 0.933315 0.428412 0.020111
C69   C     C_R   0.740252 0.931601 0.571837 0.018175
C70   C     C_R   0.820936 0.416479 0.471433 0.046966
C71   C     C_R   0.181635 0.393489 0.530885 0.040930
C72   C     C_R   0.320974 0.921526 0.472143 0.043650
C73   C     C_R   0.269022 0.551125 0.976412 0.009647
C74   C     C_R   0.684640 0.884725 0.532428 0.028302
C75   C     C_R   0.816453 0.410800 0.544494 0.019589
C76   C     C_R   0.184198 0.385765 0.457988 0.026765
C77   C     C_R   0.315943 0.914697 0.545029 0.020804
C78   C     C_R   0.685934 0.879384 0.459524 0.026195
C79   C     C_R   0.692765 0.452028 0.535521 -0.169968
C80   C     C_R   0.297254 0.483302 0.459178 -0.169433
C81   C     C_R   0.191442 0.949325 0.535010 -0.165095
C82   C     C_R   0.797100 0.982505 0.459707 -0.167135
C83   C     C_R   0.697328 0.455569 0.461076 -0.175536
C84   C     C_R   0.227548 0.044543 0.024550 0.011467
C85   C     C_R   0.294498 0.489956 0.533882 -0.163988
C86   C     C_R   0.196928 0.955459 0.460694 -0.175347
C87   C     C_R   0.795244 0.987606 0.534539 -0.163637
C88   C     C_3   0.876933 0.321369 0.468515 -0.266553
C89   C     C_3   0.141980 0.277427 0.538910 -0.277655
C90   C     C_3   0.379733 0.831574 0.469384 -0.266949
C91   C     C_3   0.647080 0.766856 0.540442 -0.282252
C92   C     C_3   0.873879 0.317655 0.549136 -0.270964
C93   C     C_3   0.143650 0.268615 0.458459 -0.268773
C94   C     C_3   0.375723 0.826022 0.550010 -0.271718
C95   C     C_R   0.804045 0.951238 0.963012 -0.005729
C96   C     C_3   0.647238 0.760502 0.459814 -0.267734
C97   C     C_R   0.751171 0.418222 0.577429 0.013210
C98   C     C_R   0.244939 0.419650 0.421446 0.017913
C99   C     C_R   0.250281 0.918011 0.577321 0.015730
C100  C     C_R   0.745328 0.917323 0.422223 0.020692
C101  C     C_R   0.739332 0.366861 0.852174 0.541533
C102  C     C_R   0.260503 0.367263 0.148007 0.535243
C103  C     C_R   0.239457 0.868009 0.851716 0.539087
C104  C     C_R   0.761119 0.866722 0.148478 0.541769
C105  C     C_R   0.727084 0.957329 0.646507 0.537989
C106  C     C_R   0.716980 0.520541 0.953153 0.030727
C107  C     C_R   0.273245 0.957164 0.353490 0.554714
C108  C     C_R   0.226476 0.458795 0.645926 0.556060
C109  C     C_R   0.773120 0.456671 0.353369 0.553514
C110  C     C_R   0.564146 0.180873 0.637793 0.571750
C111  C     C_R   0.472130 0.176751 0.354002 0.550898
C112  C     C_R   0.033339 0.676444 0.642417 0.550379
C113  C     C_R   0.972420 0.676620 0.353522 0.553390
C114  C     C_R   0.739520 0.363369 0.646781 0.545184
C115  C     C_R   0.259991 0.363591 0.352978 0.548121
C116  C     C_R   0.239308 0.863074 0.646666 0.555526
Cr1   Cr    Cr6+3 0.769260 0.163750 0.750730 0.995951
Cr2   Cr    Cr6+3 0.385810 0.322400 0.252290 0.997938
Cr3   Cr    Cr6+3 0.114190 0.822400 0.747710 0.994641
Cr4   Cr    Cr6+3 0.885810 0.822400 0.252290 0.996000
Cr5   Cr    Cr6+3 0.230740 0.163750 0.249270 1.000256
Cr6   Cr    Cr6+3 0.269260 0.663750 0.750730 1.003909
Cr7   Cr    Cr6+3 0.730740 0.663750 0.249270 1.001078
Cr8   Cr    Cr6+3 0.612640 0.009910 0.748780 1.004665
Cr9   Cr    Cr6+3 0.387360 0.009910 0.251220 1.003036
Cr10  Cr    Cr6+3 0.112640 0.509910 0.748780 1.003022
Cr11  Cr    Cr6+3 0.887360 0.509910 0.251220 1.001924
Cr12  Cr    Cr6+3 0.614190 0.322400 0.747710 0.997362
H1    H     H_    0.489067 0.981306 0.065572 0.133424
H2    H     H_    0.454264 0.367293 0.573381 0.159913
H3    H     H_    0.015492 0.975659 0.434611 0.124481
H4    H     H_    0.937385 0.882262 0.564346 0.137979
H5    H     H_    0.642559 0.466116 0.559945 0.137356
H6    H     H_    0.342890 0.517950 0.431948 0.118445
H7    H     H_    0.140234 0.958241 0.558503 0.140020
H8    H     H_    0.841274 0.020879 0.431891 0.113020
H9    H     H_    0.650978 0.475875 0.429517 0.124890
H10   H     H_    0.337186 0.532135 0.562766 0.120190
H11   H     H_    0.150690 0.974203 0.428674 0.121951
H12   H     H_    0.536690 0.987444 0.940211 0.142558
H13   H     H_    0.837472 0.031245 0.563164 0.117339
H14   H     H_    0.927017 0.356627 0.447895 0.137866
H15   H     H_    0.088432 0.291057 0.560330 0.131162
H16   H     H_    0.428881 0.872468 0.449781 0.140621
H17   H     H_    0.593766 0.777356 0.563136 0.131483
H18   H     H_    0.858607 0.236009 0.442660 0.134166
H19   H     H_    0.173290 0.205339 0.566221 0.143537
H20   H     H_    0.364449 0.744890 0.442822 0.135535
H21   H     H_    0.680334 0.696381 0.566646 0.145417
H22   H     H_    0.856703 0.228251 0.569520 0.161094
H23   H     H_    0.980055 0.483704 0.063458 0.134557
H24   H     H_    0.174894 0.189899 0.439683 0.173467
H25   H     H_    0.360680 0.734579 0.569549 0.158303
H26   H     H_    0.679624 0.684835 0.439273 0.176593
H27   H     H_    0.921652 0.354406 0.575425 0.126337
H28   H     H_    0.091078 0.278421 0.433181 0.123069
H29   H     H_    0.422308 0.866302 0.576920 0.137141
H30   H     H_    0.594052 0.768513 0.435672 0.123333
H31   H     H_    0.524113 0.253405 0.057101 0.098819
H32   H     H_    0.474055 0.245938 0.944439 0.096081
H33   H     H_    0.021331 0.753611 0.055072 0.094579
H34   H     H_    0.016186 0.483143 0.935333 0.134647
H35   H     H_    0.976647 0.754226 0.943785 0.103280
H36   H     H_    0.862357 0.348104 0.923853 0.135912
H37   H     H_    0.134920 0.361494 0.079377 0.129877
H38   H     H_    0.365917 0.868244 0.918781 0.132456
H39   H     H_    0.640116 0.873101 0.074233 0.127871
H40   H     H_    0.879718 0.386998 0.048471 0.126884
H41   H     H_    0.118492 0.394498 0.953093 0.121506
H42   H     H_    0.383312 0.902048 0.045278 0.123939
H43   H     H_    0.633350 0.864966 0.946668 0.125999
H44   H     H_    0.142877 0.160918 0.060080 0.133444
H45   H     H_    0.930325 0.891728 0.439209 0.173663
H46   H     H_    0.818506 0.142718 0.937421 0.162431
H47   H     H_    0.644163 0.665489 0.056530 0.136494
H48   H     H_    0.353948 0.669783 0.946292 0.132297
H49   H     H_    0.636550 0.501466 0.080243 0.151953
H50   H     H_    0.363630 0.507542 0.918664 0.154742
H51   H     H_    0.131108 0.994338 0.076776 0.151334
H52   H     H_    0.898905 0.044822 0.931339 0.132577
H53   H     H_    0.621120 0.624960 0.933794 0.135764
H54   H     H_    0.379338 0.621901 0.067597 0.140874
H55   H     H_    0.123336 0.135751 0.935279 0.140533
H56   H     H_    0.021617 0.969108 0.561699 0.134214
H57   H     H_    0.823486 0.139268 0.064337 0.150463
H58   H     H_    0.556412 0.978802 0.552140 0.138219
H59   H     H_    0.527080 0.976913 0.424137 0.117345
H60   H     H_    0.027114 0.472964 0.557361 0.125529
H61   H     H_    0.018413 0.474471 0.426054 0.117635
H62   H     H_    0.555181 0.429076 0.998994 0.101469
H63   H     H_    0.561701 0.446096 0.904995 0.178003
H64   H     H_    0.622314 0.345418 0.953313 0.164892
H65   H     H_    0.441017 0.421895 0.996331 0.101100
H66   H     H_    0.441855 0.443062 0.090298 0.172110
H67   H     H_    0.425853 0.369721 0.451802 0.163967
H68   H     H_    0.376838 0.343607 0.048353 0.164640
H69   H     H_    0.041665 0.953036 0.981655 0.101626
H70   H     H_    0.068948 0.958562 0.891299 0.188889
H71   H     H_    0.112727 0.854731 0.954171 0.162138
H72   H     H_    0.946313 0.950899 0.052984 0.149530
H73   H     H_    0.960531 0.114441 0.052547 0.115094
H74   H     H_    0.922565 0.041400 0.129321 0.163514
H75   H     H_    0.527842 0.474934 0.556544 0.124618
H76   H     H_    0.501574 0.473703 0.432684 0.130245
O1    O     O_R   0.784290 0.290360 0.830540 -0.534410
O2    O     O_R   0.456020 0.282110 0.333230 -0.521380
O3    O     O_R   0.043980 0.782110 0.666770 -0.517999
O4    O     O_R   0.956020 0.782110 0.333230 -0.525771
O5    O     O_R   0.679070 0.374030 0.674430 -0.523653
O6    O     O_R   0.320930 0.374030 0.325570 -0.504997
O7    O     O_R   0.179070 0.874030 0.674430 -0.507100
O8    O     O_R   0.820930 0.874030 0.325570 -0.508363
O9    O     O_3   0.665360 0.165350 0.749070 -0.264656
O10   O     O_3   0.334640 0.165350 0.250930 -0.263147
O11   O     O_3   0.165360 0.665350 0.749070 -0.264887
O12   O     O_R   0.215710 0.290360 0.169460 -0.536413
O13   O     O_3   0.834640 0.665350 0.250930 -0.262769
O14   O     O_R   0.762610 0.041070 0.825230 -0.501093
O15   O     O_R   0.237390 0.041070 0.174770 -0.499819
O16   O     O_R   0.262610 0.541070 0.825230 -0.501555
O17   O     O_R   0.737390 0.541070 0.174770 -0.501910
O18   O     O_R   0.667390 0.924160 0.829970 -0.528769
O19   O     O_R   0.332610 0.924160 0.170030 -0.520923
O20   O     O_R   0.167390 0.424160 0.829970 -0.521685
O21   O     O_R   0.832610 0.424160 0.170030 -0.525898
O22   O     O_R   0.553980 0.081420 0.821780 -0.491053
O23   O     O_R   0.284290 0.790360 0.830540 -0.534778
O24   O     O_R   0.446020 0.081420 0.178220 -0.512961
O25   O     O_R   0.053980 0.581420 0.821780 -0.511229
O26   O     O_R   0.946020 0.581420 0.178220 -0.515420
O27   O     O_R   0.543210 0.283170 0.826740 -0.530571
O28   O     O_R   0.456790 0.283170 0.173260 -0.533352
O29   O     O_R   0.043210 0.783170 0.826740 -0.536956
O30   O     O_R   0.956790 0.783170 0.173260 -0.522421
O31   O     O_R   0.678350 0.375000 0.822720 -0.496423
O32   O     O_R   0.321650 0.375000 0.177280 -0.497723
O33   O     O_R   0.178350 0.875000 0.822720 -0.503535
O34   O     O_R   0.715710 0.790360 0.169460 -0.534355
O35   O     O_R   0.821650 0.875000 0.177280 -0.499644
O36   O     O_R   0.785060 0.289300 0.670580 -0.521277
O37   O     O_R   0.214940 0.289300 0.329420 -0.522953
O38   O     O_R   0.285060 0.789300 0.670580 -0.520939
O39   O     O_R   0.714940 0.789300 0.329420 -0.523544
O40   O     O_R   0.763330 0.040090 0.676940 -0.507683
O41   O     O_R   0.236670 0.040090 0.323060 -0.504246
O42   O     O_R   0.263330 0.540090 0.676940 -0.501661
O43   O     O_R   0.736670 0.540090 0.323060 -0.504626
O44   O     O_R   0.668160 0.923110 0.670000 -0.525278
O45   O     O_R   0.554690 0.080440 0.673480 -0.506606
O46   O     O_R   0.331840 0.923110 0.330000 -0.513201
O47   O     O_R   0.168160 0.423110 0.670000 -0.513996
O48   O     O_R   0.831840 0.423110 0.330000 -0.513230
O49   O     O_R   0.445310 0.080440 0.326520 -0.505110
O50   O     O_R   0.054690 0.580440 0.673480 -0.507419
O51   O     O_R   0.945310 0.580440 0.326520 -0.504689
O52   O     O_R   0.543980 0.282110 0.666770 -0.519760

loop_
_geom_bond_atom_site_label_1
_geom_bond_atom_site_label_2
_ccdc_geom_bond_type
C20   C38   S    
C111  O49   A    
C7    C10   D    
C96   H30   S    
C55   C56   A    
C46   C113  S    
C109  O48   A    
C102  O32   A    
C113  O51   A    
C15   C29   S    
C94   H29   S    
C33   H51   S    
C24   C42   A    
C34   H52   S    
C76   C93   S    
C83   H9    S    
C70   C88   S    
C42   C103  S    
C25   C43   A    
C80   C85   A    
Cr7   O39   S    
C15   C28   A    
Cr6   O38   S    
Cr3   O7    S    
C31   H47   S    
C53   C54   A    
C25   H39   S    
Cr3   O11   S    
C32   H48   S    
C13   C84   A    
C26   H40   S    
Cr8   O45   S    
Cr6   O16   S    
C5    C58   S    
C31   H49   S    
C60   O26   A    
C50   C64   S    
C32   C36   S    
C114  O5    A    
C47   C55   A    
Cr9   O46   S    
Cr2   O2    S    
C20   H73   S    
C116  O7    A    
Cr1   O1    S    
C99   C116  S    
C61   H76   S    
C71   C76   A    
Cr12  O5    S    
C9    H12   S    
Cr10  O20   S    
C67   C108  S    
C18   H66   S    
C22   C39   A    
C2    C41   A    
C103  O23   A    
C47   C112  S    
C37   H55   S    
C108  O42   A    
C77   C94   S    
C3    O8    A    
Cr8   O9    S    
C80   H6    S    
C41   C102  S    
C89   H19   S    
Cr11  O48   S    
Cr9   O10   S    
C63   H2    S    
C61   C63   S    
C110  O52   A    
C43   C104  S    
C20   H72   S    
C90   H20   S    
C19   C37   S    
Cr4   O30   S    
C66   C83   A    
C21   C43   A    
C104  O35   A    
C3    C100  S    
Cr3   O29   S    
C96   H26   S    
C21   C38   S    
C88   C92   S    
Cr1   O36   S    
C78   C96   S    
C8    C9    S    
C5    H31   S    
C4    C57   S    
C101  O31   A    
C50   C52   A    
C39   C101  S    
C1    O14   A    
C68   C107  S    
C23   C27   A    
C14   C27   A    
Cr9   O24   S    
C27   H41   S    
C105  O40   A    
C13   C37   S    
C81   C86   A    
C69   C87   A    
C103  O33   A    
Cr12  O9    S    
Cr6   O42   S    
Cr7   O34   S    
Cr12  O31   S    
Cr5   O41   S    
C91   C96   S    
C45   C53   A    
C110  O45   A    
C23   H37   S    
C40   O16   A    
C18   H65   S    
C89   C93   S    
Cr5   O15   S    
C31   C62   S    
C32   H50   S    
C59   O29   A    
C7    H33   S    
C82   C100  A    
Cr4   O8    S    
C101  O1    A    
C88   H14   S    
C13   C42   A    
C79   C97   A    
C90   C94   S    
C92   H22   S    
C49   C63   S    
Cr9   O19   S    
C17   H64   S    
C115  O37   A    
C79   H5    S    
C116  O38   A    
C19   H69   S    
C67   C85   A    
C108  O47   A    
C18   H68   S    
Cr4   O4    S    
C113  O4    A    
Cr1   O14   S    
Cr10  O25   S    
C60   O30   A    
C34   C95   S    
Cr2   O10   S    
Cr10  O11   S    
Cr2   O28   S    
C32   C73   S    
C91   H21   S    
C69   C105  S    
C45   C110  S    
Cr3   O33   S    
C81   C99   A    
C89   H15   S    
C11   H34   S    
C17   H63   S    
C12   C26   A    
C1    O18   A    
C74   C91   S    
Cr8   O44   S    
C104  O34   A    
C53   H58   S    
Cr5   O12   S    
C105  O44   A    
C51   O21   A    
C72   C77   A    
C34   H46   S    
C2    C36   S    
C44   C54   A    
C10   H23   S    
C12   C62   A    
C14   C73   A    
C64   H45   S    
C112  O50   A    
C71   C89   S    
C64   H3    S    
C45   C49   A    
C68   C72   A    
C6    H35   S    
C39   C106  A    
C69   C74   A    
Cr10  O50   S    
C1    C16   S    
C3    O39   A    
C55   H60   S    
C87   H13   S    
Cr9   O49   S    
C44   C48   A    
C111  O2    A    
C15   C84   A    
C2    C73   A    
C63   H75   S    
C75   C92   S    
C68   C86   A    
C86   H11   S    
C28   H42   S    
C48   C49   A    
C40   O20   A    
Cr12  O27   S    
C54   H59   S    
C6    C11   D    
C78   C100  A    
C44   C111  S    
C31   C35   S    
C36   H54   S    
C57   O22   A    
C76   C98   A    
C59   O25   A    
C7    C60   S    
C91   H17   S    
C65   H4    S    
C58   O24   A    
Cr6   O11   S    
Cr11  O13   S    
C114  O36   A    
C72   C90   S    
Cr5   O37   S    
C102  O12   A    
C25   C30   A    
C29   O19   A    
C61   H67   S    
C56   H61   S    
C19   H70   S    
C107  O46   A    
C80   C98   A    
C34   C38   S    
C29   O15   A    
C12   C51   S    
C6    C59   S    
C107  O41   A    
C93   H28   S    
C75   C97   A    
C24   C28   A    
C112  O3    A    
Cr8   O18   S    
C5    C8    D    
Cr8   O22   S    
C47   C52   A    
C62   C106  A    
C17   H62   S    
C35   H53   S    
C38   H57   S    
C21   C95   A    
C46   C50   A    
C19   H71   S    
C23   C41   A    
Cr11  O51   S    
Cr2   O6    S    
Cr5   O10   S    
Cr7   O17   S    
C22   H36   S    
C97   C114  S    
C20   H74   S    
C35   C106  S    
C64   C65   S    
C79   C83   A    
C16   C95   A    
C98   C115  S    
C4    H32   S    
C81   H7    S    
C18   C36   S    
C51   O17   A    
C94   H25   S    
C57   O27   A    
Cr6   O23   S    
C8    H1    S    
C74   C78   A    
Cr12  O52   S    
C77   C99   A    
C92   H27   S    
C67   C71   A    
Cr11  O26   S    
C66   C109  S    
C82   H8    S    
C24   H38   S    
Cr7   O13   S    
C33   C84   S    
C33   C37   S    
C30   H43   S    
Cr7   O43   S    
C58   O28   A    
C10   C11   S    
Cr4   O13   S    
Cr4   O35   S    
C14   C40   S    
Cr1   O40   S    
Cr2   O32   S    
Cr1   O9    S    
Cr3   O3    S    
C66   C70   A    
C109  O43   A    
C22   C26   A    
C46   C56   A    
C70   C75   A    
Cr11  O21   S    
C48   C61   S    
C88   H18   S    
Cr10  O47   S    
C93   H24   S    
C17   C35   S    
C4    C9    D    
C33   H44   S    
C16   C30   A    
C85   H10   S    
C115  O6    A    
C90   H16   S    
C52   C65   S    
C82   C87   A    
C65   H56   S    
