data_mof_unit_20777.cif
_audit_creation_date              2012-12-11T16:08:33-0500
_audit_creation_method            fapswitch 2.2
_symmetry_space_group_name_H-M    P1
_symmetry_Int_Tables_number       1
_space_group_crystal_system       triclinic
_cell_length_a                    12.921871
_cell_length_b                    13.2565
_cell_length_c                    27.73227
_cell_angle_alpha                 95.004647
_cell_angle_beta                  89.891444
_cell_angle_gamma                 118.889779
_cell_volume                      4139.03594174

loop_
_atom_site_label
_atom_site_type_symbol
_atom_type_description
_atom_site_fract_x
_atom_site_fract_y
_atom_site_fract_z
_atom_type_partial_charge
C1    C     C_R   0.626935 0.898594 0.426525 0.544696
C2    C     C_R   0.567047 0.274403 0.221147 0.287159
C3    C     C_R   0.557827 0.265655 0.271056 0.277379
C4    C     C_R   0.660990 0.304827 0.301477 -0.053785
C5    C     C_R   0.679613 0.327362 0.201156 0.035412
C6    C     C_1   0.691615 0.356630 0.151634 0.036556
C7    C     C_1   0.648340 0.288986 0.352671 0.015852
C8    C     C_1   0.701861 0.389207 0.111760 0.021695
C9    C     C_R   0.180986 0.751842 0.348725 -0.032312
C10   C     C_R   0.196174 0.759978 0.298652 -0.057592
C11   C     C_R   0.189031 0.761591 0.197989 -0.012810
C12   C     C_R   0.601059 0.222044 0.440500 0.552829
C13   C     C_R   0.215311 0.683690 0.218382 -0.074207
C14   C     C_R   0.222108 0.683408 0.268541 -0.039497
C15   C     C_R   0.169184 0.750609 0.148213 -0.156400
C16   C     C_R   0.126745 0.816510 0.127687 0.042442
C17   C     C_R   0.200890 0.943819 0.358501 -0.156958
C18   C     C_R   0.182403 0.939617 0.308307 -0.033672
C19   C     C_R   0.186681 0.850010 0.278138 0.042514
C20   C     C_R   0.172367 0.028881 0.287755 0.031699
C21   C     C_R   0.163801 0.026465 0.236580 0.028287
C22   C     C_R   0.157851 0.930551 0.206550 -0.032196
C23   C     C_R   0.267548 0.875608 0.425959 0.574603
C24   C     C_R   0.179151 0.848448 0.227589 0.024197
C25   C     C_R   0.123326 0.908855 0.156373 0.204554
C26   C     C_R   0.205768 0.853044 0.378536 0.029711
C27   C     C_R   0.702283 0.969352 0.348791 0.220635
C28   C     C_R   0.716141 0.952023 0.299833 -0.038793
C29   C     C_R   0.720033 0.924358 0.199315 0.028650
C30   C     C_R   0.788552 0.035093 0.224541 0.270405
C31   C     C_R   0.783278 0.047744 0.274092 -0.060200
C32   C     C_R   0.708634 0.908509 0.148447 -0.013851
C33   C     C_R   0.673967 0.798039 0.126158 -0.041878
C34   C     C_R   0.627131 0.898848 0.564912 0.535460
C35   C     C_R   0.602912 0.759718 0.354694 -0.049044
C36   C     C_R   0.609829 0.740629 0.303759 0.002185
C37   C     C_R   0.664300 0.838805 0.276629 -0.063845
C38   C     C_R   0.567020 0.628099 0.279210 0.328154
C39   C     C_R   0.570246 0.614755 0.228411 0.249117
C40   C     C_R   0.616026 0.712770 0.202039 -0.021464
C41   C     C_R   0.666856 0.825109 0.226043 -0.035367
C42   C     C_R   0.618708 0.700828 0.151976 -0.123941
C43   C     C_R   0.647961 0.873884 0.376321 -0.008998
C44   C     C_R   0.747145 0.307518 0.650056 0.203612
C45   C     C_R   0.604424 0.230348 0.578123 0.520157
C46   C     C_R   0.752648 0.312884 0.701133 0.017916
C47   C     C_R   0.767572 0.339581 0.803841 -0.020862
C48   C     C_R   0.843677 0.310129 0.777760 -0.115989
C49   C     C_R   0.834555 0.292041 0.727051 0.018976
C50   C     C_R   0.778656 0.361822 0.855053 0.203350
C51   C     C_R   0.686782 0.368977 0.880057 0.055595
C52   C     C_R   0.576816 0.340612 0.651721 -0.014472
C53   C     C_R   0.591791 0.363117 0.702868 0.030187
C54   C     C_R   0.673547 0.340359 0.727372 -0.053927
C55   C     C_R   0.527636 0.407575 0.730511 0.287460
C56   C     C_R   0.270586 0.879148 0.563131 0.557654
C57   C     C_R   0.517897 0.395639 0.780720 0.217799
C58   C     C_R   0.590140 0.360738 0.804260 -0.026905
C59   C     C_R   0.677845 0.347899 0.778442 -0.042828
C60   C     C_R   0.582471 0.344588 0.853855 -0.006622
C61   C     C_R   0.647370 0.300846 0.626029 -0.058594
C62   C     C_1   0.209659 0.857882 0.607555 0.041245
C63   C     C_R   0.059195 0.719144 0.710141 0.245050
C64   C     C_R   0.034150 0.704905 0.759156 -0.134462
C65   C     C_R   0.142842 0.914163 0.779902 0.081824
C66   C     C_R   0.167788 0.929325 0.730529 0.162528
C67   C     C_1   0.631380 0.266100 0.394118 0.057108
C68   C     C_R   0.127911 0.831028 0.695932 0.075944
C69   C     C_R   0.077267 0.800405 0.794049 -0.002702
C70   C     C_1   0.053834 0.777905 0.844095 0.036674
C71   C     C_1   0.167902 0.843703 0.646944 0.052898
C72   C     C_1   0.033053 0.758882 0.885779 0.043162
C73   C     C_1   0.643674 0.864641 0.610602 0.061779
C74   C     C_R   0.770306 0.869432 0.726908 0.006589
C75   C     C_R   0.773958 0.864175 0.777379 0.182530
C76   C     C_R   0.556247 0.764997 0.776342 0.219331
C77   C     C_R   0.553678 0.772558 0.725835 0.270313
C78   C     C_R   0.773647 0.349598 0.280875 -0.027645
C79   C     C_R   0.659856 0.824758 0.701493 0.000752
C80   C     C_R   0.666840 0.811635 0.802230 -0.006206
C81   C     C_1   0.671949 0.800056 0.853477 -0.041918
C82   C     C_1   0.652868 0.843284 0.651228 0.091086
C83   C     C_1   0.685467 0.790027 0.895439 0.008301
C84   C     C_R   0.063964 0.772870 0.079732 0.578584
C85   C     C_R   0.716850 0.440657 0.067075 0.551530
C86   C     C_R   0.718024 0.782539 0.079765 0.513655
C87   C     C_R   0.003699 0.735626 0.934999 0.545109
C88   C     C_R   0.709784 0.431780 0.929179 0.592843
C89   C     C_R   0.782485 0.365918 0.230744 0.216014
C90   C     C_R   0.716512 0.776262 0.943024 0.534708
Cr1   Cr    Cr6+3 0.416430 0.829200 0.492370 1.111118
Cr2   Cr    Cr6+3 0.674630 0.087020 0.504170 1.115875
Cr3   Cr    Cr6+3 0.408920 0.083740 0.503490 1.066278
Cr4   Cr    Cr6+3 0.914010 0.832750 0.013970 1.101558
Cr5   Cr    Cr6+3 0.922310 0.578600 0.003000 1.091328
Cr6   Cr    Cr6+3 0.656280 0.574630 0.003870 1.073726
H1    H     H_    0.217451 0.019848 0.382196 0.129740
H2    H     H_    0.836301 0.133631 0.292501 0.178269
H3    H     H_    0.584174 0.615577 0.132755 0.170235
H4    H     H_    0.905691 0.293129 0.796919 0.180417
H5    H     H_    0.982776 0.618443 0.770365 0.113056
H6    H     H_    0.174185 0.681522 0.126128 0.151417
H7    H     H_    0.231002 0.623011 0.194927 0.179815
O1    O     O_R   0.296680 0.802170 0.437540 -0.461251
O2    O     O_R   0.662610 0.183990 0.557860 -0.476194
O3    O     O_R   0.500730 0.201280 0.562180 -0.509861
O4    O     O_R   0.312500 0.978850 0.548170 -0.489889
O5    O     O_3   0.499990 0.999990 0.500010 -0.279455
O6    O     O_R   0.820790 0.857990 0.068830 -0.504838
O7    O     O_R   0.016700 0.827330 0.062850 -0.424171
O8    O     O_R   0.041970 0.673520 0.060040 -0.519485
O9    O     O_R   0.817980 0.483660 0.048840 -0.479778
O10   O     O_R   0.637200 0.461990 0.052510 -0.501217
O11   O     O_R   0.664790 0.681920 0.057970 -0.504161
O12   O     O_R   0.525380 0.838530 0.443500 -0.507701
O13   O     O_R   0.815840 0.852920 0.961840 -0.506078
O14   O     O_R   0.012100 0.822630 0.963670 -0.462568
O15   O     O_R   0.037010 0.668460 0.953040 -0.486498
O16   O     O_R   0.813390 0.478970 0.949660 -0.467165
O17   O     O_R   0.632250 0.456930 0.945520 -0.471768
O18   O     O_R   0.660200 0.677230 0.958780 -0.491723
O19   O     O_3   0.830870 0.661990 0.006950 -0.305921
O20   O     O_R   0.702130 0.995190 0.446810 -0.434393
O21   O     O_R   0.661770 0.181390 0.458760 -0.451778
O22   O     O_R   0.499820 0.198480 0.455280 -0.517332
O23   O     O_R   0.311660 0.976250 0.449080 -0.514934
O24   O     O_R   0.297580 0.804960 0.544440 -0.472425
O25   O     O_R   0.526220 0.841130 0.542590 -0.492571
O26   O     O_R   0.703030 0.997990 0.553710 -0.489913
C91   C     C_2   0.881504 0.372580 0.309780 0.215329
H8    H     H_    0.957287 0.375670 0.291628 0.159460
O27   O     O_2   0.887557 0.387275 0.353958 -0.463467
C92   C     C_2   0.168366 0.126750 0.214357 0.354415
H9    H     H_    0.221221 0.158177 0.183102 0.193364
O28   O     O_2   0.109521 0.171450 0.229164 -0.436817
C93   C     C_2   0.169087 0.122938 0.320274 0.292070
H10   H     H_    0.112458 0.101246 0.350926 0.096583
O29   O     O_2   0.232190 0.224791 0.314266 -0.373441
C94   C     C_2   0.717515 0.999642 0.118016 0.248581
H11   H     H_    0.734303 0.994840 0.079792 0.130897
O30   O     O_2   0.698172 0.077043 0.134594 -0.453153
O31   O     O_3   0.735178 0.079628 0.370003 -0.645174
H12   H     H_    0.709081 0.118175 0.347705 0.315564
O32   O     O_3   0.868089 0.131190 0.202970 -0.597831
H13   H     H_    0.901160 0.104846 0.175497 0.350992
O33   O     O_3   0.529377 0.504878 0.205409 -0.668315
H14   H     H_    0.592140 0.507134 0.184242 0.306684
O34   O     O_3   0.528675 0.533139 0.305475 -0.627063
H15   H     H_    0.496305 0.460255 0.283839 0.409312
O35   O     O_3   0.890434 0.420873 0.209486 -0.651468
H16   H     H_    0.950387 0.478051 0.233956 0.315431
C95   C     C_2   0.548443 0.664527 0.386607 0.329380
H17   H     H_    0.600682 0.662309 0.416677 0.096727
O36   O     O_2   0.443430 0.593495 0.381650 -0.426537
O37   O     O_3   0.876968 0.377431 0.881279 -0.664311
H18   H     H_    0.947052 0.414338 0.861402 0.326652
O38   O     O_3   0.840447 0.311720 0.624265 -0.684973
H19   H     H_    0.843084 0.346386 0.593703 0.354912
C96   C     C_2   0.903447 0.240191 0.703205 0.300845
H20   H     H_    0.869467 0.182767 0.670023 0.178253
O39   O     O_2   0.997745 0.258292 0.721267 -0.472832
C97   C     C_2   0.464982 0.288666 0.876360 0.311580
H21   H     H_    0.385479 0.274414 0.857221 0.165471
O40   O     O_2   0.453900 0.249310 0.915419 -0.457095
O41   O     O_3   0.447779 0.428823 0.807918 -0.720313
H22   H     H_    0.378082 0.413555 0.787369 0.362437
O42   O     O_3   0.481919 0.468297 0.708619 -0.647766
H23   H     H_    0.477785 0.525165 0.733038 0.356906
C98   C     C_2   0.483926 0.351623 0.624822 0.365772
H24   H     H_    0.506316 0.398649 0.592879 0.110813
O43   O     O_2   0.381037 0.302242 0.636351 -0.409608
O44   O     O_3   0.020160 0.624893 0.675730 -0.654253
H25   H     H_    0.973487 0.552936 0.691601 0.342759
O45   O     O_3   0.462847 0.232864 0.193552 -0.634043
H26   H     H_    0.478295 0.230210 0.158653 0.326992
C99   C     C_2   0.187180 0.019555 0.815303 0.306706
H27   H     H_    0.241931 0.104688 0.803385 0.158680
O46   O     O_2   0.162887 0.013981 0.857876 -0.480644
O47   O     O_3   0.233196 0.041282 0.717747 -0.709523
H28   H     H_    0.231007 0.041790 0.682136 0.358822
C100  C     C_2   0.884556 0.924561 0.702062 0.277469
H29   H     H_    0.966544 0.981074 0.722881 0.195755
O48   O     O_2   0.889592 0.905802 0.658475 -0.506429
O49   O     O_3   0.884410 0.909763 0.800757 -0.711777
H30   H     H_    0.878422 0.912212 0.836295 0.356537
O50   O     O_3   0.449280 0.711530 0.798627 -0.697016
H31   H     H_    0.461814 0.715389 0.834017 0.350449
O51   O     O_3   0.448351 0.730862 0.698901 -0.660593
H32   H     H_    0.380262 0.697306 0.719970 0.389660
O52   O     O_3   0.444661 0.215382 0.288038 -0.619381
H33   H     H_    0.446482 0.216662 0.323685 0.331573
C101  C     C_2   0.122333 0.636861 0.368581 0.277795
H34   H     H_    0.105726 0.558965 0.346390 0.134494
O53   O     O_2   0.083935 0.626420 0.409183 -0.427789
C102  C     C_2   0.271808 0.614394 0.288341 0.221193
H35   H     H_    0.308845 0.635537 0.325178 0.159239
O54   O     O_2   0.273562 0.534411 0.263592 -0.416199
O55   O     O_3   0.072954 0.967192 0.136154 -0.681647
H36   H     H_    0.009851 0.963131 0.157666 0.316628

loop_
_geom_bond_atom_site_label_1
_geom_bond_atom_site_label_2
_ccdc_geom_bond_type
C66   C68   A    
C14   C102  S    
O52   H33   S    
C11   C13   A    
C98   H24   S    
C35   C36   A    
C55   O42   S    
Cr1   O1    S    
C85   O9    A    
C63   O44   S    
C74   C100  S    
C53   C54   A    
C45   O3    A    
C46   C49   A    
O41   H22   S    
Cr1   O24   S    
Cr6   O18   S    
C5    C6    S    
C33   C42   A    
C36   C37   A    
C8    C85   S    
C29   C32   A    
Cr5   O9    S    
Cr2   O21   S    
Cr3   O5    S    
C38   C39   A    
Cr4   O14   S    
C65   C69   A    
C31   H2    S    
C57   O41   S    
C58   C60   A    
C15   C16   A    
C11   C24   A    
C16   C84   S    
C27   O31   S    
C30   O32   S    
O49   H30   S    
C18   C19   A    
C56   O24   A    
C45   C61   S    
C23   C26   S    
Cr3   O23   S    
C25   O55   S    
O45   H26   S    
C11   C15   A    
Cr2   O5    S    
O38   H19   S    
C23   O1    A    
C34   O26   A    
C45   O2    A    
C22   C25   A    
C60   C97   S    
C96   O39   D    
O55   H36   S    
C90   O13   A    
C13   H7    S    
C9    C101  S    
C35   C43   A    
C75   C80   A    
C50   O37   S    
C18   C20   A    
C99   O46   D    
Cr5   O15   S    
C21   C22   A    
C85   O10   A    
C44   O38   S    
C98   O43   D    
Cr6   O11   S    
C4    C7    S    
C75   O49   S    
C21   C92   S    
C81   C83   T    
C44   C46   A    
C9    C26   A    
C50   C51   A    
C47   C50   A    
C97   O40   D    
C54   C59   A    
C53   C55   A    
C78   C89   A    
C5    C89   A    
C64   H5    S    
C48   H4    S    
C12   C67   S    
O37   H18   S    
C84   O8    A    
C74   C75   A    
C47   C48   A    
C86   O6    A    
C76   C77   A    
C87   O15   A    
C93   O29   D    
C10   C14   A    
C100  O48   D    
O42   H23   S    
Cr4   O13   S    
O32   H13   S    
C6    C8    T    
C12   O22   A    
Cr5   O16   S    
C58   C59   A    
C100  H29   S    
C47   C59   A    
Cr4   O7    S    
C84   O7    A    
O47   H28   S    
O51   H32   S    
C101  O53   D    
C52   C98   S    
C91   O27   D    
C33   C86   S    
C1    O20   A    
C56   O4    A    
C4    C78   A    
C29   C30   A    
Cr3   O3    S    
C91   H8    S    
C96   H20   S    
C12   O21   A    
C10   C19   A    
C102  H35   S    
C46   C54   A    
C17   C18   A    
C77   C79   A    
C64   C69   A    
O34   H15   S    
C88   O16   A    
C20   C93   S    
C38   O34   S    
C1    C43   S    
C32   C94   S    
C23   O23   A    
Cr4   O19   S    
Cr5   O19   S    
C99   H27   S    
C95   O36   D    
C74   C79   A    
C55   C57   A    
C65   C99   S    
C92   H9    S    
C90   O18   A    
C22   C24   A    
Cr6   O10   S    
C3    O52   S    
C2    C5    A    
C88   O17   A    
C35   C95   S    
C17   C26   A    
C3    C4    A    
C89   O35   S    
C73   C82   T    
C39   C40   A    
C72   C87   S    
C76   O50   S    
O44   H25   S    
O33   H14   S    
C9    C10   A    
C16   C25   A    
C83   C90   S    
C63   C68   A    
C40   C41   A    
C29   C41   A    
C86   O11   A    
O35   H16   S    
Cr1   O5    S    
Cr6   O17   S    
C28   C31   A    
Cr2   O26   S    
C76   C80   A    
C80   C81   S    
C51   C88   S    
C79   C82   S    
C94   H11   S    
C87   O14   A    
C51   C60   A    
C44   C61   A    
C97   H21   S    
C66   O47   S    
Cr4   O6    S    
Cr6   O19   S    
C52   C61   A    
C32   C33   A    
C36   C38   A    
C2    C3    A    
C78   C91   S    
Cr1   O25   S    
Cr5   O8    S    
C42   H3    S    
C101  H34   S    
C94   O30   D    
C57   C58   A    
C30   C31   A    
C28   C37   A    
C68   C71   S    
C48   C49   A    
C39   O33   S    
C40   C42   A    
Cr1   O12   S    
C62   C71   T    
C19   C24   A    
C56   C62   S    
C15   H6    S    
C37   C41   A    
C69   C70   S    
Cr2   O20   S    
Cr3   O22   S    
C2    O45   S    
C34   C73   S    
C7    C67   T    
C63   C64   A    
C27   C43   A    
Cr2   O2    S    
C20   C21   A    
C34   O25   A    
C65   C66   A    
C27   C28   A    
C92   O28   D    
C77   O51   S    
O31   H12   S    
C49   C96   S    
C70   C72   T    
C95   H17   S    
C1    O12   A    
O50   H31   S    
C13   C14   A    
C17   H1    S    
Cr3   O4    S    
C93   H10   S    
C52   C53   A    
C102  O54   D    
