data_mof_unit_55298.cif
_audit_creation_date              2012-12-10T17:59:49-0500
_audit_creation_method            fapswitch 2.2
_symmetry_space_group_name_H-M    P1
_symmetry_Int_Tables_number       1
_space_group_crystal_system       triclinic
_cell_length_a                    10.792137
_cell_length_b                    9.526545
_cell_length_c                    15.890084
_cell_angle_alpha                 90.040856
_cell_angle_beta                  90.137518
_cell_angle_gamma                 90.027162
_cell_volume                      1633.68249513

loop_
_atom_site_label
_atom_site_type_symbol
_atom_type_description
_atom_site_fract_x
_atom_site_fract_y
_atom_site_fract_z
_atom_type_partial_charge
C1    C     C_R   0.262249 0.499964 0.500046 0.732817
C2    C     C_3   0.600596 0.382483 0.951718 0.007952
C3    C     C_3   0.600129 0.389508 0.050978 -0.383754
C4    C     C_1   0.502028 0.497933 0.824886 -0.101960
C5    C     C_1   0.501362 0.498743 0.175047 -0.081887
C6    C     C_1   0.500446 0.499676 0.250556 -0.162370
C7    C     C_R   0.063120 0.417181 0.559786 -0.004962
C8    C     C_R   0.062784 0.582751 0.440439 0.010980
C9    C     C_R   0.934103 0.415570 0.557175 -0.137244
C10   C     C_R   0.933810 0.584561 0.443117 -0.141869
C11   C     C_R   0.870740 0.500087 0.500147 -0.110932
C12   C     C_R   0.127849 0.499904 0.500075 -0.181825
C13   C     C_R   0.423032 0.074281 0.447697 0.000600
C14   C     C_R   0.423047 0.925518 0.447685 0.000958
C15   C     C_R   0.499879 0.499951 0.340181 0.815614
C16   C     C_R   0.576952 0.925725 0.552397 -0.000826
C17   C     C_R   0.576956 0.074497 0.552398 -0.004052
C18   C     C_R   0.737503 0.500029 0.500092 0.803850
C19   C     C_R   0.499944 0.500008 0.659820 0.819907
C20   C     C_3   0.537429 0.643684 0.048644 -0.369186
C21   C     C_3   0.373832 0.454607 0.048374 -0.354199
C22   C     C_3   0.373246 0.457752 0.950959 -0.369869
C23   C     C_3   0.536592 0.643116 0.951309 -0.378007
C24   C     C_1   0.500723 0.499664 0.749404 -0.146005
C25   C     C_3   0.502986 0.496732 0.082901 0.245573
C26   C     C_3   0.504552 0.494233 0.917284 0.165253
Cu1   Cu    Cu3+1 0.500020 0.640660 0.500000 0.959812
Cu2   Cu    Cu3+1 0.500020 0.359340 0.500000 0.957469
H1    H     H_    0.466704 0.720268 0.928487 0.199214
H2    H     H_    0.305028 0.537344 0.928861 0.183056
H3    H     H_    0.638641 0.869803 0.594347 0.133469
H4    H     H_    0.638657 0.130597 0.594343 0.134624
H5    H     H_    0.470317 0.723298 0.072034 0.191027
H6    H     H_    0.301926 0.527837 0.072644 0.173770
H7    H     H_    0.349261 0.347323 0.070489 0.189517
H8    H     H_    0.630939 0.674857 0.071740 0.176146
H9    H     H_    0.341155 0.354753 0.926123 0.185549
H10   H     H_    0.627501 0.679819 0.927112 0.169019
H11   H     H_    0.692830 0.420501 0.075853 0.141619
H12   H     H_    0.581258 0.286128 0.080561 0.216333
H13   H     H_    0.882096 0.352830 0.601766 0.182971
H14   H     H_    0.881597 0.647325 0.398515 0.180966
H15   H     H_    0.361293 0.130204 0.405782 0.131912
H16   H     H_    0.361349 0.869462 0.405739 0.130418
N1    N     N_R   0.500030 0.852070 0.500020 -0.166692
N2    N     N_R   0.500030 0.147930 0.500020 -0.167080
O1    O     O_R   0.319660 0.618740 0.500000 -0.580188
O2    O     O_R   0.319660 0.381260 0.500000 -0.586195
O3    O     O_R   0.500020 0.618840 0.379440 -0.581963
O4    O     O_R   0.500020 0.381160 0.379440 -0.572431
O5    O     O_R   0.680370 0.618830 0.500010 -0.578554
O6    O     O_R   0.680370 0.381170 0.500010 -0.577071
O7    O     O_R   0.500010 0.618730 0.620560 -0.571547
O8    O     O_R   0.500010 0.381270 0.620560 -0.583950
C27   C     C_2   0.731075 0.417102 0.920936 0.310261
H17   H     H_    0.777901 0.510251 0.944173 0.086249
O9    O     O_2   0.785858 0.342023 0.870922 -0.527391
C28   C     C_2   0.565161 0.236228 0.919107 0.432811
H18   H     H_    0.563954 0.217080 0.851731 0.097348
O10   O     O_2   0.537335 0.139744 0.965988 -0.568470
C29   C     C_2   0.127650 0.337492 0.627574 0.389443
H19   H     H_    0.224753 0.355612 0.641299 0.079936
O11   O     O_2   0.072241 0.251253 0.670125 -0.525005
C30   C     C_2   0.126931 0.662330 0.372635 0.354548
H20   H     H_    0.223563 0.642999 0.358334 0.072022
O12   O     O_2   0.071743 0.749857 0.330770 -0.547531

loop_
_geom_bond_atom_site_label_1
_geom_bond_atom_site_label_2
_ccdc_geom_bond_type
C16   N1    A    
C18   O5    A    
C4    C26   S    
C27   H17   S    
C2    C28   S    
C1    O2    A    
C21   H7    S    
C10   H14   S    
C23   H10   S    
C9    C11   A    
C28   O10   D    
C9    H13   S    
C20   C23   S    
C3    C25   S    
C8    C12   A    
Cu2   N2    S    
C30   H20   S    
C19   O7    A    
Cu1   O7    S    
C19   C24   S    
C6    C15   S    
C3    H11   S    
C11   C18   S    
C21   C22   S    
C16   H3    S    
C5    C6    T    
Cu2   O6    S    
Cu1   N1    S    
C13   N2    A    
C1    C12   S    
C1    O1    A    
C8    C30   S    
C5    C25   S    
C20   H5    S    
C23   H1    S    
C19   O8    A    
C14   H16   S    
Cu1   O5    S    
C3    H12   S    
C2    C3    S    
C14   N1    A    
C2    C27   S    
C27   O9    D    
C22   C26   S    
C29   H19   S    
C4    C24   T    
C7    C12   A    
C23   C26   S    
C20   C25   S    
C18   O6    A    
C20   H8    S    
C13   H15   S    
C17   N2    A    
C2    C26   S    
C10   C11   A    
C15   O4    A    
Cu1   O1    S    
Cu1   Cu2   S    
C7    C9    A    
C17   H4    S    
C21   C25   S    
Cu2   O2    S    
Cu2   O8    S    
C21   H6    S    
C22   H2    S    
C28   H18   S    
C13   C14   A    
C22   H9    S    
Cu2   O4    S    
C8    C10   A    
C7    C29   S    
Cu1   O3    S    
C15   O3    A    
C16   C17   A    
C29   O11   D    
C30   O12   D    
