data_mof_unit_28374.cif
_audit_creation_date              2012-12-10T16:49:26-0500
_audit_creation_method            fapswitch 2.2
_symmetry_space_group_name_H-M    P1
_symmetry_Int_Tables_number       1
_space_group_crystal_system       triclinic
_cell_length_a                    19.317757
_cell_length_b                    8.819887
_cell_length_c                    7.517793
_cell_angle_alpha                 102.983864
_cell_angle_beta                  94.658215
_cell_angle_gamma                 94.778658
_cell_volume                      1237.1948447

loop_
_atom_site_label
_atom_site_type_symbol
_atom_type_description
_atom_site_fract_x
_atom_site_fract_y
_atom_site_fract_z
_atom_type_partial_charge
C1    C     C_R   0.497119 0.200283 0.454105 0.850258
C2    C     C_R   0.502880 0.799717 0.545896 0.850260
C3    C     C_2   0.489206 0.033066 0.430659 -0.033346
C4    C     C_2   0.510792 0.966934 0.569341 -0.033348
C5    C     C_R   0.367849 0.499544 0.501228 0.823846
C6    C     C_R   0.632151 0.500455 0.498772 0.823849
C7    C     C_R   0.263287 0.638681 0.577354 0.129923
C8    C     C_R   0.736710 0.361301 0.422652 0.129929
C9    C     C_R   0.191052 0.638383 0.577472 -0.146647
C10   C     C_R   0.808945 0.361594 0.422526 -0.146650
C11   C     C_R   0.146638 0.500393 0.504270 -0.030688
C12   C     C_R   0.853360 0.499595 0.495702 -0.030679
C13   C     C_R   0.175680 0.362293 0.431164 -0.152928
C14   C     C_R   0.824321 0.637712 0.568796 -0.152920
C15   C     C_R   0.247707 0.361402 0.430306 0.126846
C16   C     C_R   0.752294 0.638600 0.569673 0.126849
C17   C     C_R   0.292199 0.499727 0.503918 -0.106731
C18   C     C_R   0.707801 0.500266 0.496080 -0.106737
C19   C     C_R   0.929707 0.499730 0.497516 0.446342
C20   C     C_R   0.070288 0.500257 0.502427 0.446340
Cu1   Cu    Cu3+1 0.507710 0.517380 0.684380 1.102835
Cu2   Cu    Cu3+1 0.492290 0.482620 0.315620 1.102836
H1    H     H_    0.169836 0.746800 0.633514 0.187127
H2    H     H_    0.830161 0.253169 0.366491 0.187126
H3    H     H_    0.142523 0.254248 0.374105 0.185446
H4    H     H_    0.857480 0.745767 0.625822 0.185445
N1    N     N_R   0.027329 0.367091 0.429210 -0.221736
N2    N     N_R   0.972666 0.632888 0.570737 -0.221746
N3    N     N_R   0.958418 0.366788 0.426826 -0.220747
N4    N     N_R   0.041576 0.633193 0.573120 -0.220749
N5    N     N_2   0.480680 0.456420 0.038530 0.010000
N6    N     N_2   0.519320 0.543580 0.961470 0.010000
O1    O     O_R   0.505010 0.286130 0.619770 -0.573748
O2    O     O_R   0.494990 0.713870 0.380230 -0.573746
O3    O     O_R   0.491990 0.256780 0.308370 -0.543587
O4    O     O_R   0.508010 0.743220 0.691630 -0.543589
O5    O     O_R   0.406650 0.514660 0.655750 -0.564302
O6    O     O_R   0.593350 0.485340 0.344250 -0.564301
O7    O     O_R   0.393640 0.485310 0.344340 -0.558271
O8    O     O_R   0.606360 0.514690 0.655660 -0.558271
I1    I     I_    0.324995 0.854879 0.680781 -0.244157
I2    I     I_    0.674999 0.145101 0.319230 -0.244158
I3    I     I_    0.284811 0.145484 0.318830 -0.251440
I4    I     I_    0.715194 0.854524 0.681133 -0.251449
I5    I     I_    0.433644 0.912325 0.169932 -0.140245
I6    I     I_    0.566359 0.087676 0.830080 -0.140240
I7    I     I_    0.396224 0.300626 0.902724 -0.074051
I8    I     I_    0.603780 0.699364 0.097272 -0.074050

loop_
_geom_bond_atom_site_label_1
_geom_bond_atom_site_label_2
_ccdc_geom_bond_type
C7    C17   A    
C2    C4    S    
C6    O6    A    
C20   N4    A    
C15   C17   A    
Cu2   O3    S    
C20   N1    A    
C5    O5    A    
N1    N3    A    
C9    C11   A    
C16   I4    S    
N5    N6    D    
C2    O2    A    
N2    N4    A    
C15   I3    S    
Cu1   O4    S    
N5    I7    S    
Cu1   Cu2   S    
C14   H4    S    
C19   N2    A    
N6    I8    S    
C13   H3    S    
Cu1   O8    S    
C10   C12   A    
C6    C18   S    
Cu2   O7    S    
C12   C19   S    
C8    C10   A    
C12   C14   A    
C6    O8    A    
C13   C15   A    
Cu2   O2    S    
Cu1   N6    S    
C14   C16   A    
C11   C20   S    
C5    C17   S    
Cu2   N5    S    
C1    O1    A    
C3    C4    D    
C19   N3    A    
C11   C13   A    
Cu1   O1    S    
C1    O3    A    
Cu1   O5    S    
C16   C18   A    
C2    O4    A    
C7    C9    A    
C5    O7    A    
C9    H1    S    
C4    I6    S    
C10   H2    S    
C3    I5    S    
C8    C18   A    
C7    I1    S    
C8    I2    S    
C1    C3    S    
Cu2   O6    S    
