data_mof_unit_64097.cif
_audit_creation_date              2012-12-10T18:54:03-0500
_audit_creation_method            fapswitch 2.2
_symmetry_space_group_name_H-M    P1
_symmetry_Int_Tables_number       1
_space_group_crystal_system       triclinic
_cell_length_a                    19.411081
_cell_length_b                    19.37783
_cell_length_c                    19.407821
_cell_angle_alpha                 84.719292
_cell_angle_beta                  95.460014
_cell_angle_gamma                 90.414655
_cell_volume                      7236.17407806

loop_
_atom_site_label
_atom_site_type_symbol
_atom_type_description
_atom_site_fract_x
_atom_site_fract_y
_atom_site_fract_z
_atom_type_partial_charge
C1    C     C_R   0.311510 0.491937 0.491811 0.507490
C2    C     C_2   0.494829 0.984544 0.467805 0.013368
C3    C     C_2   0.521469 0.016533 0.523267 0.008989
C4    C     C_R   0.688334 0.508178 0.507678 0.505079
C5    C     C_R   0.509811 0.236021 0.512390 0.041066
C6    C     C_R   0.764287 0.508584 0.514488 0.037596
C7    C     C_R   0.798957 0.449778 0.498167 -0.141301
C8    C     C_R   0.870694 0.446719 0.505941 -0.136157
C9    C     C_R   0.909190 0.502478 0.530048 0.021762
C10   C     C_R   0.875197 0.561245 0.546766 -0.105284
C11   C     C_R   0.803138 0.565039 0.538784 0.032001
C12   C     C_R   0.495126 0.908886 0.469094 0.027190
C13   C     C_R   0.123799 0.521896 0.428276 0.031033
C14   C     C_R   0.195789 0.524987 0.432246 -0.113759
C15   C     C_R   0.203365 0.444802 0.536402 -0.130425
C16   C     C_R   0.509514 0.491282 0.689209 0.503610
C17   C     C_R   0.131631 0.441918 0.532850 -0.096644
C18   C     C_R   0.091583 0.481529 0.479836 0.062154
C19   C     C_2   0.985209 0.500296 0.534635 0.085455
C20   C     C_2   0.016193 0.482252 0.479891 -0.075219
C21   C     C_R   0.235931 0.487278 0.486816 0.017957
C22   C     C_R   0.487123 0.511723 0.234923 0.006260
C23   C     C_R   0.432726 0.873233 0.458060 -0.118693
C24   C     C_R   0.547963 0.500574 0.204185 -0.151482
C25   C     C_R   0.547406 0.503836 0.132553 -0.135058
C26   C     C_R   0.485743 0.517666 0.089952 0.025428
C27   C     C_R   0.424215 0.530498 0.119995 0.113453
C28   C     C_R   0.490734 0.507400 0.310967 0.505133
C29   C     C_R   0.424723 0.526917 0.192544 0.086489
C30   C     C_R   0.459253 0.454541 0.870561 0.091160
C31   C     C_R   0.457396 0.461234 0.798592 -0.092736
C32   C     C_R   0.577426 0.499655 0.805524 0.025993
C33   C     C_R   0.579604 0.493090 0.878292 0.028188
C34   C     C_R   0.432287 0.801100 0.464373 -0.152695
C35   C     C_R   0.520207 0.471917 0.910652 0.019457
C36   C     C_2   0.485464 0.517324 0.014272 -0.137386
C37   C     C_2   0.521542 0.470381 0.986205 -0.130132
C38   C     C_R   0.515265 0.484928 0.765434 -0.012892
C39   C     C_R   0.507393 0.311740 0.508082 0.506483
C40   C     C_R   0.492575 0.688424 0.490723 0.528110
C41   C     C_R   0.494212 0.764113 0.482331 0.080581
C42   C     C_R   0.557520 0.800000 0.490516 0.093509
C43   C     C_R   0.557512 0.872282 0.483043 -0.099628
C44   C     C_R   0.455552 0.123536 0.529703 -0.096695
C45   C     C_R   0.450658 0.195453 0.524747 0.029203
C46   C     C_R   0.572690 0.203408 0.504926 -0.139382
C47   C     C_R   0.577009 0.131461 0.510093 -0.115678
C48   C     C_R   0.518341 0.091717 0.522030 0.031278
Cl1   Cl    Cl    0.075570 0.571904 0.360215 -0.093033
Cl2   Cl    Cl    0.765035 0.643060 0.556456 -0.054041
Cl3   Cl    Cl    0.368503 0.231730 0.530179 -0.062940
Cl4   Cl    Cl    0.653887 0.523148 0.766252 -0.036047
Cl5   Cl    Cl    0.345413 0.537506 0.228370 -0.022767
Cl6   Cl    Cl    0.656480 0.513004 0.929149 -0.082147
Cl7   Cl    Cl    0.555278 0.970979 0.602161 -0.091709
Cl8   Cl    Cl    0.456692 0.031941 0.391596 -0.087870
H1    H     H_    0.625641 0.106778 0.503835 0.120779
H2    H     H_    0.409894 0.448536 0.768358 0.162217
H3    H     H_    0.554294 0.432422 0.018243 0.132697
H4    H     H_    0.453056 0.554356 0.980552 0.129455
H5    H     H_    0.595552 0.495813 0.110413 0.127692
H6    H     H_    0.618633 0.233628 0.495704 0.130547
H7    H     H_    0.384276 0.901204 0.446467 0.128457
H8    H     H_    0.410078 0.092247 0.538138 0.123199
H9    H     H_    0.383417 0.774150 0.457015 0.130975
H10   H     H_    0.606123 0.899934 0.489301 0.115879
H11   H     H_    0.646440 0.778708 0.551422 0.239410
H12   H     H_    0.770553 0.405538 0.480094 0.137628
H13   H     H_    0.653113 0.778331 0.465251 0.224090
H14   H     H_    0.016145 0.572082 0.601063 0.233031
H15   H     H_    0.008572 0.490510 0.638822 0.233769
H16   H     H_    0.349550 0.503799 0.046932 0.230259
H17   H     H_    0.365995 0.590194 0.045435 0.229202
H18   H     H_    0.379613 0.467657 0.928652 0.230291
H19   H     H_    0.413133 0.386323 0.937085 0.244351
H20   H     H_    0.220190 0.557280 0.392969 0.146918
H21   H     H_    0.233221 0.414588 0.578505 0.143343
H22   H     H_    0.985273 0.472975 0.431918 0.104838
H23   H     H_    0.904505 0.605285 0.563893 0.114419
H24   H     H_    0.896288 0.400672 0.493243 0.112903
H25   H     H_    0.107217 0.409489 0.572030 0.136608
H26   H     H_    0.596461 0.489825 0.235736 0.143099
N1    N     N_3   0.621866 0.763315 0.505014 -0.592710
N2    N     N_3   0.025498 0.519928 0.595778 -0.621344
N3    N     N_3   0.360249 0.544749 0.077786 -0.619711
N4    N     N_3   0.398884 0.428947 0.901696 -0.627688
O1    O     O_3   0.500000 0.500000 0.500000 -0.451948
O2    O     O_R   0.467830 0.341070 0.546160 -0.529500
O3    O     O_R   0.450560 0.655630 0.450550 -0.554225
O4    O     O_R   0.545840 0.347670 0.467560 -0.546842
O5    O     O_R   0.535760 0.655640 0.535740 -0.502638
O6    O     O_R   0.545870 0.536170 0.656040 -0.526537
O7    O     O_R   0.450550 0.545430 0.340370 -0.532524
O8    O     O_R   0.347960 0.451240 0.536460 -0.543397
O9    O     O_R   0.655630 0.467150 0.467130 -0.553524
O10   O     O_R   0.340780 0.536140 0.450970 -0.546918
O11   O     O_R   0.655640 0.545460 0.545430 -0.521503
O12   O     O_R   0.467850 0.451260 0.656340 -0.549851
O13   O     O_R   0.535740 0.467130 0.347260 -0.542202
Zn1   Zn    Zn3+2 0.558310 0.558310 0.558290 0.973230
Zn2   Zn    Zn3+2 0.446830 0.436990 0.558720 0.946207
Zn3   Zn    Zn3+2 0.558290 0.446420 0.446420 0.935802
Zn4   Zn    Zn3+2 0.436570 0.558290 0.436570 0.948089

loop_
_geom_bond_atom_site_label_1
_geom_bond_atom_site_label_2
_ccdc_geom_bond_type
C1    C21   S    
C22   C29   A    
C27   C29   A    
C41   C42   A    
C19   C20   D    
C2    C12   S    
O7    Zn4   S    
H16   N3    S    
C7    C8    A    
C44   H8    S    
H11   N1    S    
C12   C23   A    
O6    Zn1   S    
C26   C27   A    
C13   C18   A    
C46   H6    S    
C31   H2    S    
C36   C37   D    
C35   C37   S    
H15   N2    S    
C12   C43   A    
C43   H10   S    
C30   C31   A    
C45   Cl3   S    
C4    O9    A    
C3    C48   S    
C27   N3    S    
C24   H26   S    
O4    Zn3   S    
C7    H12   S    
O1    Zn2   S    
C3    Cl7   S    
C9    C19   S    
C32   Cl4   S    
O8    Zn2   S    
C1    O8    A    
C32   C38   A    
O5    Zn1   S    
C30   N4    S    
H14   N2    S    
C9    C10   A    
C39   O4    A    
C17   H25   S    
O9    Zn3   S    
C22   C24   A    
C23   H7    S    
C22   C28   S    
C13   C14   A    
O3    Zn4   S    
C34   C41   A    
C39   O2    A    
C34   H9    S    
O2    Zn2   S    
C24   C25   A    
C4    C6    S    
C6    C11   A    
C8    C9    A    
C25   C26   A    
C5    C45   A    
C28   O7    A    
C14   H20   S    
H13   N1    S    
C47   H1    S    
O1    Zn3   S    
H19   N4    S    
C47   C48   A    
C23   C34   A    
C17   C18   A    
C25   H5    S    
H18   N4    S    
H17   N3    S    
C37   H3    S    
O1    Zn4   S    
C30   C35   A    
C28   O13   A    
C26   C36   S    
C40   C41   S    
C16   O6    A    
C5    C39   S    
C40   O3    A    
C13   Cl1   S    
C42   C43   A    
C19   N2    S    
O11   Zn1   S    
C44   C45   A    
C14   C21   A    
O1    Zn1   S    
C33   Cl6   S    
C15   C17   A    
C46   C47   A    
C42   N1    S    
C36   H4    S    
C10   H23   S    
C6    C7    A    
O12   Zn2   S    
C5    C46   A    
C31   C38   A    
C20   H22   S    
C32   C33   A    
C2    C3    D    
C11   Cl2   S    
C2    Cl8   S    
C16   O12   A    
C15   H21   S    
C29   Cl5   S    
C1    O10   A    
C33   C35   A    
C18   C20   S    
C40   O5    A    
C10   C11   A    
C15   C21   A    
O13   Zn3   S    
O10   Zn4   S    
C8    H24   S    
C4    O11   A    
C44   C48   A    
C16   C38   S    
