data_mof_unit_30402.cif
_audit_creation_date              2012-10-26T21:22:00-0400
_audit_creation_method            fapswitch 2.2
_symmetry_space_group_name_H-M    P1
_symmetry_Int_Tables_number       1
_space_group_crystal_system       triclinic
_cell_length_a                    17.94222
_cell_length_b                    18.703884
_cell_length_c                    11.83195
_cell_angle_alpha                 90.097025
_cell_angle_beta                  78.115322
_cell_angle_gamma                 89.878855
_cell_volume                      3885.54176144

loop_
_atom_site_label
_atom_site_type_symbol
_atom_type_description
_atom_site_fract_x
_atom_site_fract_y
_atom_site_fract_z
_atom_type_partial_charge
C1    C     C_R   0.398994 0.099220 0.520570 0.542974
C2    C     C_R   0.463292 0.992976 0.034578 0.005865
C3    C     C_R   0.035433 0.487650 0.965917 0.006150
C4    C     C_R   0.962969 0.491694 0.034873 0.004636
C5    C     C_R   0.410077 0.991166 0.859401 0.027437
C6    C     C_R   0.588285 0.982569 0.141147 0.029695
C7    C     C_R   0.910088 0.490283 0.859167 0.029512
C8    C     C_R   0.088388 0.483110 0.141174 0.029668
C9    C     C_R   0.399987 0.989757 0.979957 -0.187447
C10   C     C_R   0.598069 0.978448 0.020656 -0.186741
C11   C     C_R   0.899836 0.487870 0.979844 -0.187452
C12   C     C_R   0.601522 0.901327 0.479512 0.536754
C13   C     C_R   0.097915 0.478325 0.020904 -0.186366
C14   C     C_R   0.544232 0.001083 0.844361 0.148900
C15   C     C_R   0.456602 0.008075 0.154778 0.149461
C16   C     C_R   0.043877 0.500492 0.844947 0.148755
C17   C     C_R   0.956127 0.506418 0.155299 0.148050
C18   C     C_R   0.659366 0.154087 0.467761 0.000949
C19   C     C_R   0.347129 0.840735 0.529122 0.003285
C20   C     C_R   0.340448 0.153886 0.532607 0.002739
C21   C     C_R   0.661510 0.848242 0.468523 -0.000128
C22   C     C_R   0.155761 0.657657 0.467445 0.003281
C23   C     C_R   0.601106 0.099150 0.479551 0.538689
C24   C     C_R   0.838527 0.348189 0.531457 -0.001501
C25   C     C_R   0.839995 0.653455 0.532454 0.003300
C26   C     C_R   0.162027 0.348758 0.468678 -0.000712
C27   C     C_R   0.286456 0.738593 0.634042 -0.141565
C28   C     C_R   0.765148 0.216717 0.349112 -0.141584
C29   C     C_R   0.774010 0.792265 0.355000 -0.141578
C30   C     C_R   0.227872 0.209837 0.646243 -0.141177
C31   C     C_R   0.731384 0.287018 0.649162 -0.141494
C32   C     C_R   0.218448 0.758387 0.359571 -0.140301
C33   C     C_R   0.276152 0.294583 0.356642 -0.141364
C34   C     C_R   0.400190 0.899850 0.519960 0.539269
C35   C     C_R   0.728503 0.710577 0.647089 -0.141125
C36   C     C_R   0.335471 0.796409 0.626669 -0.135060
C37   C     C_R   0.708755 0.164989 0.360560 -0.135752
C38   C     C_R   0.715223 0.841643 0.364487 -0.134415
C39   C     C_R   0.285519 0.159162 0.635604 -0.135195
C40   C     C_R   0.789175 0.337270 0.638631 -0.135460
C41   C     C_R   0.166829 0.702236 0.369972 -0.132842
C42   C     C_R   0.216864 0.343427 0.365650 -0.134850
C43   C     C_R   0.786088 0.659828 0.636391 -0.134878
C44   C     C_R   0.309212 0.827401 0.439237 -0.132387
C45   C     C_R   0.898833 0.599074 0.520572 0.540045
C46   C     C_R   0.665998 0.195822 0.563116 -0.136208
C47   C     C_R   0.666125 0.804923 0.562812 -0.139045
C48   C     C_R   0.338734 0.200524 0.441270 -0.141606
C49   C     C_R   0.830001 0.308580 0.434758 -0.138015
C50   C     C_R   0.197700 0.668807 0.552787 -0.137343
C51   C     C_R   0.165999 0.304713 0.562386 -0.138917
C52   C     C_R   0.837064 0.698808 0.439975 -0.139293
C53   C     C_R   0.258543 0.770762 0.447297 0.049903
C54   C     C_R   0.723108 0.246812 0.552928 0.048782
C55   C     C_R   0.724205 0.754792 0.553588 0.047066
C56   C     C_R   0.101654 0.401453 0.479518 0.539056
C57   C     C_R   0.280233 0.250197 0.450066 0.044600
C58   C     C_R   0.772950 0.257498 0.444973 0.047323
C59   C     C_R   0.247649 0.725767 0.545023 0.050979
C60   C     C_R   0.224469 0.255015 0.553529 0.046787
C61   C     C_R   0.778793 0.748691 0.449046 0.046098
C62   C     C_3   0.386548 0.052211 0.208130 -0.200613
C63   C     C_3   0.321072 0.008452 0.279506 -0.283101
C64   C     C_3   0.245611 0.049089 0.298004 -0.470013
C65   C     C_3   0.620055 0.035011 0.786991 -0.204401
C66   C     C_3   0.677338 0.983918 0.712449 -0.269249
C67   C     C_R   0.100573 0.599742 0.479484 0.538497
C68   C     C_3   0.759351 0.999783 0.721759 -0.477487
C69   C     C_3   0.884125 0.547360 0.210595 -0.201954
C70   C     C_3   0.821384 0.501158 0.283663 -0.276063
C71   C     C_3   0.742865 0.535398 0.294501 -0.472660
C72   C     C_3   0.118627 0.535340 0.788638 -0.210643
C73   C     C_3   0.175946 0.485039 0.711899 -0.270700
C74   C     C_3   0.257769 0.497339 0.725906 -0.480478
C75   C     C_R   0.898343 0.401443 0.520405 0.537490
C76   C     C_R   0.535749 0.988379 0.965502 0.004850
Cu1   Cu    Cu3+1 0.507800 1.000000 0.383250 0.921724
Cu2   Cu    Cu3+1 0.492200 1.000000 0.616750 0.916724
Cu3   Cu    Cu3+1 0.007800 0.500000 0.383250 0.917584
Cu4   Cu    Cu3+1 0.992200 0.500000 0.616750 0.920217
H1    H     H_    0.636743 0.974190 0.180848 0.120397
H2    H     H_    0.868221 0.316824 0.352011 0.121332
H3    H     H_    0.880313 0.695856 0.361434 0.102297
H4    H     H_    0.123183 0.308567 0.641610 0.117014
H5    H     H_    0.704288 0.133100 0.285743 0.126637
H6    H     H_    0.365163 0.805739 0.696293 0.130906
H7    H     H_    0.286488 0.123404 0.707229 0.123233
H8    H     H_    0.712445 0.875376 0.291129 0.118090
H9    H     H_    0.135027 0.694180 0.302493 0.129818
H10   H     H_    0.794736 0.368040 0.714086 0.122338
H11   H     H_    0.787885 0.624983 0.708835 0.123048
H12   H     H_    0.360962 0.988098 0.819769 0.125223
H13   H     H_    0.214572 0.377779 0.292817 0.118452
H14   H     H_    0.693586 0.279334 0.732338 0.099839
H15   H     H_    0.226242 0.792521 0.284133 0.100452
H16   H     H_    0.318396 0.291256 0.276838 0.100720
H17   H     H_    0.687069 0.714742 0.727643 0.102525
H18   H     H_    0.278407 0.704397 0.709444 0.098182
H19   H     H_    0.802938 0.224355 0.265933 0.102298
H20   H     H_    0.815397 0.787982 0.274411 0.099960
H21   H     H_    0.185562 0.213051 0.725989 0.102926
H22   H     H_    0.342342 0.986539 0.029764 0.096957
H23   H     H_    0.136999 0.475427 0.180789 0.124025
H24   H     H_    0.654640 0.967324 0.971220 0.098434
H25   H     H_    0.842222 0.483266 0.029419 0.097215
H26   H     H_    0.154489 0.467439 0.971420 0.099056
H27   H     H_    0.250149 0.100717 0.342398 0.169506
H28   H     H_    0.229254 0.059447 0.213929 0.146621
H29   H     H_    0.200199 0.016677 0.352407 0.143992
H30   H     H_    0.314565 0.957480 0.234274 0.138509
H31   H     H_    0.332375 0.995998 0.365391 0.206085
H32   H     H_    0.402283 0.100247 0.250350 0.160866
H33   H     H_    0.363993 0.079783 0.139081 0.101002
H34   H     H_    0.861073 0.486953 0.819346 0.119091
H35   H     H_    0.774205 0.055888 0.695842 0.157636
H36   H     H_    0.766959 0.991231 0.811543 0.144376
H37   H     H_    0.798704 0.963368 0.663510 0.151131
H38   H     H_    0.664223 0.927509 0.738431 0.165276
H39   H     H_    0.674916 0.990806 0.620485 0.197430
H40   H     H_    0.611289 0.084867 0.743785 0.156709
H41   H     H_    0.647608 0.059141 0.853755 0.101797
H42   H     H_    0.742160 0.589561 0.333433 0.165506
H43   H     H_    0.727703 0.539565 0.208340 0.146221
H44   H     H_    0.699449 0.501929 0.350886 0.147867
H45   H     H_    0.626475 0.189302 0.644871 0.105171
H46   H     H_    0.820623 0.447234 0.244252 0.151188
H47   H     H_    0.831088 0.495031 0.372071 0.207303
H48   H     H_    0.897752 0.596303 0.252408 0.158778
H49   H     H_    0.859554 0.573882 0.142688 0.100867
H50   H     H_    0.274941 0.553642 0.705809 0.145391
H51   H     H_    0.263499 0.484902 0.815413 0.145404
H52   H     H_    0.296861 0.461737 0.665700 0.153016
H53   H     H_    0.161207 0.428281 0.733269 0.170886
H54   H     H_    0.175144 0.494610 0.619913 0.193060
H55   H     H_    0.105990 0.585063 0.748472 0.158536
H56   H     H_    0.318545 0.861258 0.363643 0.106718
H57   H     H_    0.146632 0.559658 0.854762 0.102463
H58   H     H_    0.382759 0.198330 0.363569 0.103898
H59   H     H_    0.624182 0.809737 0.642838 0.116102
H60   H     H_    0.192782 0.633025 0.624541 0.100016
N1    N     N_R   0.519530 1.000000 0.207810 -0.223003
N2    N     N_R   0.480470 1.000000 0.792190 -0.223337
N3    N     N_R   0.019530 0.500000 0.207810 -0.223974
N4    N     N_R   0.980470 0.500000 0.792190 -0.222474
O1    O     O_R   0.430030 0.075530 0.417420 -0.523259
O2    O     O_R   0.583140 0.924490 0.385390 -0.506668
O3    O     O_R   0.583140 0.075510 0.385390 -0.504698
O4    O     O_R   0.416860 0.924490 0.614610 -0.510201
O5    O     O_R   0.916860 0.575510 0.614610 -0.502319
O6    O     O_R   0.083140 0.424490 0.385390 -0.506102
O7    O     O_R   0.083140 0.575510 0.385390 -0.504981
O8    O     O_R   0.916860 0.424490 0.614610 -0.507292
O9    O     O_R   0.569970 0.924470 0.582580 -0.514817
O10   O     O_R   0.569970 0.075530 0.582580 -0.523292
O11   O     O_R   0.430030 0.924470 0.417420 -0.507798
O12   O     O_R   0.930030 0.575530 0.417420 -0.525897
O13   O     O_R   0.069970 0.424470 0.582580 -0.512847
O14   O     O_R   0.069970 0.575530 0.582580 -0.520211
O15   O     O_R   0.930030 0.424470 0.417420 -0.512223
O16   O     O_R   0.416860 0.075510 0.614610 -0.502326

loop_
_geom_bond_atom_site_label_1
_geom_bond_atom_site_label_2
_ccdc_geom_bond_type
C70   H47   S    
C44   H56   S    
C66   C68   S    
C14   N2    A    
C27   H18   S    
C17   C69   S    
C8    C13   A    
C74   H52   S    
C42   H13   S    
C73   C74   S    
C46   H45   S    
C41   H9    S    
C16   C72   S    
C39   H7    S    
C12   O9    A    
C25   C43   A    
C53   C59   A    
C48   C57   A    
C34   O11   A    
C7    C11   A    
C62   C63   S    
C50   C59   A    
C7    H34   S    
C71   H43   S    
C16   N4    A    
C18   C37   A    
C19   C36   A    
Cu2   N2    S    
Cu3   O15   S    
C50   H60   S    
C22   C41   A    
C75   O15   A    
C31   C40   A    
C12   O2    A    
C71   H42   S    
Cu3   O12   S    
C15   N1    A    
C34   O4    A    
C44   C53   A    
C65   H40   S    
Cu3   N3    S    
C21   C38   A    
C69   H48   S    
C9    H22   S    
Cu4   N4    S    
C30   C60   A    
C29   C38   A    
C11   H25   S    
C32   C41   A    
C70   C71   S    
C65   H41   S    
C8    N3    A    
C35   C43   A    
Cu1   O3    S    
C3    C13   A    
Cu2   O4    S    
C22   C50   A    
C70   H46   S    
C6    H1    S    
C74   H51   S    
C10   C76   A    
C18   C46   A    
C7    N4    A    
C64   H28   S    
Cu4   O5    S    
C5    N2    A    
C29   C61   A    
C67   O7    A    
C18   C23   S    
C71   H44   S    
C62   H33   S    
C17   N3    A    
Cu1   O2    S    
C20   C39   A    
Cu2   O10   S    
C57   C60   A    
C36   H6    S    
Cu1   Cu2   S    
C23   O3    A    
C12   C21   S    
C35   C55   A    
C43   H11   S    
C49   C58   A    
C63   C64   S    
C38   H8    S    
C4    C11   A    
C14   C76   A    
C49   H2    S    
C52   H3    S    
C5    C9    A    
C56   O13   A    
C68   H37   S    
Cu4   O14   S    
C75   O8    A    
C46   C54   A    
C24   C75   S    
C45   O12   A    
C6    N1    A    
C2    C15   A    
C20   C48   A    
C68   H36   S    
Cu3   O6    S    
C4    C17   A    
C28   H19   S    
Cu2   O16   S    
C72   H57   S    
C73   H53   S    
C64   H29   S    
C66   H39   S    
C74   H50   S    
C1    O1    A    
C33   C42   A    
C56   O6    A    
C3    C4    A    
C33   H16   S    
C25   C45   S    
C32   C53   A    
C2    C76   A    
C19   C44   A    
C26   C42   A    
C64   H27   S    
C47   C55   A    
C54   C58   A    
Cu3   O7    S    
C37   H5    S    
C24   C49   A    
Cu4   O8    S    
C14   C65   S    
C1    C20   S    
C33   C57   A    
C29   H20   S    
C1    O16   A    
C13   H26   S    
C72   H55   S    
C19   C34   S    
C26   C56   S    
C6    C10   A    
Cu2   O9    S    
C28   C58   A    
C27   C36   A    
C31   H14   S    
C48   H58   S    
C52   C61   A    
C63   H30   S    
C10   H24   S    
C25   C52   A    
C27   C59   A    
C26   C51   A    
Cu1   O11   S    
Cu4   O13   S    
Cu1   O1    S    
C28   C37   A    
C72   C73   S    
C55   C61   A    
C30   H21   S    
C24   C40   A    
C15   C62   S    
C30   C39   A    
C67   O14   A    
C45   O5    A    
C31   C54   A    
C63   H31   S    
C69   C70   S    
C8    H23   S    
Cu1   N1    S    
C22   C67   S    
C5    H12   S    
C68   H35   S    
Cu3   Cu4   S    
C32   H15   S    
C62   H32   S    
C73   H54   S    
C69   H49   S    
C65   C66   S    
C66   H38   S    
C23   O10   A    
C47   H59   S    
C51   C60   A    
C40   H10   S    
C35   H17   S    
C2    C9    A    
C51   H4    S    
C3    C16   A    
C21   C47   A    
