data_mof_unit_54580.cif
_audit_creation_date              2012-12-10T17:24:45-0500
_audit_creation_method            fapswitch 2.2
_symmetry_space_group_name_H-M    P1
_symmetry_Int_Tables_number       1
_space_group_crystal_system       triclinic
_cell_length_a                    23.502552
_cell_length_b                    10.721502
_cell_length_c                    9.657492
_cell_angle_alpha                 88.523604
_cell_angle_beta                  90.538752
_cell_angle_gamma                 91.403451
_cell_volume                      2431.88917841

loop_
_atom_site_label
_atom_site_type_symbol
_atom_type_description
_atom_site_fract_x
_atom_site_fract_y
_atom_site_fract_z
_atom_type_partial_charge
C1    C     C_R   0.500689 0.262930 0.501701 0.875765
C2    C     C_R   0.968449 0.283552 0.519943 -0.050784
C3    C     C_R   0.027913 0.287194 0.523307 -0.144463
C4    C     C_R   0.058786 0.399997 0.508151 -0.017347
C5    C     C_R   0.029934 0.512808 0.489087 -0.051276
C6    C     C_R   0.061239 0.626990 0.471045 -0.108439
C7    C     C_R   0.031071 0.739352 0.451479 0.416814
C8    C     C_R   0.971761 0.736407 0.451135 -0.180060
C9    C     C_R   0.118357 0.401925 0.510147 0.606011
C10   C     C_R   0.121381 0.623202 0.474112 0.633217
C11   C     C_R   0.239276 0.510586 0.627319 -0.004879
C12   C     C_R   0.391084 0.500249 0.499562 0.870100
C13   C     C_R   0.298883 0.505834 0.624946 -0.183662
C14   C     C_R   0.328407 0.502686 0.499225 -0.067850
C15   C     C_R   0.297733 0.503640 0.374061 -0.124294
C16   C     C_R   0.238617 0.507771 0.374528 -0.086050
C17   C     C_R   0.209090 0.511253 0.499595 0.264804
C18   C     C_R   0.759723 0.473623 0.378685 0.439177
C19   C     C_R   0.700432 0.470403 0.381051 -0.211580
C20   C     C_R   0.671342 0.506435 0.499377 -0.060959
C21   C     C_R   0.702441 0.548282 0.614749 -0.182353
C22   C     C_R   0.761800 0.552346 0.612262 -0.166165
C23   C     C_R   0.499985 0.736897 0.498517 0.768326
C24   C     C_R   0.790615 0.513929 0.495034 0.256857
C25   C     C_R   0.605119 0.131882 0.564787 -0.177390
C26   C     C_R   0.655867 0.067858 0.589191 0.015751
C27   C     C_R   0.655866 0.938159 0.575542 -0.128509
C28   C     C_R   0.605852 0.872893 0.542914 -0.139378
C29   C     C_R   0.554253 0.935697 0.523457 0.132155
C30   C     C_R   0.553954 0.066768 0.531133 0.028404
C31   C     C_R   0.502224 0.128693 0.505439 -0.158827
C32   C     C_R   0.451484 0.061596 0.478718 0.420616
C33   C     C_R   0.452087 0.932972 0.474025 -0.199836
C34   C     C_R   0.608829 0.501833 0.500249 0.758275
C35   C     C_R   0.502754 0.870688 0.495956 -0.120683
C36   C     C_R   0.549308 0.705013 0.127371 -0.035555
C37   C     C_R   0.600823 0.755377 0.076259 0.371617
C38   C     C_R   0.613510 0.736437 0.938044 -0.266256
C39   C     C_R   0.577398 0.660183 0.859468 -0.186902
C40   C     C_R   0.535618 0.582000 0.924462 0.131516
C41   C     C_R   0.530237 0.591109 0.071063 0.015416
C42   C     C_R   0.467143 0.417993 0.075118 0.425034
C43   C     C_R   0.466185 0.419978 0.927424 0.401121
C44   C     C_R   0.881248 0.622756 0.472530 0.614942
C45   C     C_R   0.878433 0.402666 0.517011 0.614641
C46   C     C_R   0.938392 0.397120 0.507682 -0.070526
C47   C     C_R   0.969688 0.511204 0.488962 -0.008251
C48   C     C_R   0.940824 0.624200 0.470824 -0.082109
Cu1   Cu    Cu3+1 0.500000 0.499990 0.640660 1.020998
Cu2   Cu    Cu3+1 0.500000 0.500010 0.359340 1.047407
H1    H     H_    0.677191 0.438329 0.290795 0.193745
H2    H     H_    0.681014 0.577610 0.706652 0.168279
H3    H     H_    0.785499 0.583642 0.702101 0.181135
H4    H     H_    0.605745 0.232289 0.573287 0.155278
H5    H     H_    0.694468 0.886469 0.592279 0.184225
H6    H     H_    0.608004 0.772892 0.533174 0.113312
H7    H     H_    0.412738 0.880964 0.455112 0.171706
H8    H     H_    0.050231 0.200061 0.534067 0.232452
H9    H     H_    0.648437 0.787769 0.888957 0.195288
H10   H     H_    0.584275 0.665054 0.751015 0.200345
H11   H     H_    0.949804 0.823444 0.435881 0.218513
H12   H     H_    0.322539 0.505854 0.721709 0.225915
H13   H     H_    0.319339 0.501267 0.275640 0.203205
H14   H     H_    0.215417 0.507819 0.277091 0.154820
N1    N     N_R   0.851602 0.513343 0.495476 -0.456890
N2    N     N_R   0.148087 0.512238 0.494708 -0.470394
N3    N     N_R   0.500540 0.501210 0.147910 -0.232612
N4    N     N_R   0.500560 0.501290 0.852040 -0.241469
O1    O     O_R   0.500000 0.319640 0.618810 -0.532939
O2    O     O_2   0.846880 0.299866 0.550584 -0.473736
O3    O     O_2   0.146594 0.294457 0.527969 -0.468591
O4    O     O_2   0.153373 0.728478 0.457980 -0.428992
O5    O     O_R   0.500000 0.319660 0.381240 -0.519844
O6    O     O_R   0.417880 0.499950 0.618810 -0.545621
O7    O     O_R   0.417880 0.499980 0.381240 -0.534702
O8    O     O_R   0.500000 0.680340 0.618760 -0.591650
O9    O     O_R   0.500000 0.680360 0.381190 -0.576553
O10   O     O_R   0.582120 0.500020 0.618760 -0.603119
O11   O     O_R   0.582120 0.500050 0.381190 -0.581108
O12   O     O_2   0.852994 0.729856 0.451808 -0.486074
C49   C     C_2   0.940709 0.157969 0.522304 0.973295
O13   O     O_2   0.906798 0.129052 0.431101 -0.482660
O14   O     O_R   0.955953 0.070345 0.624887 -0.712702
H15   H     H_    0.934618 0.987647 0.615381 0.354104
Cl1   Cl    Cl    0.385716 0.135696 0.456788 -0.471950
C50   C     C_2   0.708550 0.136024 0.631609 0.910219
O15   O     O_2   0.754309 0.083990 0.632266 -0.507441
O16   O     O_R   0.705917 0.259355 0.673846 -0.760280
H16   H     H_    0.744356 0.294132 0.704534 0.369640
Cl2   Cl    Cl    0.420023 0.313771 0.162629 -0.436869
C51   C     C_2   0.504125 0.799231 0.145392 0.898066
O17   O     O_2   0.516797 0.908139 0.168694 -0.531227
O18   O     O_R   0.446635 0.762947 0.134567 -0.743330
H17   H     H_    0.420116 0.834441 0.149622 0.353822
Cl3   Cl    Cl    0.641435 0.864704 0.170392 -0.516751
Cl4   Cl    Cl    0.419997 0.314565 0.841987 -0.455194
Cl5   Cl    Cl    0.063711 0.888360 0.427452 -0.461041
C52   C     C_2   0.210383 0.515352 0.763923 0.912798
O19   O     O_2   0.159745 0.537683 0.770791 -0.567675
O20   O     O_R   0.241595 0.495330 0.886277 -0.729610
H18   H     H_    0.217552 0.501321 0.972386 0.348299
Cl6   Cl    Cl    0.794562 0.427134 0.228776 -0.512018

loop_
_geom_bond_atom_site_label_1
_geom_bond_atom_site_label_2
_ccdc_geom_bond_type
O18   H17   S    
Cu1   N4    S    
C12   O6    A    
C19   C20   A    
C23   O8    A    
Cu2   O11   S    
C49   O13   D    
C28   H6    S    
C7    C8    A    
C41   N3    A    
C45   C46   A    
C2    C46   A    
C5    C47   A    
C17   N2    S    
C37   C38   A    
C11   C52   S    
C18   C24   A    
C28   C29   A    
C30   C31   A    
C27   H5    S    
C39   H10   S    
C15   C16   A    
C1    C31   S    
Cu1   O10   S    
C37   Cl3   S    
C18   C19   A    
C18   Cl6   S    
C9    N2    A    
C11   C17   A    
C13   H12   S    
C47   C48   A    
C16   C17   A    
Cu2   N3    S    
C8    H11   S    
C20   C34   S    
O16   H16   S    
Cu1   O1    S    
C21   C22   A    
C36   C41   A    
C49   O14   S    
C22   H3    S    
C10   N2    A    
C38   C39   A    
C44   O12   S    
C25   H4    S    
Cu2   O5    S    
C51   O17   D    
C50   O15   D    
C43   N4    A    
C25   C26   A    
C1    O1    A    
C42   Cl2   S    
C8    C48   A    
C29   C30   A    
C34   O11   A    
C51   O18   S    
O14   H15   S    
C26   C50   S    
C43   Cl4   S    
C26   C27   A    
Cu1   O8    S    
C23   O9    A    
C24   N1    S    
C36   C51   S    
C40   C41   A    
C12   C14   S    
C52   O19   D    
C52   O20   S    
C45   N1    A    
C42   N3    A    
C22   C24   A    
C42   C43   A    
C3    C4    A    
Cu2   O9    S    
C39   C40   A    
C25   C30   A    
C46   C47   A    
C36   C37   A    
C33   H7    S    
C7    Cl5   S    
C45   O2    S    
Cu1   O6    S    
C31   C32   A    
C9    O3    S    
C4    C5    A    
C6    C10   A    
C6    C7    A    
C29   C35   A    
C23   C35   S    
C1    O5    A    
C32   C33   A    
C2    C3    A    
Cu2   O7    S    
C34   O10   A    
C11   C13   A    
C5    C6    A    
C32   Cl1   S    
C44   N1    A    
O20   H18   S    
C33   C35   A    
C50   O16   S    
C38   H9    S    
C3    H8    S    
C19   H1    S    
C20   C21   A    
Cu1   Cu2   S    
C40   N4    A    
C12   O7    A    
C27   C28   A    
C15   H13   S    
C14   C15   A    
C2    C49   S    
C16   H14   S    
C4    C9    A    
C13   C14   A    
C21   H2    S    
C44   C48   A    
C10   O4    S    
