data_mof_unit_57143.cif
_audit_creation_date              2012-12-10T18:56:28-0500
_audit_creation_method            fapswitch 2.2
_symmetry_space_group_name_H-M    P1
_symmetry_Int_Tables_number       1
_space_group_crystal_system       triclinic
_cell_length_a                    10.716534
_cell_length_b                    9.826918
_cell_length_c                    19.000813
_cell_angle_alpha                 90.498173
_cell_angle_beta                  90.081845
_cell_angle_gamma                 89.990924
_cell_volume                      2000.90743546

loop_
_atom_site_label
_atom_site_type_symbol
_atom_type_description
_atom_site_fract_x
_atom_site_fract_y
_atom_site_fract_z
_atom_type_partial_charge
C1    C     C_R   0.872604 0.499986 0.500016 -0.013036
C2    C     C_R   0.740181 0.499992 0.500032 0.861446
C3    C     C_R   0.499298 0.499387 0.365571 0.853078
C4    C     C_R   0.498666 0.500629 0.634473 0.855197
C5    C     C_R   0.063922 0.378847 0.485382 -0.199832
C6    C     C_R   0.936125 0.621186 0.514491 -0.198198
C7    C     C_R   0.936084 0.378810 0.485476 -0.201063
C8    C     C_R   0.063961 0.621206 0.514432 -0.202870
C9    C     C_R   0.558675 0.443678 0.755624 -0.232090
C10   C     C_R   0.569937 0.532913 0.244063 -0.227592
C11   C     C_R   0.355959 0.464214 0.267256 -0.206576
C12   C     C_R   0.127432 0.500030 0.499898 -0.012328
C13   C     C_R   0.361924 0.558536 0.732974 -0.201172
C14   C     C_R   0.531914 0.444357 0.827090 -0.132180
C15   C     C_R   0.544368 0.532803 0.172424 -0.153903
C16   C     C_R   0.329588 0.467283 0.195777 -0.179110
C17   C     C_R   0.333317 0.555142 0.804127 -0.133665
C18   C     C_R   0.418766 0.499044 0.851331 0.208575
C19   C     C_R   0.423918 0.501441 0.148441 0.153123
C20   C     C_R   0.582044 0.072667 0.541122 -0.071134
C21   C     C_R   0.417942 0.927334 0.458884 -0.072483
C22   C     C_R   0.417950 0.071333 0.458877 -0.072417
C23   C     C_R   0.396127 0.626662 0.963364 0.155982
C24   C     C_R   0.582044 0.928672 0.541122 -0.072960
C25   C     C_R   0.474260 0.502377 0.708926 -0.009119
C26   C     C_R   0.475767 0.497804 0.291114 0.001660
C27   C     C_3   0.287649 0.829239 0.924858 -0.786249
C28   C     C_3   0.260051 0.187411 0.080099 -0.808385
C29   C     C_3   0.524047 0.820921 0.079275 -0.817978
C30   C     C_3   0.477854 0.162003 0.927266 -0.764230
C31   C     C_R   0.383618 0.377766 0.036543 0.159138
C32   C     C_R   0.400407 0.627099 0.037155 0.150413
C33   C     C_R   0.382312 0.377780 0.962786 0.144829
C34   C     C_R   0.398577 0.502215 0.073164 -0.140055
C35   C     C_R   0.393741 0.501552 0.926788 -0.127566
C36   C     C_R   0.259831 0.500010 0.499941 0.857798
H1    H     H_    0.647576 0.127867 0.573984 0.125855
H2    H     H_    0.662560 0.558938 0.262723 0.129804
H3    H     H_    0.282859 0.437895 0.304083 0.128502
H4    H     H_    0.295572 0.602156 0.696438 0.137057
H5    H     H_    0.599514 0.403249 0.863566 0.130927
H6    H     H_    0.617914 0.557427 0.135616 0.139622
H7    H     H_    0.236434 0.443291 0.177302 0.143547
H8    H     H_    0.245204 0.595969 0.822297 0.133847
H9    H     H_    0.479399 0.809107 0.936299 0.239204
H10   H     H_    0.295630 0.912179 0.885829 0.240992
H11   H     H_    0.270488 0.875518 0.977444 0.248913
H12   H     H_    0.352401 0.872134 0.426027 0.128656
H13   H     H_    0.206904 0.764169 0.910076 0.232781
H14   H     H_    0.437569 0.243273 0.116665 0.236861
H15   H     H_    0.228412 0.194383 0.135647 0.232701
H16   H     H_    0.267869 0.078397 0.065079 0.247339
H17   H     H_    0.188402 0.235769 0.046079 0.233242
H18   H     H_    0.353863 0.756313 0.121263 0.235115
H19   H     H_    0.559025 0.819726 0.134326 0.243137
H20   H     H_    0.512894 0.928402 0.063129 0.248337
H21   H     H_    0.594938 0.771486 0.044833 0.230389
H22   H     H_    0.287004 0.205473 0.928587 0.231667
H23   H     H_    0.352426 0.125476 0.426015 0.122415
H24   H     H_    0.493780 0.116442 0.874406 0.239401
H25   H     H_    0.458548 0.078846 0.964854 0.246867
H26   H     H_    0.564326 0.215846 0.944008 0.229661
H27   H     H_    0.647579 0.874539 0.573976 0.123557
H28   H     H_    0.112631 0.284750 0.473568 0.151465
H29   H     H_    0.887426 0.715299 0.526280 0.151815
H30   H     H_    0.887350 0.284676 0.473752 0.156172
H31   H     H_    0.112698 0.715328 0.526185 0.155653
H32   H     H_    0.645395 0.399834 0.736907 0.130486
N1    N     N_R   0.500000 0.857200 0.500000 -0.078616
N2    N     N_R   0.500000 0.142800 0.500000 -0.077922
N3    N     N_2   0.401908 0.750725 0.925167 -0.286574
N4    N     N_2   0.381057 0.251391 0.072946 -0.288147
N5    N     N_2   0.404136 0.753141 0.075027 -0.295124
N6    N     N_2   0.372041 0.253517 0.923911 -0.284215
O1    O     O_R   0.316770 0.614620 0.500000 -0.628909
O2    O     O_R   0.683230 0.385380 0.500000 -0.628364
O3    O     O_R   0.683230 0.614620 0.500000 -0.626577
O4    O     O_R   0.316770 0.385380 0.500000 -0.625985
O5    O     O_R   0.500030 0.614710 0.398180 -0.608989
O6    O     O_R   0.499970 0.385290 0.601820 -0.607741
O7    O     O_R   0.499970 0.614710 0.601820 -0.614323
O8    O     O_R   0.500030 0.385290 0.398180 -0.613415
Zn1   Zn    Zn3+2 0.500000 0.653120 0.500000 0.946185
Zn2   Zn    Zn3+2 0.500000 0.346880 0.500000 0.947679

loop_
_geom_bond_atom_site_label_1
_geom_bond_atom_site_label_2
_ccdc_geom_bond_type
H9    N3    S    
C14   C18   A    
O6    Zn2   S    
C2    O2    A    
C3    O5    A    
O2    Zn2   S    
C4    C25   S    
C9    C25   A    
C15   C19   A    
C4    O6    A    
C10   C15   A    
C30   N6    S    
C28   H15   S    
C29   N5    S    
O3    Zn1   S    
C1    C2    S    
H14   N4    S    
C13   H4    S    
C6    H29   S    
C4    O7    A    
C20   C24   A    
C30   H24   S    
C31   C33   A    
C12   C36   S    
N2    Zn2   S    
C18   C35   S    
C21   H12   S    
C10   C26   A    
C21   C22   A    
C20   N2    A    
C28   N4    S    
O7    Zn1   S    
C24   N1    A    
C1    C6    A    
C23   N3    S    
C5    C12   A    
C22   H23   S    
C5    C7    A    
C6    C8    A    
C29   H19   S    
C11   C26   A    
C5    H28   S    
C21   N1    A    
C32   C34   A    
C9    C14   A    
N1    Zn1   S    
C36   O1    A    
H18   N5    S    
C11   C16   A    
C8    C12   A    
C3    O8    A    
C17   C18   A    
C31   C34   A    
C11   H3    S    
C16   H7    S    
C14   H5    S    
C27   H10   S    
C31   N4    S    
C29   H21   S    
C24   H27   S    
C23   C35   A    
C30   H26   S    
C32   N5    S    
C27   N3    S    
H22   N6    S    
C27   H11   S    
C1    C7    A    
C3    C26   S    
C15   H6    S    
C13   C25   A    
C19   C34   S    
C28   H17   S    
C29   H20   S    
O8    Zn2   S    
C13   C17   A    
C10   H2    S    
C23   C32   A    
C17   H8    S    
C2    O3    A    
C36   O4    A    
C7    H30   S    
O5    Zn1   S    
C20   H1    S    
C28   H16   S    
O1    Zn1   S    
C16   C19   A    
C33   C35   A    
C9    H32   S    
O4    Zn2   S    
C33   N6    S    
C8    H31   S    
C30   H25   S    
C22   N2    A    
C27   H13   S    
