data_mof_unit_13864.cif
_audit_creation_date              2013-03-05T15:50:58-0500
_audit_creation_method            fapswitch 2.2
_symmetry_space_group_name_H-M    P1
_symmetry_Int_Tables_number       1
_space_group_crystal_system       triclinic
_cell_length_a                    11.694045
_cell_length_b                    10.8128
_cell_length_c                    9.626478
_cell_angle_alpha                 88.60275
_cell_angle_beta                  90.28436
_cell_angle_gamma                 91.771937
_cell_volume                      1216.26897967

loop_
_atom_site_label
_atom_site_type_symbol
_atom_site_description
_atom_site_fract_x
_atom_site_fract_y
_atom_site_fract_z
_atom_type_partial_charge
O1    O     O_R   0.499990 0.319640 0.618810 -0.540079
O2    O     O_R   0.500000 0.319660 0.381240 -0.588983
C1    C     C_R   0.504381 0.262811 0.502372 0.884971
O3    O     O_R   0.337190 0.500000 0.618790 -0.565023
O4    O     O_R   0.337200 0.500030 0.381210 -0.553545
C2    C     C_R   0.284215 0.500731 0.499701 0.885004
Cu1   Cu    Cu3+1 0.499990 0.499990 0.640660 0.974642
Cu2   Cu    Cu3+1 0.500010 0.500010 0.359340 0.979382
O5    O     O_R   0.500000 0.680340 0.618760 -0.599474
O6    O     O_R   0.500010 0.680360 0.381190 -0.578130
O7    O     O_R   0.662800 0.499970 0.618790 -0.581298
O8    O     O_R   0.662810 0.500000 0.381210 -0.600748
C3    C     C_R   0.498318 0.736869 0.497990 0.808532
C4    C     C_R   0.715801 0.504575 0.500004 0.804513
C5    C     C_1   0.162529 0.504495 0.499117 -0.129904
C6    C     C_1   0.060090 0.507621 0.499174 0.015015
C7    C     C_1   0.940287 0.509751 0.499526 0.021534
C8    C     C_1   0.837711 0.509038 0.499840 -0.152487
C9    C     C_R   0.717956 0.123147 0.539773 0.219367
C10   C     C_R   0.818552 0.062219 0.508624 -0.153590
H1    H     H_    0.901500 0.107347 0.523924 0.158597
C11   C     C_R   0.813566 0.940322 0.467187 -0.129459
H2    H     H_    0.891651 0.893359 0.445231 0.164358
C12   C     C_R   0.709192 0.875549 0.465704 -0.156583
H3    H     H_    0.710396 0.777977 0.444797 0.115805
C13   C     C_R   0.605965 0.936251 0.489461 0.035655
C14   C     C_R   0.609325 0.064537 0.513184 0.056470
C15   C     C_R   0.504623 0.128063 0.510336 -0.186141
C16   C     C_R   0.398347 0.062616 0.504153 -0.093106
C17   C     C_R   0.395995 0.932832 0.498745 -0.075474
C18   C     C_R   0.499968 0.870882 0.492170 -0.151374
H4    H     H_    0.370402 0.361964 0.131616 0.155112
C19   C     C_R   0.650702 0.662464 0.140633 -0.154733
H5    H     H_    0.654909 0.671877 0.249373 0.196891
C20   C     C_R   0.729287 0.737660 0.068893 -0.249794
H6    H     H_    0.788070 0.796567 0.126799 0.189521
C21   C     C_R   0.734918 0.734198 0.925457 -0.024553
C22   C     C_R   0.656437 0.658711 0.854236 -0.190596
H7    H     H_    0.661667 0.667338 0.744659 0.220121
C23   C     C_R   0.575751 0.578859 0.923960 0.182202
C24   C     C_R   0.574544 0.579602 0.073080 0.218293
N1    N     N_R   0.501070 0.501210 0.147910 -0.199337
C25   C     C_R   0.428823 0.424231 0.075408 -0.036079
H8    H     H_    0.370148 0.362407 0.874037 0.171425
C26   C     C_R   0.428647 0.424483 0.927695 -0.046438
N2    N     N_R   0.501110 0.501290 0.852040 -0.200777
C27   C     C_2   0.289461 0.130241 0.503329 0.868973
O9    O     O_2   0.219140 0.113401 0.410693 -0.583541
O10   O     O_R   0.266913 0.211197 0.610062 -0.757853
H9    H     H_    0.188614 0.248276 0.600728 0.320623
C28   C     C_2   0.826019 0.805785 0.849914 0.866642
O11   O     O_2   0.871963 0.896745 0.902077 -0.583497
O12   O     O_R   0.862691 0.766283 0.720893 -0.786740
H10   H     H_    0.930536 0.817517 0.684342 0.333513
N3    N     N_2   0.728069 0.233779 0.616011 -0.440812
H11   H     H_    0.804540 0.281378 0.599086 0.241055
C29   C     C_3   0.707711 0.215542 0.763545 -0.574260
H12   H     H_    0.710632 0.306501 0.814803 0.233085
H13   H     H_    0.774544 0.156668 0.810821 0.234854
H14   H     H_    0.622220 0.170854 0.782633 0.236151
C30   C     C_2   0.284815 0.861898 0.499954 0.871143
O13   O     O_2   0.264647 0.784345 0.412090 -0.590421
O14   O     O_R   0.202946 0.885116 0.600611 -0.735806
H15   H     H_    0.131018 0.831329 0.590120 0.327186

loop_
_geom_bond_atom_site_label_1
_geom_bond_atom_site_label_2
_geom_bond_distance
_ccdc_geom_bond_type
O4    Cu2   1.916559 S    
Cu1   O7    1.916558 S    
N3    H11   1.029578 S    
O6    C3    1.293220 A    
C16   C17   1.404986 A    
C28   O11   1.223463 D    
C9    C14   1.426798 A    
C24   N1    1.380925 A    
C4    C8    1.424949 S    
C9    C10   1.403164 A    
C17   C18   1.408634 A    
Cu2   O8    1.914359 S    
C19   C24   1.411436 A    
N3    C29   1.448933 S    
C7    C8    1.199334 T    
C13   C14   1.410613 A    
Cu1   Cu2   2.708117 S    
C27   O10   1.397242 S    
O1    Cu1   1.966492 S    
O12   H10   1.013041 S    
C12   H3    1.079394 S    
C22   C23   1.419120 A    
C25   C26   1.421878 A    
C15   C16   1.412736 A    
C29   H12   1.110572 S    
C21   C22   1.397602 A    
C16   C27   1.487704 S    
O3    Cu1   1.914361 S    
O4    C2    1.301073 A    
Cu2   O6    1.966492 S    
C23   C24   1.435861 A    
C19   C20   1.383927 A    
H4    C25   1.081790 S    
O8    C4    1.299245 A    
C19   H5    1.054947 S    
O2    C1    1.306371 A    
C10   C11   1.385794 A    
C30   O13   1.222535 D    
C21   C28   1.480604 S    
O7    C4    1.302514 A    
C11   C12   1.388494 A    
C29   H13   1.111885 S    
N1    C25   1.368469 A    
C23   N2    1.386271 A    
C28   O12   1.396941 S    
Cu2   N1    2.035148 S    
O14   H15   1.013764 S    
Cu1   N2    2.035211 S    
Cu1   O5    1.956330 S    
C13   C18   1.407824 A    
C22   H7    1.058601 S    
C10   H1    1.083278 S    
O3    C2    1.300341 A    
O10   H9    1.013567 S    
C17   C30   1.488898 S    
C9    N3    1.420147 S    
C14   C15   1.422134 A    
C30   O14   1.398013 S    
O5    C3    1.300571 A    
C11   H2    1.082672 S    
C1    C15   1.457240 S    
C29   H14   1.111015 S    
C20   C21   1.384147 A    
C2    C5    1.424816 S    
C26   N2    1.367952 A    
C27   O9    1.223115 D    
C3    C18   1.448303 S    
O2    Cu2   1.956330 S    
H8    C26   1.081824 S    
C5    C6    1.199451 T    
C12   C13   1.413983 A    
C6    C7    1.401908 S    
O1    C1    1.293336 A    
C20   H6    1.084160 S    
