data_mof_unit_33212.cif
_audit_creation_date              2012-12-10T20:30:13-0500
_audit_creation_method            fapswitch 2.2
_symmetry_space_group_name_H-M    P1
_symmetry_Int_Tables_number       1
_space_group_crystal_system       triclinic
_cell_length_a                    9.868458
_cell_length_b                    10.669539
_cell_length_c                    13.117368
_cell_angle_alpha                 90.337199
_cell_angle_beta                  69.450507
_cell_angle_gamma                 89.90396
_cell_volume                      1293.23617304

loop_
_atom_site_label
_atom_site_type_symbol
_atom_type_description
_atom_site_fract_x
_atom_site_fract_y
_atom_site_fract_z
_atom_type_partial_charge
C1    C     C_R   0.499157 0.739912 0.501213 0.875829
C2    C     C_R   0.362372 0.501879 0.825253 -0.161729
C3    C     C_R   0.395804 0.936388 0.474115 0.122437
C4    C     C_R   0.418272 0.501865 0.705198 0.845224
C5    C     C_R   0.492299 0.871841 0.510662 -0.098148
C6    C     C_R   0.574833 0.935555 0.562068 -0.233964
C7    C     C_R   0.575088 0.065235 0.562240 -0.228961
C8    C     C_R   0.491939 0.128663 0.511607 -0.101938
C9    C     C_R   0.395222 0.064255 0.475114 0.142736
C10   C     C_3   0.376967 0.072196 0.367004 -0.496582
C11   C     C_3   0.379267 0.930271 0.365044 -0.481007
C12   C     C_R   0.430939 0.509441 0.986306 0.086625
C13   C     C_R   0.896646 0.577415 0.568940 0.254910
C14   C     C_R   0.956831 0.416326 0.438712 -0.141684
C15   C     C_R   0.100831 0.416423 0.438581 -0.138819
C16   C     C_R   0.499238 0.260213 0.501489 0.867184
C17   C     C_R   0.038953 0.576645 0.569601 0.190668
C18   C     C_3   0.044403 0.715961 0.572282 -0.501954
C19   C     C_3   0.892265 0.717183 0.569522 -0.531707
C20   C     C_R   0.580782 0.500142 0.295542 0.867809
C21   C     C_R   0.765816 0.636184 0.020454 -0.214340
C22   C     C_R   0.630697 0.515852 0.178480 -0.064012
C23   C     C_R   0.452877 0.549264 0.879645 0.064805
C24   C     C_R   0.230165 0.440977 0.886460 0.100714
C25   C     C_R   0.198500 0.421950 0.997692 -0.177617
C26   C     C_R   0.298495 0.451629 0.046259 -0.231654
C27   C     C_3   0.121831 0.391105 0.837940 -0.401729
C28   C     C_3   0.171345 0.264535 0.780407 -0.308260
C29   C     C_3   0.074039 0.222975 0.718330 -0.848343
C30   C     C_R   0.541266 0.531410 0.029762 0.092186
C31   C     C_R   0.660006 0.609790 0.974472 0.175727
C32   C     C_R   0.668405 0.663971 0.876243 -0.265717
C33   C     C_R   0.565862 0.634703 0.829541 -0.191253
C34   C     C_R   0.536405 0.477370 0.127239 -0.257891
C35   C     C_R   0.749325 0.591568 0.123864 -0.211713
H1    H     H_    0.823379 0.622070 0.163367 0.157884
H2    H     H_    0.125490 0.755152 0.497717 0.221589
H3    H     H_    0.811795 0.756264 0.644987 0.185424
H4    H     H_    0.754825 0.728424 0.835370 0.140070
H5    H     H_    0.886250 0.756186 0.492783 0.221388
H6    H     H_    0.856453 0.696581 0.979175 0.138340
H7    H     H_    0.454382 0.410053 0.168848 0.138564
H8    H     H_    0.266905 0.431843 0.132007 0.140718
H9    H     H_    0.098133 0.377826 0.046784 0.140791
H10   H     H_    0.574397 0.681136 0.754488 0.155580
H11   H     H_    0.642447 0.885795 0.597853 0.156352
H12   H     H_    0.643697 0.115190 0.597479 0.167964
H13   H     H_    0.960536 0.213336 0.774915 0.249542
H14   H     H_    0.078020 0.292252 0.654527 0.272881
H15   H     H_    0.111903 0.130933 0.678434 0.243761
H16   H     H_    0.284364 0.269798 0.722591 0.225819
H17   H     H_    0.168207 0.192460 0.842053 0.207119
H18   H     H_    0.014829 0.376746 0.903207 0.187907
H19   H     H_    0.099837 0.461379 0.783713 0.222154
H20   H     H_    0.270200 0.112583 0.373802 0.198817
H21   H     H_    0.471754 0.114864 0.303308 0.194219
H22   H     H_    0.274473 0.889312 0.368508 0.199243
H23   H     H_    0.476057 0.889942 0.300732 0.202996
H24   H     H_    0.926551 0.350569 0.387440 0.145402
H25   H     H_    0.179205 0.350804 0.387134 0.141988
H26   H     H_    0.050864 0.751927 0.650151 0.194114
N1    N     N_R   0.856940 0.500860 0.500710 -0.104954
N2    N     N_R   0.142580 0.500820 0.500710 -0.104505
O1    O     O_R   0.385310 0.683210 0.499990 -0.612901
O2    O     O_R   0.614650 0.683240 0.500000 -0.624038
O3    O     O_R   0.328390 0.499940 0.653610 -0.609497
O4    O     O_R   0.557730 0.499980 0.653620 -0.604244
O5    O     O_R   0.385350 0.316760 0.500000 -0.615222
O6    O     O_R   0.614690 0.316790 0.500010 -0.618000
O7    O     O_R   0.442270 0.500020 0.346380 -0.607336
O8    O     O_R   0.671610 0.500060 0.346390 -0.614232
Zn1   Zn    Zn3+2 0.346870 0.499980 0.499990 0.930822
Zn2   Zn    Zn3+2 0.653130 0.500020 0.500010 0.935647

loop_
_geom_bond_atom_site_label_1
_geom_bond_atom_site_label_2
_ccdc_geom_bond_type
C4    O4    A    
C2    C4    S    
C24   C25   A    
C27   H18   S    
N1    Zn2   S    
O6    Zn2   S    
C6    C7    A    
C21   C35   A    
C19   H3    S    
C11   H23   S    
C33   H10   S    
C9    C10   S    
C16   O6    A    
C2    C24   A    
C1    O2    A    
C31   C32   A    
C34   H7    S    
C24   C27   S    
C13   C17   A    
O5    Zn1   S    
C30   C34   A    
C32   C33   A    
C19   H5    S    
C17   C18   S    
C14   H24   S    
C7    C8    A    
C8    C16   S    
C29   H14   S    
C17   N2    A    
C4    O3    A    
C22   C35   A    
C21   C31   A    
C12   C23   A    
C20   O7    A    
C30   C31   A    
C16   O5    A    
O4    Zn2   S    
C25   H9    S    
C28   C29   S    
C3    C9    A    
C18   H2    S    
C20   C22   S    
C26   H8    S    
C29   H15   S    
O1    Zn1   S    
C10   H20   S    
C5    C6    A    
C22   C34   A    
C28   H16   S    
C1    C5    S    
C27   H19   S    
C3    C11   S    
C10   C11   S    
C13   C19   S    
C29   H13   S    
C14   N1    A    
C1    O1    A    
C3    C5    A    
C27   C28   S    
O2    Zn2   S    
N2    Zn1   S    
C15   H25   S    
C18   C19   S    
C21   H6    S    
C32   H4    S    
C2    C23   A    
O8    Zn2   S    
C10   H21   S    
C15   N2    A    
C14   C15   A    
C28   H17   S    
C6    H11   S    
C12   C30   A    
C25   C26   A    
C11   H22   S    
O7    Zn1   S    
C18   H26   S    
O3    Zn1   S    
C13   N1    A    
C35   H1    S    
C12   C26   A    
C8    C9    A    
C23   C33   A    
C20   O8    A    
C7    H12   S    
