data_mof_unit_56447.cif
_audit_creation_date              2012-12-10T17:33:41-0500
_audit_creation_method            fapswitch 2.2
_symmetry_space_group_name_H-M    P1
_symmetry_Int_Tables_number       1
_space_group_crystal_system       triclinic
_cell_length_a                    11.692409
_cell_length_b                    12.33504
_cell_length_c                    13.222195
_cell_angle_alpha                 116.614448
_cell_angle_beta                  77.891487
_cell_angle_gamma                 101.194187
_cell_volume                      1656.01597939

loop_
_atom_site_label
_atom_site_type_symbol
_atom_type_description
_atom_site_fract_x
_atom_site_fract_y
_atom_site_fract_z
_atom_type_partial_charge
C1    C     C_R   0.512717 0.854590 0.286631 0.790465
C2    C     C_R   0.464048 0.227368 0.834439 -0.047636
C3    C     C_R   0.619642 0.809071 0.093360 -0.277951
C4    C     C_R   0.672335 0.723821 0.992090 -0.132366
C5    C     C_R   0.640027 0.599343 0.960660 0.411132
C6    C     C_R   0.537400 0.558799 0.021149 -0.039607
C7    C     C_R   0.484676 0.646525 0.125166 -0.025349
C8    C     C_R   0.485630 0.435131 0.982936 0.000739
C9    C     C_R   0.397759 0.397745 0.056794 0.071613
C10   C     C_R   0.348038 0.485323 0.159968 0.450813
C11   C     C_R   0.385529 0.608628 0.188280 -0.253325
C12   C     C_R   0.715744 0.999575 0.499650 0.825601
C13   C     C_R   0.510393 0.349730 0.869652 -0.231321
C14   C     C_R   0.390879 0.188225 0.912791 -0.207825
C15   C     C_R   0.532906 0.770730 0.164837 -0.078756
C16   C     C_R   0.684255 0.345723 0.327198 -0.379068
C17   C     C_R   0.342770 0.760165 0.645493 0.074724
C18   C     C_R   0.308623 0.664319 0.677760 -0.256197
C19   C     C_R   0.368183 0.560946 0.623461 -0.191318
C20   C     C_R   0.463255 0.552276 0.535675 0.005987
C21   C     C_R   0.495327 0.653283 0.505859 0.266755
C22   C     C_R   0.527075 0.447445 0.475855 -0.034363
C23   C     C_R   0.483278 0.145060 0.713162 0.791446
C24   C     C_R   0.620449 0.446178 0.387776 0.102258
C25   C     C_R   0.650213 0.545278 0.360242 -0.252566
C26   C     C_R   0.589790 0.646799 0.418579 -0.176816
C27   C     C_R   0.502138 0.342651 0.498385 -0.070507
C28   C     C_R   0.658044 0.246263 0.355408 0.703386
C29   C     C_R   0.284280 0.000222 0.500020 0.808693
C30   C     C_1   0.837464 0.999169 0.499432 -0.183026
C31   C     C_1   0.940083 0.999379 0.499309 -0.001205
C32   C     C_1   0.060041 0.999922 0.499378 0.001223
C33   C     C_1   0.162615 0.000283 0.499611 -0.178752
C34   C     C_R   0.355686 0.273386 0.022723 -0.150276
Cu1   Cu    Cu3+1 0.526510 0.098270 0.475420 0.981861
Cu2   Cu    Cu3+1 0.473490 0.901730 0.524580 0.927651
H1    H     H_    0.354019 0.093606 0.886790 0.150566
H2    H     H_    0.721902 0.544886 0.293084 0.157791
H3    H     H_    0.753312 0.344398 0.257877 0.153639
H4    H     H_    0.432042 0.335340 0.563150 0.146977
H5    H     H_    0.296120 0.840117 0.688207 0.129728
H6    H     H_    0.337915 0.489449 0.651747 0.142137
H7    H     H_    0.235728 0.670169 0.745074 0.153170
H8    H     H_    0.620770 0.718331 0.392100 0.206929
H9    H     H_    0.292232 0.242192 0.079354 0.175943
H10   H     H_    0.560167 0.378768 0.805769 0.204841
H11   H     H_    0.655776 0.904049 0.121198 0.207934
H12   H     H_    0.747257 0.754437 0.943641 0.166924
H13   H     H_    0.335058 0.674438 0.260139 0.176293
N1    N     N_R   0.566700 0.246290 0.438210 -0.216012
N2    N     N_R   0.434010 0.754320 0.561170 -0.210288
O1    O     O_R   0.533340 0.972510 0.318140 -0.532422
O2    O     O_R   0.488570 0.806530 0.359650 -0.614586
O3    O     O_R   0.685190 0.083000 0.479260 -0.536786
O4    O     O_R   0.640410 0.917020 0.520770 -0.591693
O5    O     O_R   0.511430 0.193470 0.640350 -0.589793
O6    O     O_R   0.466660 0.027490 0.681860 -0.585284
O7    O     O_R   0.359590 0.082980 0.479230 -0.580186
O8    O     O_R   0.314810 0.917000 0.520740 -0.586370
O9    O     O_3   0.250620 0.450984 0.223800 -0.592214
C35   C     C_3   0.280912 0.474137 0.329901 -0.310367
H14   H     H_    0.293284 0.573746 0.384940 0.182857
H15   H     H_    0.360790 0.431148 0.318917 0.163708
H16   H     H_    0.207393 0.433320 0.374779 0.191529
O10   O     O_3   0.717890 0.522607 0.878988 -0.751340
H17   H     H_    0.721163 0.456954 0.901754 0.321332
O11   O     O_3   0.716478 0.143268 0.294574 -0.569357
C36   C     C_3   0.838809 0.174356 0.298049 -0.331503
H18   H     H_    0.878725 0.090019 0.273977 0.190537
H19   H     H_    0.859402 0.239408 0.385211 0.166618
H20   H     H_    0.880446 0.211522 0.234785 0.162633

loop_
_geom_bond_atom_site_label_1
_geom_bond_atom_site_label_2
_ccdc_geom_bond_type
C16   C28   A    
C35   H16   S    
C10   O9    S    
C21   C26   A    
C19   H6    S    
C14   C34   A    
C6    C7    A    
C11   H13   S    
C25   H2    S    
C18   C19   A    
C9    C10   A    
C19   C20   A    
C27   N1    A    
C27   H4    S    
Cu2   O8    S    
C32   C33   T    
C17   N2    A    
Cu1   N1    S    
C7    C15   A    
C17   C18   A    
Cu1   O5    S    
C26   H8    S    
C23   O5    A    
C16   C24   A    
Cu2   O4    S    
C36   H18   S    
C18   H7    S    
C24   C25   A    
C14   H1    S    
C7    C11   A    
Cu1   O1    S    
C30   C31   T    
C5    C6    A    
Cu2   N2    S    
C34   H9    S    
O9    C35   S    
C36   H20   S    
C23   O6    A    
C3    H11   S    
C20   C22   A    
C9    C34   A    
Cu2   O6    S    
C17   H5    S    
C22   C27   A    
Cu1   O7    S    
C35   H14   S    
C2    C14   A    
C1    O1    A    
C22   C24   A    
C12   O4    A    
C10   C11   A    
C16   H3    S    
O11   C36   S    
C8    C13   A    
C29   C33   S    
C21   N2    A    
C28   O11   S    
C3    C15   A    
C29   O7    A    
C3    C4    A    
C5    O10   S    
O10   H17   S    
C4    H12   S    
C2    C23   S    
C35   H15   S    
C36   H19   S    
C1    O2    A    
C13   H10   S    
C8    C9    A    
C6    C8    A    
Cu2   O2    S    
C12   C30   S    
C25   C26   A    
C2    C13   A    
C28   N1    A    
C20   C21   A    
C31   C32   S    
C12   O3    A    
C1    C15   S    
C29   O8    A    
C4    C5    A    
Cu1   O3    S    
Cu1   Cu2   S    
