data_mof_unit_33417.cif
_audit_creation_date              2012-10-26T21:19:45-0400
_audit_creation_method            fapswitch 2.2
_symmetry_space_group_name_H-M    P1
_symmetry_Int_Tables_number       1
_space_group_crystal_system       triclinic
_cell_length_a                    10.830026
_cell_length_b                    15.149589
_cell_length_c                    13.842116
_cell_angle_alpha                 90.513385
_cell_angle_beta                  90.265896
_cell_angle_gamma                 90.116334
_cell_volume                      2270.96160311

loop_
_atom_site_label
_atom_site_type_symbol
_atom_type_description
_atom_site_fract_x
_atom_site_fract_y
_atom_site_fract_z
_atom_type_partial_charge
C1    C     C_R   0.501351 0.330257 0.499456 0.592395
C2    C     C_R   0.503006 0.812602 0.413708 -0.140643
C3    C     C_R   0.500912 0.234444 0.497969 0.004283
C4    C     C_R   0.494861 0.767633 0.501759 0.008106
C5    C     C_R   0.582817 0.186823 0.438693 0.118199
C6    C     C_R   0.485091 0.816639 0.588982 0.106139
C7    C     C_R   0.583448 0.094908 0.442973 -0.138862
C8    C     C_R   0.489745 0.908508 0.586250 -0.126052
C9    C     C_R   0.496372 0.050058 0.499015 0.013362
C10   C     C_R   0.495019 0.952995 0.498228 0.018131
C11   C     C_R   0.592805 0.543850 0.108721 -0.147106
C12   C     C_R   0.498376 0.670462 0.500594 0.591303
C13   C     C_R   0.445688 0.430626 0.891234 -0.148135
C14   C     C_R   0.590351 0.543758 0.210234 0.045326
C15   C     C_R   0.445563 0.432394 0.789744 0.047737
C16   C     C_R   0.262148 0.501856 0.499691 0.577454
C17   C     C_R   0.737806 0.497914 0.500377 0.577784
C18   C     C_R   0.410015 0.455931 0.208750 0.047467
C19   C     C_R   0.554634 0.567472 0.791440 0.050843
C20   C     C_R   0.407795 0.455606 0.107210 -0.144210
C21   C     C_R   0.554602 0.569208 0.892983 -0.152083
C22   C     C_R   0.500250 0.499787 0.054731 0.020821
C23   C     C_R   0.871651 0.496783 0.501186 0.026209
C24   C     C_R   0.500167 0.499892 0.945345 0.019333
C25   C     C_R   0.246250 0.699936 0.270425 -0.084202
C26   C     C_R   0.759596 0.298728 0.730890 -0.087653
C27   C     C_R   0.187954 0.661917 0.350830 0.332078
C28   C     C_R   0.825691 0.334384 0.652698 0.327139
C29   C     C_R   0.119046 0.583508 0.337830 0.064854
C30   C     C_R   0.879293 0.418875 0.662833 0.066338
C31   C     C_R   0.102628 0.548104 0.244464 -0.158835
C32   C     C_R   0.873528 0.463674 0.751910 -0.139560
C33   C     C_R   0.157849 0.588135 0.165102 -0.139581
C34   C     C_R   0.128247 0.503710 0.499256 0.024697
C35   C     C_R   0.811046 0.426356 0.829600 -0.126668
C36   C     C_R   0.230659 0.663373 0.178207 -0.143867
C37   C     C_R   0.753170 0.344453 0.818819 -0.142750
C38   C     C_R   0.932721 0.534196 0.422765 -0.162269
C39   C     C_R   0.067022 0.466471 0.577944 -0.161168
C40   C     C_3   0.158511 0.782658 0.448779 -0.153135
C41   C     C_3   0.881550 0.205581 0.575917 -0.146963
C42   C     C_3   0.214128 0.045620 0.553570 -0.139274
C43   C     C_3   0.389397 0.970350 0.291025 -0.134315
C44   C     C_3   0.626273 0.235910 0.277632 -0.285585
C45   C     C_R   0.939176 0.462114 0.579632 0.003769
C46   C     C_3   0.343861 0.755114 0.704056 -0.276143
C47   C     C_R   0.060578 0.539015 0.421063 -0.000638
C48   C     C_R   0.410075 0.098337 0.554331 0.257124
C49   C     C_R   0.498806 0.904437 0.410827 0.248731
C50   C     C_R   0.416641 0.190143 0.556431 -0.156513
Cu1   Cu    Cu3+1 0.500000 0.499990 0.596430 0.960133
Cu2   Cu    Cu3+1 0.500000 0.500010 0.403570 0.958466
H1    H     H_    0.275554 0.693204 0.116860 0.115301
H2    H     H_    0.598502 0.620613 0.752813 0.139490
H3    H     H_    0.332509 0.422021 0.070699 0.082324
H4    H     H_    0.596075 0.625275 0.929610 0.084757
H5    H     H_    0.304530 0.757291 0.279166 0.098009
H6    H     H_    0.712175 0.236088 0.723559 0.101597
H7    H     H_    0.048307 0.488719 0.233415 0.107058
H8    H     H_    0.915368 0.528293 0.760456 0.104377
H9    H     H_    0.145812 0.559946 0.093542 0.114991
H10   H     H_    0.805654 0.461670 0.897775 0.115846
H11   H     H_    0.880472 0.562403 0.363564 0.115169
H12   H     H_    0.702598 0.316578 0.878557 0.112890
H13   H     H_    0.118946 0.438387 0.637384 0.119633
H14   H     H_    0.352658 0.226938 0.601276 0.121738
H15   H     H_    0.512002 0.776618 0.346159 0.143338
H16   H     H_    0.063698 0.787430 0.417680 0.107176
H17   H     H_    0.221696 0.830023 0.413374 0.107526
H18   H     H_    0.152834 0.802355 0.525999 0.135698
H19   H     H_    0.808426 0.158810 0.598807 0.115438
H20   H     H_    0.961047 0.204539 0.627375 0.104752
H21   H     H_    0.916663 0.181993 0.505148 0.121615
H22   H     H_    0.230552 0.000902 0.490785 0.102893
H23   H     H_    0.651119 0.058543 0.401279 0.153823
H24   H     H_    0.177306 0.110239 0.528882 0.104178
H25   H     H_    0.142260 0.014480 0.598897 0.129414
H26   H     H_    0.348396 0.021125 0.339527 0.112245
H27   H     H_    0.326838 0.912407 0.284300 0.094566
H28   H     H_    0.397328 1.000000 0.218342 0.136755
H29   H     H_    0.755685 0.206567 0.381835 0.252375
H30   H     H_    0.623764 0.168865 0.244349 0.128821
H31   H     H_    0.691333 0.277698 0.236307 0.141250
H32   H     H_    0.532882 0.265776 0.272859 0.167862
H33   H     H_    0.516447 0.806445 0.735873 0.231563
H34   H     H_    0.488007 0.945398 0.653658 0.155817
H35   H     H_    0.290506 0.817261 0.712836 0.132150
H36   H     H_    0.341110 0.718157 0.772933 0.132451
H37   H     H_    0.300043 0.713587 0.646848 0.199096
H38   H     H_    0.668095 0.577405 0.073372 0.082813
H39   H     H_    0.404595 0.374413 0.926460 0.083632
H40   H     H_    0.661616 0.578545 0.250259 0.114547
H41   H     H_    0.402161 0.378990 0.749829 0.117533
H42   H     H_    0.338662 0.421283 0.247623 0.118432
N1    N     N_R   0.500000 0.500020 0.258690 -0.221711
N2    N     N_R   0.500000 0.499980 0.741310 -0.219294
N3    N     N_2   0.667127 0.231037 0.377128 -0.462578
N4    N     N_2   0.470776 0.774750 0.679878 -0.504104
O1    O     O_R   0.500010 0.371450 0.581430 -0.517191
O2    O     O_3   0.832424 0.291114 0.564127 -0.562935
O3    O     O_3   0.322121 0.056425 0.609705 -0.576549
O4    O     O_3   0.508305 0.945540 0.322330 -0.580570
O5    O     O_R   0.499990 0.628550 0.418570 -0.511225
O6    O     O_R   0.500010 0.371460 0.418560 -0.487632
O7    O     O_R   0.499990 0.628540 0.581440 -0.476019
O8    O     O_R   0.319640 0.500000 0.581430 -0.517067
O9    O     O_R   0.680360 0.500000 0.418570 -0.512825
O10   O     O_R   0.319640 0.500010 0.418560 -0.503448
O11   O     O_R   0.680360 0.499990 0.581440 -0.498322
O12   O     O_3   0.205157 0.695904 0.443259 -0.581480

loop_
_geom_bond_atom_site_label_1
_geom_bond_atom_site_label_2
_ccdc_geom_bond_type
Cu2   O5    S    
C23   C45   A    
C27   C29   A    
C30   C45   S    
C44   H31   S    
C1    O1    A    
C46   H37   S    
C43   H26   S    
C17   C23   S    
C40   H18   S    
C29   C47   S    
C6    N4    S    
C35   C37   A    
C38   H11   S    
C44   H30   S    
C17   O9    A    
C12   O7    A    
C11   C14   A    
C43   H27   S    
C33   C36   A    
Cu2   N1    S    
C31   H7    S    
C36   H1    S    
C16   C34   S    
C27   O12   S    
C31   C33   A    
H33   N4    S    
C4    C12   S    
C9    C10   S    
C18   C20   A    
C16   O8    A    
Cu1   N2    S    
C41   H19   S    
C28   O2    S    
C48   C50   A    
C46   N4    S    
Cu1   O11   S    
C13   H39   S    
C18   N1    A    
C39   H13   S    
C25   H5    S    
C20   H3    S    
C3    C50   A    
C46   H36   S    
Cu1   O1    S    
C42   H22   S    
C40   H17   S    
C34   C39   A    
C32   C35   A    
Cu2   O9    S    
C12   O5    A    
C4    C6    A    
C2    H15   S    
C49   O4    S    
C5    C7    A    
C6    C8    A    
C3    C5    A    
C43   H28   S    
Cu1   Cu2   S    
C13   C24   A    
C1    C3    S    
C2    C4    A    
C2    C49   A    
C50   H14   S    
C44   N3    S    
Cu1   O7    S    
C41   O2    S    
C26   H6    S    
C1    O6    A    
C14   H40   S    
C38   C47   A    
C42   H25   S    
C41   H20   S    
C19   H2    S    
C8    C10   A    
C20   C22   A    
C13   C15   A    
C18   H42   S    
C22   C24   S    
C32   H8    S    
C42   O3    S    
C14   N1    A    
C15   N2    A    
C37   H12   S    
C46   H35   S    
C7    C9    A    
Cu2   O6    S    
C19   C21   A    
C42   H24   S    
C5    N3    S    
C44   H32   S    
C17   O11   A    
C15   H41   S    
C21   H4    S    
C7    H23   S    
C26   C37   A    
C25   C27   A    
C23   C38   A    
C11   C22   A    
C26   C28   A    
C39   C45   A    
C28   C30   A    
C43   O4    S    
C29   C31   A    
C30   C32   A    
C11   H38   S    
H29   N3    S    
Cu1   O8    S    
C48   O3    S    
C35   H10   S    
C8    H34   S    
C40   O12   S    
C16   O10   A    
C25   C36   A    
C41   H21   S    
Cu2   O10   S    
C9    C48   A    
C33   H9    S    
C40   H16   S    
C21   C24   A    
C34   C47   A    
C10   C49   A    
C19   N2    A    
