data_mof_unit_47803.cif
_audit_creation_date              2012-10-26T18:34:24-0400
_audit_creation_method            fapswitch 2.2
_symmetry_space_group_name_H-M    P1
_symmetry_Int_Tables_number       1
_space_group_crystal_system       triclinic
_cell_length_a                    10.840723
_cell_length_b                    9.700605
_cell_length_c                    9.058937
_cell_angle_alpha                 90.236599
_cell_angle_beta                  95.368094
_cell_angle_gamma                 91.025616
_cell_volume                      948.305855304

loop_
_atom_site_label
_atom_site_type_symbol
_atom_type_description
_atom_site_fract_x
_atom_site_fract_y
_atom_site_fract_z
_atom_type_partial_charge
C1    C     C_R   0.262564 0.498749 0.500857 0.599305
C2    C     C_R   0.073192 0.596761 0.589238 0.215663
C3    C     C_R   0.870920 0.501869 0.501881 -0.058383
C4    C     C_R   0.128330 0.496433 0.505144 -0.058121
C5    C     C_R   0.427580 0.072384 0.393846 0.104407
C6    C     C_R   0.576954 0.928065 0.601318 0.116770
C7    C     C_R   0.576976 0.076119 0.601601 0.139691
C8    C     C_R   0.424097 0.924111 0.397086 0.121317
C9    C     C_3   0.095484 0.167127 0.440985 -0.100745
C10   C     C_3   0.890269 0.597768 0.832257 -0.133367
C11   C     C_3   0.837566 0.379371 0.177026 -0.091216
C12   C     C_R   0.737139 0.500969 0.501694 0.584243
C13   C     C_3   0.130804 0.822782 0.625155 -0.069493
C14   C     C_3   0.362106 0.145127 0.261591 -0.326367
C15   C     C_3   0.664468 0.858607 0.716847 -0.323224
C16   C     C_3   0.668984 0.149773 0.713679 -0.335804
C17   C     C_3   0.335715 0.850213 0.281925 -0.333789
C18   C     C_R   0.499566 0.499814 0.221136 0.541381
C19   C     C_R   0.500826 0.500191 0.778909 0.545089
C20   C     C_1   0.500160 0.499750 0.065712 -0.068877
C21   C     C_1   0.500643 0.500243 0.934377 -0.061961
C22   C     C_R   0.054344 0.394768 0.425973 0.202042
C23   C     C_R   0.944765 0.591096 0.597105 0.208409
C24   C     C_R   0.925726 0.406939 0.412231 0.208061
Cu1   Cu    Cu3+1 0.500000 0.640660 0.500000 0.937791
Cu2   Cu    Cu3+1 0.500000 0.359340 0.500000 0.935070
H1    H     H_    0.129861 0.078346 0.380904 0.114164
H2    H     H_    0.132471 0.828179 0.502628 0.091749
H3    H     H_    0.208574 0.888634 0.675156 0.130840
H4    H     H_    0.043536 0.866700 0.658221 0.150666
H5    H     H_    0.280880 0.089441 0.206291 0.090972
H6    H     H_    0.323226 0.243064 0.292652 0.230834
H7    H     H_    0.428063 0.161072 0.176378 0.137331
H8    H     H_    0.636836 0.880246 0.829453 0.093743
H9    H     H_    0.669920 0.748028 0.706047 0.231348
H10   H     H_    0.760920 0.895471 0.709130 0.135600
H11   H     H_    0.764864 0.121063 0.694943 0.090444
H12   H     H_    0.997540 0.141903 0.459213 0.151972
H13   H     H_    0.671892 0.261314 0.710685 0.190039
H14   H     H_    0.649687 0.121890 0.828083 0.091995
H15   H     H_    0.327079 0.739306 0.291305 0.198858
H16   H     H_    0.239954 0.885503 0.290131 0.066003
H17   H     H_    0.363733 0.871228 0.169221 0.114948
H18   H     H_    0.152432 0.176780 0.549400 0.117623
H19   H     H_    0.831721 0.502443 0.816140 0.081609
H20   H     H_    0.848917 0.663125 0.914766 0.123498
H21   H     H_    0.985522 0.571886 0.879408 0.150790
H22   H     H_    0.790925 0.480503 0.180973 0.093358
H23   H     H_    0.777189 0.310482 0.102297 0.132587
H24   H     H_    0.927631 0.391820 0.128345 0.126366
N1    N     N_R   0.500000 0.852070 0.500000 -0.225495
N2    N     N_R   0.500000 0.147930 0.500000 -0.224035
O1    O     O_R   0.319640 0.618740 0.499990 -0.489609
O2    O     O_3   0.892263 0.672286 0.699015 -0.575575
O3    O     O_3   0.853552 0.318473 0.318441 -0.522917
O4    O     O_3   0.146893 0.687337 0.679222 -0.529100
O5    O     O_R   0.680360 0.381260 0.500010 -0.478482
O6    O     O_R   0.680360 0.618740 0.500010 -0.493295
O7    O     O_R   0.319640 0.381260 0.499990 -0.491849
O8    O     O_R   0.500000 0.618760 0.288390 -0.515672
O9    O     O_R   0.500000 0.381240 0.711610 -0.522768
O10   O     O_R   0.500000 0.618760 0.711610 -0.502107
O11   O     O_R   0.500000 0.381240 0.288390 -0.507434
O12   O     O_3   0.106799 0.287297 0.355036 -0.556891

loop_
_geom_bond_atom_site_label_1
_geom_bond_atom_site_label_2
_ccdc_geom_bond_type
C10   H20   S    
C5    C8    A    
C2    C4    A    
Cu2   O11   S    
Cu1   N1    S    
C13   H2    S    
C6    C7    A    
C11   H23   S    
Cu1   O8    S    
Cu2   N2    S    
C6    N1    A    
C9    O12   S    
C4    C22   A    
Cu2   O7    S    
C16   H11   S    
C15   H8    S    
C3    C23   A    
C8    C17   S    
C14   H5    S    
C6    C15   S    
C1    C4    S    
C12   O6    A    
C13   O4    S    
C14   H7    S    
C17   H17   S    
C11   H22   S    
C5    N2    A    
C11   H24   S    
C2    O4    S    
Cu1   O1    S    
C24   O3    S    
C8    N1    A    
C5    C14   S    
C10   H19   S    
C10   O2    S    
C12   O5    A    
C18   O8    A    
C7    C16   S    
C19   C21   S    
Cu2   O9    S    
C16   H14   S    
C7    N2    A    
C18   C20   S    
Cu1   O10   S    
C1    O7    A    
C19   O9    A    
Cu2   O5    S    
C22   C24   A    
C18   O11   A    
C17   H15   S    
Cu1   O6    S    
C19   O10   A    
C22   O12   S    
C15   H10   S    
C2    C23   A    
C11   O3    S    
C20   C21   T    
C9    H1    S    
C23   O2    S    
C13   H3    S    
C10   H21   S    
C15   H9    S    
C1    O1    A    
C17   H16   S    
C9    H12   S    
C9    H18   S    
C3    C12   S    
C16   H13   S    
Cu1   Cu2   S    
C13   H4    S    
C14   H6    S    
C3    C24   A    
