data_mof_unit_21334.cif
_audit_creation_date              2012-12-10T20:07:06-0500
_audit_creation_method            fapswitch 2.2
_symmetry_space_group_name_H-M    P1
_symmetry_Int_Tables_number       1
_space_group_crystal_system       triclinic
_cell_length_a                    19.343381
_cell_length_b                    18.37455
_cell_length_c                    10.837673
_cell_angle_alpha                 89.333596
_cell_angle_beta                  90.350265
_cell_angle_gamma                 91.307785
_cell_volume                      3850.66017495

loop_
_atom_site_label
_atom_site_type_symbol
_atom_type_description
_atom_site_fract_x
_atom_site_fract_y
_atom_site_fract_z
_atom_type_partial_charge
C1    C     C_R   0.365473 0.499466 0.504269 1.013240
C2    C     C_R   0.929167 0.491789 0.553018 0.140662
C3    C     C_R   0.533077 0.723849 0.594858 0.110322
C4    C     C_R   0.470936 0.275114 0.598594 0.088206
C5    C     C_R   0.466321 0.728036 0.411144 0.051420
C6    C     C_R   0.529766 0.272749 0.407850 0.089298
C7    C     C_R   0.533682 0.799839 0.602557 -0.102776
C8    C     C_R   0.470651 0.198993 0.607007 -0.101866
C9    C     C_R   0.466125 0.804319 0.414803 -0.068905
C10   C     C_R   0.529876 0.196373 0.411974 -0.105464
C11   C     C_R   0.500427 0.841111 0.511139 0.231773
C12   C     C_R   0.634791 0.500665 0.506594 0.976600
C13   C     C_R   0.499626 0.158526 0.512133 0.246220
C14   C     C_R   0.437567 0.958996 0.534528 0.298077
C15   C     C_R   0.563080 0.040072 0.524360 0.292588
C16   C     C_R   0.563471 0.963498 0.506384 0.285110
C17   C     C_R   0.436086 0.035956 0.518084 0.287356
C18   C     C_R   0.499406 0.076987 0.518325 -0.283529
C19   C     C_R   0.500590 0.922451 0.517214 -0.282380
C20   C     C_R   0.497832 0.500317 0.258604 0.956253
C21   C     C_R   0.500708 0.499494 0.738998 0.937273
C22   C     C_R   0.552808 0.626563 0.103551 -0.304208
C23   C     C_R   0.710379 0.501527 0.526988 -0.312546
C24   C     C_R   0.400593 0.411814 0.867134 -0.252510
C25   C     C_R   0.598402 0.585201 0.874299 -0.264476
C26   C     C_R   0.428908 0.378790 0.111252 -0.202799
C27   C     C_R   0.599891 0.672025 0.038393 0.291202
C28   C     C_R   0.365798 0.353135 0.922171 0.360565
C29   C     C_R   0.628771 0.646428 0.928647 0.369430
C30   C     C_R   0.385960 0.331576 0.041557 0.297813
C31   C     C_R   0.543910 0.546080 0.933125 -0.004148
C32   C     C_R   0.459320 0.443328 0.058503 0.034748
C33   C     C_R   0.530343 0.558071 0.056687 0.033986
C34   C     C_R   0.289982 0.497728 0.515074 -0.305799
C35   C     C_R   0.452812 0.451481 0.930969 -0.004353
C36   C     C_R   0.499876 0.498143 0.869693 -0.075682
C37   C     C_R   0.494765 0.501019 0.124172 -0.104587
C38   C     C_R   0.742078 0.442705 0.592412 0.414441
C39   C     C_R   0.256110 0.540766 0.603805 0.418688
C40   C     C_R   0.250424 0.450187 0.439219 0.345884
C41   C     C_R   0.752995 0.560782 0.483332 0.401692
C42   C     C_R   0.813793 0.441262 0.601736 -0.198275
C43   C     C_R   0.184854 0.532010 0.618617 -0.181666
C44   C     C_R   0.179848 0.441922 0.457992 -0.218342
C45   C     C_R   0.964463 0.499786 0.441296 -0.143714
C46   C     C_R   0.824330 0.557405 0.497229 -0.229843
C47   C     C_R   0.854433 0.497383 0.552663 -0.048421
C48   C     C_R   0.147117 0.483048 0.546201 -0.045267
C49   C     C_R   0.036893 0.474297 0.661487 -0.139072
C50   C     C_R   0.035646 0.495281 0.439507 -0.147818
C51   C     C_R   0.965229 0.478272 0.663125 -0.142136
C52   C     C_R   0.072062 0.482844 0.549502 0.138079
H1    H     H_    0.531033 0.648700 0.185306 0.200693
H2    H     H_    0.064893 0.464879 0.746852 0.172562
H3    H     H_    0.062493 0.503049 0.352715 0.163676
H4    H     H_    0.938047 0.472112 0.749851 0.169059
H5    H     H_    0.558818 0.692137 0.665232 0.155821
H6    H     H_    0.448250 0.306036 0.671573 0.143963
H7    H     H_    0.439604 0.699682 0.337394 0.128845
H8    H     H_    0.553308 0.301741 0.330916 0.121831
H9    H     H_    0.559493 0.826285 0.679381 0.206842
H10   H     H_    0.448162 0.171824 0.686847 0.203861
H11   H     H_    0.439759 0.834474 0.342910 0.178764
H12   H     H_    0.387173 0.425515 0.772872 0.219996
H13   H     H_    0.552932 0.166950 0.337282 0.171924
H14   H     H_    0.464777 0.214731 0.168017 0.331572
H15   H     H_    0.778172 0.655709 0.725037 0.399141
H16   H     H_    0.236043 0.336011 0.678030 0.393979
H17   H     H_    0.511662 0.790019 0.127721 0.346896
H18   H     H_    0.609575 0.363906 0.795744 0.386263
H19   H     H_    0.383269 0.610491 0.825671 0.388695
H20   H     H_    0.301879 0.510130 0.207466 0.362816
H21   H     H_    0.625509 0.651466 0.313980 0.395991
H22   H     H_    0.282746 0.844145 0.490715 0.406067
H23   H     H_    0.616537 0.568980 0.784609 0.210998
H24   H     H_    0.715362 0.155839 0.462002 0.406895
H25   H     H_    0.718925 0.859054 0.565344 0.420952
H26   H     H_    0.278728 0.127722 0.608402 0.414395
H27   H     H_    0.437793 0.362124 0.204799 0.239268
H28   H     H_    0.838721 0.395532 0.645809 0.201000
H29   H     H_    0.157742 0.565425 0.683284 0.197063
H30   H     H_    0.149329 0.405738 0.399930 0.206058
H31   H     H_    0.857463 0.601454 0.463334 0.202876
H32   H     H_    0.936815 0.509560 0.355641 0.166446
N1    N     N_R   0.500000 0.689440 0.500000 -0.119361
N2    N     N_R   0.500000 0.310560 0.500000 -0.100170
O1    O     O_R   0.398180 0.560840 0.499970 -0.571180
O2    O     O_2   0.364841 0.187771 0.004147 -0.210527
O3    O     O_3   0.421035 0.221922 0.212867 -0.516567
O4    O     O_2   0.675880 0.750604 0.773861 -0.251649
O5    O     O_2   0.751433 0.717754 0.947370 -0.171462
O6    O     O_3   0.739651 0.628102 0.764945 -0.560625
O7    O     O_2   0.328353 0.243835 0.773318 -0.273091
O8    O     O_2   0.241370 0.284175 0.919804 -0.168938
O9    O     O_3   0.268191 0.366090 0.728715 -0.576547
O10   O     O_2   0.683138 0.762019 0.167196 -0.097553
O11   O     O_2   0.624662 0.814477 0.987591 -0.198362
O12   O     O_R   0.601820 0.439160 0.500030 -0.562852
O13   O     O_3   0.552402 0.787421 0.183294 -0.550365
O14   O     O_2   0.665532 0.319000 0.578842 -0.263558
O15   O     O_2   0.743641 0.330478 0.755847 -0.251915
O16   O     O_3   0.632934 0.406465 0.755800 -0.570815
O17   O     O_2   0.328232 0.667231 0.612398 -0.254199
O18   O     O_2   0.249196 0.641138 0.783200 -0.259604
O19   O     O_3   0.362880 0.570256 0.776321 -0.583054
O20   O     O_2   0.328948 0.346466 0.348605 -0.199680
O21   O     O_2   0.229279 0.381620 0.222859 -0.242338
O22   O     O_3   0.334335 0.471797 0.233077 -0.603781
O23   O     O_R   0.601820 0.560840 0.500030 -0.589987
O24   O     O_2   0.687559 0.686260 0.506758 -0.262474
O25   O     O_2   0.779484 0.684890 0.353365 -0.206136
O26   O     O_3   0.664236 0.618275 0.300687 -0.538366
O27   O     O_2   0.382543 0.843704 0.661667 -0.273581
O28   O     O_2   0.315304 0.953815 0.658010 -0.156731
O29   O     O_3   0.319347 0.877505 0.457968 -0.508102
O30   O     O_2   0.624931 0.152049 0.646533 -0.264100
O31   O     O_2   0.691107 0.041720 0.629600 -0.152500
O32   O     O_3   0.677400 0.122947 0.433508 -0.507402
O33   O     O_2   0.625973 0.855056 0.384123 -0.205132
O34   O     O_R   0.398180 0.439160 0.499970 -0.576654
O35   O     O_2   0.689379 0.970506 0.396328 -0.155445
O36   O     O_3   0.681029 0.889785 0.594409 -0.467056
O37   O     O_2   0.365528 0.147802 0.413978 -0.207917
O38   O     O_2   0.305001 0.030694 0.427390 -0.165005
O39   O     O_3   0.322996 0.104227 0.628879 -0.468171
O40   O     O_R   0.499990 0.560810 0.316770 -0.654158
O41   O     O_R   0.500010 0.439190 0.683230 -0.640805
O42   O     O_R   0.500010 0.560810 0.683230 -0.630300
O43   O     O_R   0.499990 0.439190 0.316770 -0.643869
O44   O     O_2   0.292791 0.244910 0.158180 -0.084582
S1    S     S_3+6 0.363771 0.244420 0.102950 0.164711
S2    S     S_3+6 0.640784 0.089733 0.563383 0.122249
S3    S     S_3+6 0.641449 0.919213 0.465195 0.145953
S4    S     S_3+6 0.355747 0.080439 0.492192 0.133982
S5    S     S_3+6 0.700388 0.688970 0.853880 0.105362
S6    S     S_3+6 0.299347 0.308663 0.836391 0.092130
S7    S     S_3+6 0.617284 0.761136 0.093078 0.132975
S8    S     S_3+6 0.696059 0.371322 0.670973 0.065332
S9    S     S_3+6 0.298855 0.608035 0.694837 0.060739
S10   S     S_3+6 0.285398 0.409124 0.308098 0.050133
S11   S     S_3+6 0.721600 0.640714 0.411161 0.091907
S12   S     S_3+6 0.362315 0.907891 0.583217 0.117701
Zn1   Zn    Zn3+2 0.500000 0.581210 0.500000 1.028474
Zn2   Zn    Zn3+2 0.500000 0.418790 0.500000 1.049476

loop_
_geom_bond_atom_site_label_1
_geom_bond_atom_site_label_2
_ccdc_geom_bond_type
O39   S4    S    
C1    O1    A    
C15   C18   A    
C14   S12   S    
C42   H28   S    
C8    C13   A    
O4    S5    D    
C27   C29   A    
C35   C36   A    
O34   Zn2   S    
C20   O43   A    
C4    C8    A    
O7    S6    D    
N1    Zn1   S    
N2    Zn2   S    
C21   C36   S    
C7    C11   A    
C12   C23   S    
C11   C19   S    
C5    C9    A    
O33   S3    D    
C13   C18   S    
C34   C40   A    
O28   S12   D    
C38   C42   A    
C3    C7    A    
C4    N2    A    
C15   C16   A    
O40   Zn1   S    
O27   S12   D    
C51   H4    S    
O16   S8    S    
O21   S10   D    
O31   S2    D    
C7    H9    S    
H25   O36   S    
O20   S10   D    
C15   S2    S    
H20   O22   S    
C49   C51   A    
C50   H3    S    
C50   C52   A    
C41   C46   A    
C31   C33   A    
O43   Zn2   S    
H14   O3    S    
C43   C48   A    
C12   O12   A    
O41   Zn2   S    
C5    N1    A    
O29   S12   S    
C24   H12   S    
C49   H2    S    
C28   S6    S    
C14   C17   A    
C16   S3    S    
C14   C19   A    
O11   S7    D    
C12   O23   A    
C1    C34   S    
C22   H1    S    
C2    C45   A    
C25   C29   A    
C39   S9    S    
H16   O9    S    
C5    H7    S    
O37   S4    D    
C34   C39   A    
C24   C35   A    
C32   C35   A    
C6    H8    S    
O10   S7    D    
O22   S10   S    
C26   C32   A    
C39   C43   A    
C33   C37   A    
C25   H23   S    
C1    O34   A    
O26   S11   S    
O24   S11   D    
O36   S3    S    
C41   S11   S    
O17   S9    D    
O19   S9    S    
O8    S6    D    
O30   S2    D    
C48   C52   S    
C49   C52   A    
C17   C18   A    
C38   S8    S    
O23   Zn1   S    
C27   S7    S    
C32   C37   A    
C21   O42   A    
C9    C11   A    
O14   S8    D    
H17   O13   S    
C29   S5    S    
C26   C30   A    
C22   C27   A    
H19   O19   S    
C43   H29   S    
C3    N1    A    
C45   H32   S    
C21   O41   A    
C3    H5    S    
C6    N2    A    
H21   O26   S    
C10   H13   S    
C22   C33   A    
C46   C47   A    
O12   Zn2   S    
C9    H11   S    
C25   C31   A    
C24   C28   A    
C10   C13   A    
C23   C41   A    
C6    C10   A    
O15   S8    D    
H18   O16   S    
C2    C47   S    
C23   C38   A    
C44   H30   S    
C26   H27   S    
O3    S1    S    
O18   S9    D    
O38   S4    D    
O1    Zn1   S    
C28   C30   A    
O44   S1    D    
O9    S6    S    
C20   C37   S    
C45   C50   A    
C16   C19   A    
H22   O29   S    
C40   S10   S    
H15   O6    S    
C20   O40   A    
C42   C47   A    
O42   Zn1   S    
H24   O32   S    
O32   S2    S    
C2    C51   A    
O25   S11   D    
C46   H31   S    
O6    S5    S    
C44   C48   A    
C40   C44   A    
O5    S5    D    
C4    H6    S    
C17   S4    S    
C31   C36   A    
O13   S7    S    
O2    S1    D    
O35   S3    D    
H26   O39   S    
C30   S1    S    
C8    H10   S    
