data_mof_unit_56484.cif
_audit_creation_date              2012-12-11T14:15:50-0500
_audit_creation_method            fapswitch 2.2
_symmetry_space_group_name_H-M    P1
_symmetry_Int_Tables_number       1
_space_group_crystal_system       triclinic
_cell_length_a                    11.113817
_cell_length_b                    12.704846
_cell_length_c                    23.554168
_cell_angle_alpha                 90.544364
_cell_angle_beta                  96.748861
_cell_angle_gamma                 68.912065
_cell_volume                      3079.66819861

loop_
_atom_site_label
_atom_site_type_symbol
_atom_type_description
_atom_site_fract_x
_atom_site_fract_y
_atom_site_fract_z
_atom_type_partial_charge
C1    C     C_R   0.150481 0.616972 0.429471 0.555975
C2    C     C_2   0.202028 0.231215 0.228425 0.057737
C3    C     C_2   0.154052 0.173775 0.262036 -0.124235
C4    C     C_R   0.744889 0.605916 0.405109 0.553662
C5    C     C_1   0.131578 0.202008 0.320444 0.026609
C6    C     C_1   0.219593 0.195554 0.170485 -0.002989
C7    C     C_1   0.115493 0.232382 0.368577 0.057374
C8    C     C_1   0.178604 0.763809 0.127700 0.047492
C9    C     C_2   0.173416 0.754855 0.239418 0.053563
C10   C     C_2   0.236585 0.658139 0.270422 -0.133394
C11   C     C_1   0.219629 0.645256 0.329405 0.025534
C12   C     C_R   0.617070 0.579192 0.314946 -0.023600
C13   C     C_1   0.175566 0.754670 0.178274 -0.016442
C14   C     C_1   0.195181 0.633140 0.376836 0.069728
C15   C     C_1   0.635280 0.757473 0.866913 0.080354
C16   C     C_R   0.101223 0.281452 0.423651 0.556079
C17   C     C_2   0.711372 0.729894 0.763296 0.026760
C18   C     C_2   0.774165 0.624760 0.744382 0.032951
C19   C     C_1   0.781478 0.605175 0.683908 0.027994
C20   C     C_1   0.674969 0.743898 0.820868 0.060424
C21   C     C_1   0.790955 0.588506 0.633852 0.052343
C22   C     C_R   0.195789 0.188352 0.856518 -0.013815
C23   C     C_R   0.693986 0.735941 0.321443 -0.115928
C24   C     C_R   0.101012 0.237327 0.643512 -0.020718
C25   C     C_R   0.996537 0.181606 0.717993 0.062564
C26   C     C_R   0.005480 0.197074 0.659338 -0.037131
C27   C     C_R   0.183910 0.263404 0.685470 -0.114813
C28   C     C_R   0.152916 0.618184 0.589801 0.533433
C29   C     C_R   0.176530 0.248903 0.742492 0.008145
C30   C     C_R   0.087921 0.202579 0.759561 0.040138
C31   C     C_R   0.099753 0.171711 0.817375 -0.106033
C32   C     C_R   0.268881 0.251312 0.839988 0.048030
C33   C     C_R   0.259518 0.279600 0.782569 -0.112284
C34   C     C_R   0.681134 0.747390 0.261684 -0.010174
C35   C     C_R   0.130574 0.746164 0.849924 -0.013313
C36   C     C_R   0.205725 0.644431 0.646307 -0.033460
C37   C     C_R   0.332998 0.575454 0.738670 0.007850
C38   C     C_R   0.315033 0.565889 0.678790 -0.078076
C39   C     C_R   0.127938 0.740601 0.672391 0.048368
C40   C     C_R   0.811202 0.570396 0.574991 0.554648
C41   C     C_R   0.125493 0.735613 0.731359 -0.026771
C42   C     C_R   0.229520 0.653376 0.765933 -0.019871
C43   C     C_R   0.226334 0.655645 0.825997 -0.020854
C44   C     C_R   0.019313 0.813891 0.814346 -0.042067
C45   C     C_R   0.649768 0.664709 0.229211 -0.007509
C46   C     C_R   0.018539 0.808820 0.755758 -0.123084
C47   C     C_R   0.265982 0.110115 0.069386 0.557622
C48   C     C_R   0.599906 0.775306 0.081819 0.562163
C49   C     C_R   0.189866 0.788572 0.069906 0.556840
C50   C     C_R   0.240392 0.117218 0.908571 0.568992
C51   C     C_R   0.575400 0.776386 0.918682 0.557360
C52   C     C_R   0.098703 0.279763 0.585725 0.528826
C53   C     C_R   0.164027 0.786159 0.906691 0.541038
C54   C     C_R   0.662276 0.757150 0.141727 -0.024053
C55   C     C_R   0.675792 0.645372 0.347744 -0.020830
C56   C     C_R   0.654307 0.665060 0.170806 -0.135279
C57   C     C_R   0.609174 0.585416 0.255356 -0.030372
C58   C     C_2   0.105732 0.864717 0.265071 0.618537
C59   C     C_2   0.835468 0.523683 0.783778 0.562865
C60   C     C_2   0.663005 0.833972 0.725320 0.557668
C61   C     C_2   0.364060 0.278922 0.880983 0.611320
C62   C     C_2   0.885972 0.153822 0.735468 0.585261
C63   C     C_1   0.913043 0.177503 0.615745 0.291010
C64   C     C_1   0.319628 0.567818 0.864105 0.280081
C65   C     C_2   0.727540 0.926537 0.142040 0.623174
C66   C     C_1   0.905586 0.891987 0.836375 0.238767
C67   C     C_R   0.694528 0.840956 0.172992 0.015743
C68   C     C_2   0.462225 0.510301 0.770441 0.590372
C69   C     C_1   0.413193 0.481608 0.650253 0.271679
C70   C     C_2   0.060972 0.847844 0.637978 0.621121
C71   C     C_1   0.559645 0.510051 0.221527 0.183228
C72   C     C_2   0.731869 0.925139 0.267962 0.602533
C73   C     C_1   0.568637 0.502565 0.341942 0.242683
C74   C     C_2   0.244090 0.325814 0.248213 0.618965
C75   C     C_R   0.703862 0.836142 0.233749 0.031155
C76   C     C_1   0.238447 0.161342 0.123194 0.041041
Cr1   Cr    Cr6+3 0.189770 0.415650 0.511620 1.083954
Cr2   Cr    Cr6+3 0.930400 0.667320 0.496770 1.095881
Cr3   Cr    Cr6+3 0.879870 0.417010 0.491650 1.078622
Cr4   Cr    Cr6+3 0.149500 0.973980 0.985330 1.073612
Cr5   Cr    Cr6+3 0.457000 0.976510 0.994660 1.114343
Cr6   Cr    Cr6+3 0.411170 0.724270 0.995270 1.081976
H1    H     H_    0.638480 0.597227 0.146783 0.169411
H2    H     H_    0.920343 0.459225 0.862658 0.353350
H3    H     H_    0.673052 0.912200 0.652764 0.374140
H4    H     H_    0.409987 0.320469 0.961469 0.356037
H5    H     H_    0.766129 0.066570 0.720797 0.366746
H6    H     H_    0.823506 0.957364 0.080406 0.351000
H7    H     H_    0.613141 0.513754 0.825862 0.372816
H8    H     H_    0.080468 0.962490 0.584659 0.341673
H9    H     H_    0.851748 0.964198 0.328266 0.353056
H10   H     H_    0.296849 0.409623 0.313816 0.344757
H11   H     H_    0.045534 0.122744 0.830926 0.167889
H12   H     H_    0.320925 0.321749 0.768791 0.166453
H13   H     H_    0.252687 0.299858 0.673904 0.154784
H14   H     H_    0.932806 0.862735 0.729465 0.209352
H15   H     H_    0.727953 0.791740 0.348061 0.179027
H16   H     H_    0.128439 0.104050 0.244789 0.159654
H17   H     H_    0.289463 0.582192 0.249228 0.162043
H18   H     H_    0.085238 0.961307 0.334465 0.334286
N1    N     N_1   0.839133 0.162100 0.580922 -0.212930
N2    N     N_1   0.395377 0.500885 0.895723 -0.209250
N3    N     N_1   0.814383 0.954523 0.853821 -0.212764
N4    N     N_1   0.491651 0.414437 0.627552 -0.214288
N5    N     N_1   0.520291 0.450060 0.194615 -0.208309
N6    N     N_1   0.530065 0.441476 0.363409 -0.256712
O1    O     O_R   0.196340 0.303200 0.448500 -0.471427
O2    O     O_R   0.555390 0.700940 0.062700 -0.520040
O3    O     O_R   0.295020 0.731920 0.049950 -0.495128
O4    O     O_R   0.199310 0.519670 0.454880 -0.486333
O5    O     O_R   0.094290 0.884230 0.921550 -0.496675
O6    O     O_R   0.168980 0.069410 0.926940 -0.505438
O7    O     O_R   0.358400 0.089990 0.927950 -0.471875
O8    O     O_R   0.544850 0.873850 0.939920 -0.486852
O9    O     O_R   0.536020 0.701900 0.936430 -0.481211
O10   O     O_R   0.277070 0.732810 0.932890 -0.489313
O11   O     O_3   0.339220 0.891590 0.991750 -0.281281
O12   O     O_R   0.811960 0.658090 0.547150 -0.464627
O13   O     O_R   0.045660 0.691380 0.441680 -0.483526
O14   O     O_R   0.811930 0.659460 0.430950 -0.496719
O15   O     O_R   0.757900 0.507620 0.421760 -0.489603
O16   O     O_R   0.988630 0.322990 0.439840 -0.496290
O17   O     O_R   0.196380 0.301720 0.573850 -0.501098
O18   O     O_R   0.199350 0.518300 0.571080 -0.504460
O19   O     O_R   0.045700 0.689900 0.567030 -0.483029
O20   O     O_2   0.026226 0.942071 0.234742 -0.494258
O21   O     O_R   0.135521 0.881912 0.322962 -0.684403
O22   O     O_2   0.851383 0.429822 0.765556 -0.480901
O23   O     O_R   0.757930 0.506140 0.547110 -0.485223
O24   O     O_R   0.878853 0.534636 0.840937 -0.708495
O25   O     O_2   0.580861 0.919847 0.740206 -0.484180
O26   O     O_R   0.713136 0.835960 0.673758 -0.680537
O27   O     O_2   0.468914 0.272282 0.866815 -0.436585
O28   O     O_R   0.335058 0.309485 0.936422 -0.675235
O29   O     O_2   0.830097 0.201433 0.775485 -0.428122
O30   O     O_R   0.842839 0.076431 0.705221 -0.672359
O31   O     O_2   0.683902 0.026177 0.153511 -0.433360
O32   O     O_R   0.807784 0.892246 0.098644 -0.681214
O33   O     O_2   0.510307 0.407890 0.766572 -0.440370
O34   O     O_R   0.988670 0.321620 0.556040 -0.516427
O35   O     O_R   0.529279 0.567180 0.804333 -0.690324
O36   O     O_2   0.942518 0.891680 0.631463 -0.458990
O37   O     O_R   0.135438 0.893163 0.609342 -0.678665
O38   O     O_2   0.652435 0.021606 0.264706 -0.440324
O39   O     O_R   0.845960 0.897211 0.305950 -0.677611
O40   O     O_2   0.264339 0.385661 0.212979 -0.496957
O41   O     O_R   0.264463 0.345175 0.306447 -0.677746
O42   O     O_3   0.000020 0.499990 0.500010 -0.301392
O43   O     O_R   0.113660 0.883270 0.047820 -0.493985
O44   O     O_R   0.186930 0.068530 0.043990 -0.500799
O45   O     O_R   0.377770 0.089040 0.054220 -0.473320
O46   O     O_R   0.562800 0.872960 0.056970 -0.474601

loop_
_geom_bond_atom_site_label_1
_geom_bond_atom_site_label_2
_ccdc_geom_bond_type
C24   C52   S    
C40   O12   A    
C40   O23   A    
C59   O24   S    
C8    C13   T    
C29   C33   A    
C35   C53   S    
H18   O21   S    
C41   C42   A    
C27   H13   S    
C24   C27   A    
C63   N1    T    
C33   H12   S    
C60   O26   S    
C61   O27   D    
C39   C41   A    
Cr2   O14   S    
Cr4   O44   S    
Cr3   O15   S    
C45   C57   A    
C70   O37   S    
C29   C30   A    
C22   C32   A    
Cr2   O12   S    
C24   C26   A    
C47   C76   S    
C18   C19   S    
H3    O26   S    
C30   C31   A    
C11   C14   T    
C27   C29   A    
C72   O39   S    
Cr3   O23   S    
C37   C68   S    
Cr5   O11   S    
C17   C20   S    
C9    C58   S    
C1    O13   A    
C62   O30   S    
C37   C42   A    
C16   O16   A    
C9    C13   S    
C16   O1    A    
C52   O34   A    
C44   C66   S    
H4    O28   S    
C45   C56   A    
C65   C67   S    
Cr5   O8    S    
C61   O28   S    
C41   C46   A    
C71   N5    T    
C15   C51   S    
C35   C43   A    
C9    C10   D    
H8    O37   S    
C2    C74   S    
C53   O10   A    
Cr2   O42   S    
C34   C75   A    
C22   C50   S    
C65   O31   D    
C53   O5    A    
Cr3   O34   S    
C38   C69   S    
C58   O21   S    
C12   C73   S    
H10   O41   S    
C2    C6    S    
C72   C75   S    
C66   N3    T    
C60   O25   D    
C44   C46   A    
C43   C64   S    
Cr4   O43   S    
Cr3   O16   S    
C54   C56   A    
C70   O36   D    
C51   O8    A    
C22   C31   A    
Cr6   O3    S    
C74   O41   S    
Cr1   O1    S    
C5    C7    T    
C54   C67   A    
C25   C26   A    
Cr5   O45   S    
C51   O9    A    
C15   C20   T    
C62   O29   D    
C48   C54   S    
C26   C63   S    
C37   C38   A    
Cr1   O17   S    
C1    O4    A    
C47   O44   A    
C23   C34   A    
Cr4   O6    S    
C50   O6    A    
C17   C18   D    
C68   O35   S    
C34   C45   A    
C57   C71   S    
C23   C55   A    
C35   C44   A    
Cr1   O42   S    
H6    O32   S    
C12   C57   A    
C7    C16   S    
C23   H15   S    
C47   O45   A    
C64   N2    T    
C58   O20   D    
Cr6   O2    S    
C48   O46   A    
C4    C55   S    
C67   C75   A    
C42   C43   A    
C65   O32   S    
H9    O39   S    
C28   O19   A    
C56   H1    S    
C49   O3    A    
C69   N4    T    
C25   C30   A    
C72   O38   D    
Cr4   O11   S    
C19   C21   T    
H5    O30   S    
C74   O40   D    
C36   C39   A    
C3    C5    S    
C32   C61   S    
C28   O18   A    
C6    C76   T    
Cr3   O42   S    
Cr5   O46   S    
C49   O43   A    
Cr6   O9    S    
C50   O7    A    
C32   C33   A    
C36   C38   A    
C2    C3    D    
C59   O22   D    
Cr6   O10   S    
Cr1   O18   S    
C31   H11   S    
C3    H16   S    
C73   N6    T    
C48   O2    A    
C21   C40   S    
H7    O35   S    
C8    C49   S    
Cr4   O5    S    
H2    O24   S    
C52   O17   A    
C39   C70   S    
C4    O15   A    
Cr2   O13   S    
C25   C62   S    
C10   H17   S    
C12   C55   A    
C10   C11   S    
C17   C60   S    
C18   C59   S    
C46   H14   S    
C28   C36   S    
Cr5   O7    S    
C4    O14   A    
C68   O33   D    
C1    C14   S    
Cr6   O11   S    
Cr2   O19   S    
Cr1   O4    S    
