data_mof_unit_33014.cif
_audit_creation_date              2013-03-05T15:46:14-0500
_audit_creation_method            fapswitch 2.2
_symmetry_space_group_name_H-M    P1
_symmetry_Int_Tables_number       1
_space_group_crystal_system       triclinic
_cell_length_a                    10.855127
_cell_length_b                    11.176555
_cell_length_c                    9.90468
_cell_angle_alpha                 109.260076
_cell_angle_beta                  99.195171
_cell_angle_gamma                 93.902432
_cell_volume                      1110.38805533

loop_
_atom_site_label
_atom_site_type_symbol
_atom_site_description
_atom_site_fract_x
_atom_site_fract_y
_atom_site_fract_z
_atom_type_partial_charge
O1    O     O_R   0.511820 0.332340 0.577400 -0.542327
O2    O     O_R   0.474400 0.295500 0.332650 -0.554399
C1    C     C_R   0.494385 0.255449 0.443642 0.926074
O3    O     O_R   0.336400 0.518400 0.622370 -0.524253
O4    O     O_R   0.298980 0.481560 0.377620 -0.569508
C2    C     C_R   0.260385 0.499505 0.499943 0.853775
Cu1   Cu    Cu3+1 0.522160 0.521810 0.644910 1.075262
Cu2   Cu    Cu3+1 0.477840 0.478190 0.355090 1.080626
O5    O     O_R   0.525600 0.704500 0.667350 -0.589266
O6    O     O_R   0.488180 0.667660 0.422600 -0.552555
O7    O     O_R   0.701020 0.518440 0.622380 -0.584254
O8    O     O_R   0.663600 0.481600 0.377630 -0.545388
C3    C     C_R   0.518960 0.743546 0.556886 0.772292
C4    C     C_R   0.739997 0.500813 0.500568 0.885572
C5    C     C_3   0.097537 0.529412 0.660497 -0.240440
H1    H     H_    0.140369 0.456526 0.700066 0.258080
C6    C     C_3   0.953872 0.512059 0.657438 -0.325465
H2    H     H_    0.931203 0.594414 0.744071 0.237542
C7    C     C_3   0.070185 0.604369 0.436802 -0.346187
C8    C     C_3   0.048630 0.366852 0.407225 0.106192
C9    C     C_3   0.122990 0.502701 0.501094 -0.290729
H3    H     H_    0.070957 0.304483 0.472800 0.185746
C10   C     C_3   0.878594 0.502778 0.501958 -0.293598
C11   C     C_3   0.931548 0.624617 0.464584 0.469749
C12   C     C_3   0.904772 0.376466 0.383965 0.039454
H4    H     H_    0.876180 0.386054 0.276459 0.234296
H5    H     H_    0.064322 0.560720 0.317890 0.269284
H6    H     H_    0.434612 0.877974 0.400034 0.195032
C13   C     C_2   0.497042 0.118853 0.418928 -0.327228
C14   C     C_2   0.527609 0.071746 0.527872 0.388609
C15   C     C_2   0.563022 0.875604 0.582797 -0.176518
C16   C     C_2   0.507792 0.932832 0.493169 -0.194867
H7    H     H_    0.469406 0.053268 0.307101 0.168167
H8    H     H_    0.601819 0.563715 0.146399 0.220538
N1    N     N_2   0.444530 0.445420 0.137360 -0.301131
C17   C     C_2   0.516203 0.505255 0.079000 -0.055927
H9    H     H_    0.613001 0.634206 0.935844 0.225016
N2    N     N_2   0.555520 0.554510 0.862630 -0.275446
C18   C     C_2   0.495633 0.481024 0.917504 0.116135
C19   C     C_2   0.159030 0.657879 0.771230 0.480015
H10   H     H_    0.123101 0.745396 0.769846 0.108076
O9    O     O_2   0.247041 0.664096 0.868001 -0.455166
N3    N     N_R   0.851934 0.633864 0.332401 0.122155
O10   O     O_R   0.775218 0.719963 0.345509 -0.297856
O11   O     O_R   0.859861 0.562093 0.201275 -0.348610
N4    N     N_R   0.564240 0.151630 0.679290 0.125266
O12   O     O_R   0.520660 0.115432 0.776656 -0.412154
O13   O     O_R   0.664696 0.234991 0.722231 -0.318679
C20   C     C_2   0.678722 0.933375 0.695791 0.679668
H11   H     H_    0.693503 0.909534 0.794392 0.092257
O14   O     O_2   0.761300 0.002055 0.676140 -0.393298
C21   C     C_2   0.414197 0.359385 0.826662 0.562876
H12   H     H_    0.413164 0.282018 0.868706 0.080179
O15   O     O_2   0.334838 0.347430 0.720393 -0.535205
C22   C     C_2   0.312893 0.414600 0.078963 0.630316
H13   H     H_    0.264624 0.325921 0.077106 0.118437
O16   O     O_2   0.253157 0.488790 0.037114 -0.456093
C23   C     C_2   0.916407 0.401523 0.705340 0.530248
H14   H     H_    0.834999 0.333169 0.645143 0.163881
O17   O     O_2   0.972184 0.393552 0.818785 -0.419397
C24   C     C_2   0.161462 0.725484 0.476692 0.506508
H15   H     H_    0.204630 0.779503 0.588746 0.055101
O18   O     O_2   0.189106 0.763191 0.381505 -0.469911
N5    N     N_R   0.932070 0.746727 0.585594 0.090920
O19   O     O_R   0.855626 0.754308 0.675655 -0.416867
O20   O     O_R   0.976057 0.854047 0.575217 -0.251991
N6    N     N_R   0.087185 0.306793 0.266899 0.138684
O21   O     O_R   0.052506 0.343314 0.156227 -0.298054
O22   O     O_R   0.146576 0.206994 0.248082 -0.316424
N7    N     N_R   0.828849 0.258424 0.375000 0.098089
O23   O     O_R   0.720435 0.223053 0.286187 -0.321393
O24   O     O_R   0.879009 0.173532 0.422185 -0.289533

loop_
_geom_bond_atom_site_label_1
_geom_bond_atom_site_label_2
_geom_bond_distance
_ccdc_geom_bond_type
C4    C10   1.500956 S    
O4    Cu2   1.990904 S    
C14   C16   1.467578 S    
C10   C11   1.617344 S    
O6    C3    1.294311 A    
Cu1   O5    1.976740 S    
H9    N2    1.030635 S    
C17   C18   1.507866 S    
C13   C14   1.354925 D    
C7    H5    1.105434 S    
C8    N6    1.471791 S    
H8    C17   1.080557 S    
N1    C17   1.309427 D    
Cu2   O8    1.989324 S    
C6    C23   1.515491 S    
C22   H13   1.082320 S    
N5    O19   1.299136 A    
C21   O15   1.212270 D    
C19   O9    1.220900 D    
C7    C11   1.590394 S    
C12   H4    1.102642 S    
Cu1   Cu2   2.704216 S    
C11   N5    1.488903 S    
C6    C10   1.590883 S    
C21   H12   1.076553 S    
Cu1   O7    1.990903 S    
N3    O11   1.302096 A    
N5    O20   1.302434 A    
N7    O23   1.300565 A    
C5    C9    1.580472 S    
C15   C20   1.486768 S    
O3    Cu1   1.989324 S    
O4    C2    1.302693 A    
Cu2   O6    1.988355 S    
C19   H10   1.080800 S    
C7    C9    1.573077 S    
Cu1   N2    2.031612 S    
O8    C4    1.302720 A    
C6    H2    1.105143 S    
O2    C1    1.310578 A    
C22   O16   1.222241 D    
N3    O10   1.302913 A    
C24   H15   1.081240 S    
C7    C24   1.519775 S    
O7    C4    1.300448 A    
N4    O13   1.300043 A    
C5    C19   1.518790 S    
C8    C12   1.558012 S    
C8    H3    1.112598 S    
C23   O17   1.221898 D    
C5    H1    1.112347 S    
C15   C16   1.346588 D    
C13   H7    1.087364 S    
H6    C16   1.088248 S    
C10   C12   1.584883 S    
N2    C18   1.314273 D    
C8    C9    1.575858 S    
O3    C2    1.297468 A    
C20   H11   1.085332 S    
N6    O22   1.301401 A    
C1    C13   1.467377 S    
C11   N3    1.487094 S    
O5    C3    1.298759 A    
N4    O12   1.301783 A    
O1    Cu1   1.988355 S    
N7    O24   1.302549 A    
C12   N7    1.476151 S    
C20   O14   1.221181 D    
C23   H14   1.076696 S    
C5    C6    1.552551 S    
C2    C9    1.496069 S    
N1    C22   1.425646 S    
C3    C15   1.444953 S    
C24   O18   1.221417 D    
O2    Cu2   1.976740 S    
N6    O21   1.301584 A    
C18   C21   1.488122 S    
O1    C1    1.294664 A    
Cu2   N1    2.031568 S    
C14   N4    1.442984 S    
