data_mof_unit_56962.cif
_audit_creation_date              2013-03-05T16:00:16-0500
_audit_creation_method            fapswitch 2.2
_symmetry_space_group_name_H-M    P1
_symmetry_Int_Tables_number       1
_space_group_crystal_system       triclinic
_cell_length_a                    11.704728
_cell_length_b                    14.719884
_cell_length_c                    14.710735
_cell_angle_alpha                 65.23761
_cell_angle_beta                  103.105223
_cell_angle_gamma                 102.70582
_cell_volume                      2219.06600359

loop_
_atom_site_label
_atom_site_type_symbol
_atom_site_description
_atom_site_fract_x
_atom_site_fract_y
_atom_site_fract_z
_atom_type_partial_charge
O1    O     O_R   0.459870 0.022090 0.338120 -0.530407
O2    O     O_R   0.540130 0.977910 0.661880 -0.530408
O3    O     O_R   0.511290 0.160150 0.379180 -0.608445
O4    O     O_R   0.488710 0.839850 0.620820 -0.608448
C1    C     C_R   0.480501 0.119619 0.312293 0.836494
C2    C     C_R   0.519508 0.880380 0.687708 0.836505
O5    O     O_R   0.311490 0.930960 0.479480 -0.528156
O6    O     O_R   0.688510 0.069040 0.520520 -0.528151
O7    O     O_R   0.362910 0.069020 0.520540 -0.583532
O8    O     O_R   0.637090 0.930980 0.479460 -0.583537
C3    C     C_R   0.284169 0.000278 0.500019 0.823901
C4    C     C_R   0.715831 0.999722 0.499981 0.823883
Cu1   Cu    Cu3+1 0.469550 0.918260 0.475690 1.020865
Cu2   Cu    Cu3+1 0.530450 0.081740 0.524310 1.020864
C5    C     C_1   0.162596 0.000643 0.500130 -0.134034
C6    C     C_1   0.837404 0.999357 0.499870 -0.134033
C7    C     C_1   0.060007 0.000324 0.500068 0.034151
C8    C     C_1   0.939993 0.999676 0.499932 0.034149
C9    C     C_R   0.468790 0.187216 0.204625 -0.156518
C10   C     C_R   0.531236 0.812780 0.795375 -0.156517
C11   C     C_R   0.420790 0.215454 0.026983 0.671201
C12   C     C_R   0.579187 0.784526 0.973020 0.671260
C13   C     C_R   0.427988 0.149758 0.128434 -0.216962
C14   C     C_R   0.572004 0.850232 0.871573 -0.216966
C15   C     C_R   0.497277 0.291295 0.178570 -0.226872
C16   C     C_R   0.502794 0.708698 0.821422 -0.226851
C17   C     C_R   0.483767 0.360171 0.077204 0.001848
C18   C     C_R   0.516283 0.639815 0.922785 0.001828
C19   C     C_R   0.453761 0.320965 0.999933 -0.111014
C20   C     C_R   0.546228 0.679015 0.000055 -0.110977
C21   C     C_R   0.501559 0.466598 0.051461 0.054234
C22   C     C_R   0.498491 0.533386 0.948529 0.054239
C23   C     C_R   0.481764 0.491953 0.874510 -0.284594
C24   C     C_R   0.518224 0.508027 0.125477 -0.284665
C25   C     C_R   0.457911 0.388161 0.898437 0.347152
C26   C     C_R   0.541996 0.611825 0.101541 0.347241
H1    H     H_    0.466665 0.683161 0.760778 0.173066
H2    H     H_    0.533448 0.316841 0.239204 0.173069
H3    H     H_    0.597707 0.930589 0.852813 0.221490
H4    H     H_    0.402264 0.069402 0.147203 0.221520
H5    H     H_    0.491502 0.538253 0.796685 0.164255
H6    H     H_    0.508431 0.461721 0.203292 0.164274
N1    N     N_R   0.576230 0.204580 0.560790 -0.235176
N2    N     N_R   0.423770 0.795420 0.439210 -0.235174
C27   C     C_R   0.698584 0.286305 0.665878 -0.307620
C28   C     C_R   0.301409 0.713692 0.334128 -0.307525
C29   C     C_R   0.666393 0.204050 0.637585 0.819700
C30   C     C_R   0.333611 0.795952 0.362411 0.819686
C31   C     C_R   0.515211 0.284963 0.509567 -0.083807
C32   C     C_R   0.484773 0.715028 0.490446 -0.083814
C33   C     C_R   0.543763 0.371478 0.534760 0.001037
C34   C     C_R   0.456212 0.628509 0.465260 0.001052
C35   C     C_R   0.637673 0.370015 0.615068 0.087968
C36   C     C_R   0.362305 0.629975 0.384949 0.087965
C37   C     C_R   0.482857 0.458269 0.484216 0.138877
C38   C     C_R   0.517108 0.541713 0.515812 0.138875
C39   C     C_R   0.610894 0.535481 0.596810 -0.180993
C40   C     C_R   0.389068 0.464500 0.403219 -0.180842
C41   C     C_R   0.669916 0.451553 0.644878 -0.085310
C42   C     C_R   0.330053 0.548431 0.355147 -0.085126
H7    H     H_    0.741367 0.450226 0.706770 0.146868
H8    H     H_    0.258604 0.549760 0.293253 0.146869
H9    H     H_    0.555415 0.721113 0.549621 0.149811
H10   H     H_    0.444563 0.278874 0.450397 0.149819
H11   H     H_    0.770510 0.284344 0.727545 0.180282
H12   H     H_    0.229485 0.715655 0.272457 0.180299
H13   H     H_    0.641101 0.594348 0.625528 0.121532
H14   H     H_    0.358860 0.405632 0.374501 0.121508
N3    N     N_R   0.446983 0.353002 0.818885 0.171759
O9    O     O_R   0.383893 0.396529 0.731585 -0.355130
O10   O     O_R   0.518118 0.292672 0.826465 -0.306242
N4    N     N_R   0.552615 0.647001 0.181030 0.171704
O11   O     O_R   0.615547 0.603518 0.268433 -0.355199
O12   O     O_R   0.481397 0.707359 0.173238 -0.306357
F1    F     F_    0.376518 0.174953 0.956381 -0.589911
F2    F     F_    0.623435 0.825014 0.043639 -0.589926
F3    F     F_    0.274575 0.876911 0.312507 -0.641931
F4    F     F_    0.725439 0.123098 0.687480 -0.641926

loop_
_geom_bond_atom_site_label_1
_geom_bond_atom_site_label_2
_geom_bond_distance
_ccdc_geom_bond_type
N2    C30   1.358540 A    
C37   C38   1.436163 A    
C17   C19   1.424030 A    
C24   H6    1.076859 S    
C12   F2    1.357031 S    
C35   C41   1.393524 A    
C36   C42   1.393524 A    
O5    C3    1.296257 A    
O1    C1    1.302248 A    
C28   H12   1.083969 S    
C39   C41   1.387653 A    
C40   C42   1.387655 A    
C13   H4    1.083255 S    
C14   H3    1.083255 S    
C38   C39   1.411674 A    
C42   H8    1.084326 S    
O4    Cu1   1.942428 S    
N3    O10   1.301742 A    
N2    C32   1.363349 A    
C3    C5    1.424549 S    
C10   C14   1.395528 A    
C31   C33   1.422258 A    
C32   C34   1.422257 A    
C33   C37   1.434471 A    
C27   C35   1.399468 A    
C31   H10   1.075089 S    
Cu1   Cu2   2.695651 S    
C32   H9    1.075089 S    
O2    C2    1.302251 A    
C39   H13   1.076331 S    
C9    C15   1.395194 A    
C34   C36   1.415833 A    
C27   C29   1.389798 A    
C28   C30   1.389799 A    
C41   H7    1.084324 S    
C17   C21   1.426980 A    
C4    C6    1.424550 S    
C18   C22   1.427001 A    
N4    O12   1.301737 A    
N1    C31   1.363349 A    
C11   C19   1.416936 A    
C33   C35   1.415834 A    
C30   F3    1.354944 S    
C9    C13   1.395521 A    
O7    Cu2   1.918738 S    
C15   H2    1.075146 S    
C21   C22   1.415779 A    
O6    C4    1.296260 A    
C28   C36   1.399465 A    
C7    C8    1.402210 S    
C21   C24   1.415307 A    
O7    C3    1.297663 A    
O3    Cu2   1.942425 S    
O8    C4    1.297662 A    
O4    C2    1.300148 A    
C11   C13   1.392622 A    
C27   H11   1.083967 S    
C12   C14   1.392616 A    
O1    Cu1   1.955874 S    
C40   H14   1.076334 S    
C5    C7    1.199545 T    
C19   C25   1.408757 A    
O6    Cu2   1.915302 S    
C12   C20   1.416933 A    
N4    O11   1.301511 A    
O3    C1    1.300147 A    
O8    Cu1   1.918740 S    
C16   H1    1.075134 S    
C1    C9    1.469287 S    
C15   C17   1.404845 A    
C2    C10   1.469302 S    
C11   F1    1.356964 S    
C16   C18   1.404843 A    
C20   C26   1.408740 A    
C23   H5    1.076835 S    
C22   C23   1.415290 A    
C18   C20   1.423983 A    
C10   C16   1.395203 A    
C23   C25   1.393721 A    
C24   C26   1.393773 A    
N3    O9    1.301490 A    
O2    Cu2   1.955875 S    
C26   N4    1.436623 S    
O5    Cu1   1.915303 S    
C25   N3    1.436702 S    
C6    C8    1.199545 T    
C37   C40   1.411677 A    
C29   F4    1.354942 S    
N1    C29   1.358539 A    
Cu1   N2    2.025077 S    
C34   C38   1.434470 A    
Cu2   N1    2.025077 S    
