data_mof_unit_60470.cif
_audit_creation_date              2012-12-10T16:55:26-0500
_audit_creation_method            fapswitch 2.2
_symmetry_space_group_name_H-M    P1
_symmetry_Int_Tables_number       1
_space_group_crystal_system       triclinic
_cell_length_a                    29.313537
_cell_length_b                    30.117677
_cell_length_c                    21.117144
_cell_angle_alpha                 90.000015
_cell_angle_beta                  131.838614
_cell_angle_gamma                 90.0
_cell_volume                      13889.8217077

loop_
_atom_site_label
_atom_site_type_symbol
_atom_type_description
_atom_site_fract_x
_atom_site_fract_y
_atom_site_fract_z
_atom_type_partial_charge
C1    C     C_R   0.306887 0.189971 0.117282 0.838387
C2    C     C_R   0.693113 0.810029 0.882718 0.838386
C3    C     C_R   0.693113 0.189971 0.882718 0.838386
C4    C     C_R   0.306887 0.810029 0.117282 0.838387
C5    C     C_R   0.806887 0.689971 0.117282 0.838387
C6    C     C_R   0.193113 0.310029 0.882718 0.838386
C7    C     C_R   0.193113 0.689971 0.882718 0.838386
C8    C     C_R   0.806887 0.310028 0.117282 0.838387
C9    C     C_R   0.368971 0.126421 0.311525 -0.093996
C10   C     C_R   0.631029 0.873578 0.688475 -0.093995
C11   C     C_R   0.631029 0.126421 0.688475 -0.093996
C12   C     C_R   0.368970 0.873579 0.311524 -0.093996
C13   C     C_R   0.868971 0.626421 0.311525 -0.093996
C14   C     C_R   0.131029 0.373578 0.688475 -0.093995
C15   C     C_R   0.131029 0.626421 0.688475 -0.093996
C16   C     C_R   0.868970 0.373579 0.311524 -0.093996
C17   C     C_R   0.324073 0.146355 0.231573 -0.099442
C18   C     C_R   0.675927 0.853645 0.768427 -0.099442
C19   C     C_R   0.675928 0.146355 0.768427 -0.099442
C20   C     C_R   0.324072 0.853646 0.231573 -0.099442
C21   C     C_R   0.824073 0.646355 0.231573 -0.099442
C22   C     C_R   0.175927 0.353645 0.768427 -0.099442
C23   C     C_R   0.175928 0.646355 0.768427 -0.099442
C24   C     C_R   0.824072 0.353646 0.231573 -0.099442
C25   C     C_R   0.338361 0.154715 0.180545 -0.054066
C26   C     C_R   0.661639 0.845285 0.819455 -0.054066
C27   C     C_R   0.661639 0.154715 0.819455 -0.054065
C28   C     C_R   0.338361 0.845285 0.180545 -0.054064
C29   C     C_R   0.838361 0.654715 0.180545 -0.054066
C30   C     C_R   0.161639 0.345285 0.819455 -0.054066
C31   C     C_R   0.161639 0.654715 0.819455 -0.054065
C32   C     C_R   0.838361 0.345285 0.180545 -0.054064
C33   C     C_R   0.390568 0.135761 0.200670 -0.083704
C34   C     C_R   0.609433 0.864239 0.799330 -0.083703
C35   C     C_R   0.609432 0.135761 0.799329 -0.083703
C36   C     C_R   0.390568 0.864239 0.200671 -0.083704
C37   C     C_R   0.890568 0.635761 0.200670 -0.083704
C38   C     C_R   0.109433 0.364239 0.799330 -0.083703
C39   C     C_R   0.109432 0.635761 0.799329 -0.083703
C40   C     C_R   0.890568 0.364239 0.200671 -0.083704
C41   C     C_R   0.427507 0.106890 0.270429 -0.079957
C42   C     C_R   0.572494 0.893110 0.729572 -0.079956
C43   C     C_R   0.572493 0.106890 0.729571 -0.079957
C44   C     C_R   0.427507 0.893110 0.270429 -0.079957
C45   C     C_R   0.927507 0.606890 0.270429 -0.079957
C46   C     C_R   0.072494 0.393110 0.729572 -0.079956
C47   C     C_R   0.072493 0.606890 0.729571 -0.079957
C48   C     C_R   0.927507 0.393110 0.270429 -0.079957
C49   C     C_R   0.415084 0.100597 0.324492 -0.078812
C50   C     C_R   0.584916 0.899403 0.675508 -0.078812
C51   C     C_R   0.584916 0.100598 0.675508 -0.078811
C52   C     C_R   0.415084 0.899402 0.324493 -0.078812
C53   C     C_R   0.915084 0.600597 0.324492 -0.078812
C54   C     C_R   0.084916 0.399403 0.675508 -0.078812
C55   C     C_R   0.084916 0.600598 0.675508 -0.078811
C56   C     C_R   0.915084 0.399402 0.324493 -0.078812
C57   C     C_R   0.943453 0.436761 0.385460 0.881574
C58   C     C_R   0.056547 0.563239 0.614540 0.881572
C59   C     C_R   0.056547 0.436761 0.614540 0.881573
C60   C     C_R   0.943453 0.563239 0.385460 0.881574
C61   C     C_R   0.443453 0.936761 0.385460 0.881574
C62   C     C_R   0.556547 0.063239 0.614540 0.881572
C63   C     C_R   0.556547 0.936761 0.614540 0.881573
C64   C     C_R   0.443453 0.063239 0.385460 0.881574
C65   C     C_R   0.334759 0.248932 0.000434 0.828418
C66   C     C_R   0.665241 0.751068 0.999566 0.828418
C67   C     C_R   0.665241 0.248932 0.999566 0.828418
C68   C     C_R   0.334759 0.751068 0.000434 0.828418
C69   C     C_R   0.834759 0.748932 0.000434 0.828418
C70   C     C_R   0.165241 0.251068 0.999566 0.828418
C71   C     C_R   0.165241 0.748932 0.999566 0.828418
C72   C     C_R   0.834759 0.251068 0.000434 0.828418
C73   C     C_1   0.385737 0.247861 0.999785 -0.067922
C74   C     C_1   0.614263 0.752139 0.000215 -0.067922
C75   C     C_1   0.614263 0.247861 0.000215 -0.067921
C76   C     C_1   0.385737 0.752139 0.999785 -0.067922
C77   C     C_1   0.885737 0.747861 0.999785 -0.067922
C78   C     C_1   0.114263 0.252139 0.000215 -0.067922
C79   C     C_1   0.114263 0.747861 0.000215 -0.067921
C80   C     C_1   0.885737 0.252139 0.999785 -0.067922
C81   C     C_1   0.428203 0.247464 0.999707 0.100044
C82   C     C_1   0.571797 0.752536 0.000293 0.100044
C83   C     C_1   0.571797 0.247464 0.000293 0.100044
C84   C     C_1   0.428203 0.752536 0.999707 0.100044
C85   C     C_1   0.928203 0.747464 0.999707 0.100044
C86   C     C_1   0.071797 0.252536 0.000293 0.100044
C87   C     C_1   0.071797 0.747464 0.000293 0.100044
C88   C     C_1   0.928203 0.252536 0.999707 0.100044
C89   C     C_1   0.478691 0.247297 0.999890 0.096937
C90   C     C_1   0.521309 0.752703 0.000110 0.096937
C91   C     C_1   0.521309 0.247297 0.000110 0.096937
C92   C     C_1   0.478691 0.752703 0.999890 0.096937
C93   C     C_1   0.978691 0.747297 0.999890 0.096937
C94   C     C_1   0.021309 0.252703 0.000110 0.096937
C95   C     C_1   0.021309 0.747297 0.000110 0.096937
C96   C     C_1   0.978691 0.252703 0.999890 0.096937
C97   C     C_R   0.267047 0.157577 0.206620 0.230474
C98   C     C_R   0.732953 0.842423 0.793379 0.230474
C99   C     C_R   0.732953 0.157577 0.793380 0.230474
C100  C     C_R   0.267047 0.842423 0.206620 0.230473
C101  C     C_R   0.767047 0.657577 0.206620 0.230474
C102  C     C_R   0.232953 0.342423 0.793379 0.230474
C103  C     C_R   0.232953 0.657577 0.793380 0.230474
C104  C     C_R   0.767046 0.342423 0.206620 0.230473
C105  C     C_R   0.261296 0.159440 0.267441 0.294399
C106  C     C_R   0.738704 0.840560 0.732558 0.294400
C107  C     C_R   0.738705 0.159439 0.732559 0.294400
C108  C     C_R   0.261295 0.840561 0.267441 0.294401
C109  C     C_R   0.761296 0.659440 0.267442 0.294400
C110  C     C_R   0.238704 0.340560 0.732558 0.294400
C111  C     C_R   0.238705 0.659439 0.732559 0.294400
C112  C     C_R   0.761295 0.340561 0.267441 0.294401
C113  C     C_R   0.311949 0.149962 0.352633 0.282899
C114  C     C_R   0.688051 0.850038 0.647367 0.282898
C115  C     C_R   0.688051 0.149962 0.647367 0.282898
C116  C     C_R   0.311948 0.850038 0.352632 0.282898
C117  C     C_R   0.811949 0.649962 0.352633 0.282898
C118  C     C_R   0.188051 0.350038 0.647367 0.282898
C119  C     C_R   0.188051 0.649962 0.647367 0.282898
C120  C     C_R   0.811948 0.350038 0.352632 0.282898
C121  C     C_R   0.365905 0.133489 0.375103 0.287289
C122  C     C_R   0.634095 0.866511 0.624897 0.287289
C123  C     C_R   0.634095 0.133489 0.624897 0.287289
C124  C     C_R   0.365904 0.866511 0.375103 0.287289
C125  C     C_R   0.865905 0.633489 0.375103 0.287289
C126  C     C_R   0.134095 0.366511 0.624897 0.287289
C127  C     C_R   0.134095 0.633489 0.624897 0.287289
C128  C     C_R   0.865904 0.366511 0.375103 0.287289
Cu1   Cu    Cu3+1 0.280720 0.280980 0.061500 1.130592
Cu2   Cu    Cu3+1 0.719280 0.719020 0.938500 1.130592
Cu3   Cu    Cu3+1 0.719280 0.280980 0.938500 1.130593
Cu4   Cu    Cu3+1 0.280720 0.719020 0.061500 1.130593
Cu5   Cu    Cu3+1 0.780720 0.780980 0.061500 1.130592
Cu6   Cu    Cu3+1 0.219280 0.219020 0.938500 1.130592
Cu7   Cu    Cu3+1 0.219280 0.780980 0.938500 1.130593
Cu8   Cu    Cu3+1 0.780720 0.219020 0.061500 1.130593
Cu9   Cu    Cu3+1 0.042420 0.500000 0.499930 1.161591
Cu10  Cu    Cu3+1 0.957580 0.500000 0.500070 1.161593
Cu11  Cu    Cu3+1 0.542420 0.000000 0.499930 1.161591
Cu12  Cu    Cu3+1 0.457580 0.000000 0.500070 1.161593
O1    O     O_R   0.321010 0.231060 0.142100 -0.579423
O2    O     O_R   0.678990 0.768940 0.857900 -0.579422
O3    O     O_R   0.678990 0.231060 0.857900 -0.579422
O4    O     O_R   0.321010 0.768940 0.142100 -0.579422
O5    O     O_R   0.821010 0.731060 0.142100 -0.579423
O6    O     O_R   0.178990 0.268940 0.857900 -0.579422
O7    O     O_R   0.178990 0.731060 0.857900 -0.579422
O8    O     O_R   0.821010 0.268940 0.142100 -0.579422
O9    O     O_R   0.269040 0.178650 0.038140 -0.508676
O10   O     O_R   0.730960 0.821350 0.961860 -0.508676
O11   O     O_R   0.730960 0.178650 0.961860 -0.508676
O12   O     O_R   0.269040 0.821350 0.038140 -0.508676
O13   O     O_R   0.769040 0.678650 0.038140 -0.508676
O14   O     O_R   0.230960 0.321350 0.961860 -0.508676
O15   O     O_R   0.230960 0.678650 0.961860 -0.508676
O16   O     O_R   0.769040 0.321350 0.038140 -0.508676
O17   O     O_R   0.337910 0.276140 0.051940 -0.527065
O18   O     O_R   0.662090 0.723860 0.948060 -0.527065
O19   O     O_R   0.662090 0.276140 0.948060 -0.527065
O20   O     O_R   0.337910 0.723860 0.051940 -0.527065
O21   O     O_R   0.837910 0.776140 0.051940 -0.527065
O22   O     O_R   0.162090 0.223860 0.948060 -0.527065
O23   O     O_R   0.162090 0.776140 0.948060 -0.527065
O24   O     O_R   0.837910 0.223860 0.051940 -0.527065
O25   O     O_R   0.285940 0.223740 0.947980 -0.558564
O26   O     O_R   0.714060 0.776260 0.052020 -0.558564
O27   O     O_R   0.714060 0.223740 0.052020 -0.558564
O28   O     O_R   0.285940 0.776260 0.947980 -0.558563
O29   O     O_R   0.785940 0.723740 0.947980 -0.558564
O30   O     O_R   0.214060 0.276260 0.052020 -0.558564
O31   O     O_R   0.214060 0.723740 0.052020 -0.558564
O32   O     O_R   0.785940 0.276260 0.947980 -0.558563
O33   O     O_R   0.990910 0.454660 0.410130 -0.563265
O34   O     O_R   0.009090 0.545340 0.589870 -0.563262
O35   O     O_R   0.009090 0.454660 0.589870 -0.563261
O36   O     O_R   0.990910 0.545340 0.410130 -0.563262
O37   O     O_R   0.490910 0.954660 0.410130 -0.563265
O38   O     O_R   0.509090 0.045340 0.589870 -0.563262
O39   O     O_R   0.509090 0.954660 0.589870 -0.563261
O40   O     O_R   0.490910 0.045340 0.410130 -0.563262
O41   O     O_R   0.919170 0.454670 0.410130 -0.563375
O42   O     O_R   0.080830 0.545330 0.589870 -0.563375
O43   O     O_R   0.080830 0.454670 0.589870 -0.563376
O44   O     O_R   0.919170 0.545330 0.410130 -0.563375
O45   O     O_R   0.419170 0.954670 0.410130 -0.563375
O46   O     O_R   0.580830 0.045330 0.589870 -0.563375
O47   O     O_R   0.580830 0.954670 0.589870 -0.563376
O48   O     O_R   0.419170 0.045330 0.410130 -0.563375
C129  C     C_2   0.406815 0.146242 0.148815 0.834976
O49   O     O_2   0.457593 0.160904 0.183222 -0.542960
O50   O     O_R   0.364403 0.138639 0.061201 -0.713263
H1    H     H_    0.380997 0.146718 0.033236 0.335744
C130  C     C_2   0.593185 0.853758 0.851185 0.834975
O51   O     O_2   0.542407 0.839096 0.816778 -0.542960
O52   O     O_R   0.635597 0.861362 0.938799 -0.713262
H2    H     H_    0.619003 0.853282 0.966764 0.335744
C131  C     C_2   0.593185 0.146243 0.851185 0.834975
O53   O     O_2   0.542407 0.160905 0.816778 -0.542960
O54   O     O_R   0.635596 0.138639 0.938798 -0.713262
H3    H     H_    0.619002 0.146718 0.966763 0.335744
C132  C     C_2   0.406816 0.853757 0.148816 0.834972
O55   O     O_2   0.457593 0.839095 0.183223 -0.542958
O56   O     O_R   0.364404 0.861361 0.061202 -0.713263
H4    H     H_    0.380998 0.853282 0.033237 0.335744
C133  C     C_2   0.906815 0.646242 0.148815 0.834976
O57   O     O_2   0.957593 0.660904 0.183222 -0.542960
O58   O     O_R   0.864403 0.638639 0.061201 -0.713263
H5    H     H_    0.880997 0.646718 0.033236 0.335744
C134  C     C_2   0.093185 0.353758 0.851185 0.834975
O59   O     O_2   0.042407 0.339096 0.816778 -0.542960
O60   O     O_R   0.135597 0.361362 0.938799 -0.713262
H6    H     H_    0.119003 0.353282 0.966764 0.335744
C135  C     C_2   0.093185 0.646243 0.851185 0.834975
O61   O     O_2   0.042407 0.660905 0.816778 -0.542960
O62   O     O_R   0.135596 0.638639 0.938798 -0.713262
H7    H     H_    0.119002 0.646718 0.966763 0.335744
C136  C     C_2   0.906816 0.353757 0.148816 0.834972
O63   O     O_2   0.957593 0.339095 0.183223 -0.542958
O64   O     O_R   0.864404 0.361361 0.061202 -0.713263
H8    H     H_    0.880998 0.353282 0.033237 0.335744
Cl1   Cl    Cl    0.199631 0.159269 0.098412 -0.521080
Cl2   Cl    Cl    0.800369 0.840731 0.901588 -0.521080
Cl3   Cl    Cl    0.800369 0.159269 0.901588 -0.521080
Cl4   Cl    Cl    0.199631 0.840731 0.098411 -0.521080
Cl5   Cl    Cl    0.699631 0.659269 0.098412 -0.521080
Cl6   Cl    Cl    0.300369 0.340731 0.901588 -0.521080
Cl7   Cl    Cl    0.300369 0.659269 0.901588 -0.521080
Cl8   Cl    Cl    0.699631 0.340731 0.098411 -0.521080
Cl9   Cl    Cl    0.190994 0.175068 0.237255 -0.390522
Cl10  Cl    Cl    0.809005 0.824932 0.762744 -0.390522
Cl11  Cl    Cl    0.809006 0.175067 0.762745 -0.390522
Cl12  Cl    Cl    0.190994 0.824933 0.237254 -0.390523
Cl13  Cl    Cl    0.690994 0.675068 0.237255 -0.390522
Cl14  Cl    Cl    0.309005 0.324932 0.762744 -0.390522
Cl15  Cl    Cl    0.309006 0.675068 0.762745 -0.390522
Cl16  Cl    Cl    0.690994 0.324933 0.237254 -0.390523
Cl17  Cl    Cl    0.307183 0.157498 0.431043 -0.329738
Cl18  Cl    Cl    0.692816 0.842502 0.568956 -0.329738
Cl19  Cl    Cl    0.692818 0.157497 0.568957 -0.329739
Cl20  Cl    Cl    0.307182 0.842503 0.431042 -0.329739
Cl21  Cl    Cl    0.807183 0.657498 0.431043 -0.329738
Cl22  Cl    Cl    0.192816 0.342502 0.568956 -0.329738
Cl23  Cl    Cl    0.192818 0.657497 0.568957 -0.329739
Cl24  Cl    Cl    0.807182 0.342503 0.431042 -0.329739
Cl25  Cl    Cl    0.432481 0.131543 0.484056 -0.452997
Cl26  Cl    Cl    0.567518 0.868457 0.515944 -0.452998
Cl27  Cl    Cl    0.567519 0.131543 0.515945 -0.452997
Cl28  Cl    Cl    0.432481 0.868457 0.484055 -0.452996
Cl29  Cl    Cl    0.932481 0.631543 0.484056 -0.452997
Cl30  Cl    Cl    0.067518 0.368457 0.515944 -0.452998
Cl31  Cl    Cl    0.067519 0.631543 0.515945 -0.452997
Cl32  Cl    Cl    0.932481 0.368457 0.484055 -0.452996
C137  C     C_2   0.477981 0.083403 0.284026 0.925800
O65   O     O_2   0.531249 0.091314 0.347122 -0.465179
O66   O     O_R   0.464301 0.054036 0.222135 -0.723425
H9    H     H_    0.502454 0.041387 0.236939 0.349099
C138  C     C_2   0.522020 0.916598 0.715975 0.925801
O67   O     O_2   0.468751 0.908687 0.652880 -0.465180
O68   O     O_R   0.535701 0.945965 0.777866 -0.723426
H10   H     H_    0.497547 0.958614 0.763063 0.349099
C139  C     C_2   0.522018 0.083403 0.715973 0.925801
O69   O     O_2   0.468751 0.091314 0.652878 -0.465179
O70   O     O_R   0.535699 0.054036 0.777864 -0.723427
H11   H     H_    0.497545 0.041387 0.763060 0.349099
C140  C     C_2   0.477982 0.916597 0.284027 0.925803
O71   O     O_2   0.531250 0.908684 0.347122 -0.465178
O72   O     O_R   0.464302 0.945965 0.222139 -0.723427
H12   H     H_    0.502456 0.958613 0.236943 0.349099
C141  C     C_2   0.977981 0.583403 0.284026 0.925800
O73   O     O_2   0.031249 0.591314 0.347122 -0.465179
O74   O     O_R   0.964301 0.554036 0.222135 -0.723426
H13   H     H_    0.002454 0.541387 0.236939 0.349099
C142  C     C_2   0.022020 0.416598 0.715975 0.925801
O75   O     O_2   0.968751 0.408687 0.652880 -0.465180
O76   O     O_R   0.035700 0.445965 0.777866 -0.723426
H14   H     H_    0.997547 0.458614 0.763063 0.349099
C143  C     C_2   0.022018 0.583403 0.715973 0.925801
O77   O     O_2   0.968751 0.591314 0.652878 -0.465179
O78   O     O_R   0.035699 0.554036 0.777864 -0.723427
H15   H     H_    0.997545 0.541387 0.763060 0.349099
C144  C     C_2   0.977982 0.416596 0.284027 0.925804
O79   O     O_2   0.031250 0.408684 0.347122 -0.465178
O80   O     O_R   0.964302 0.445965 0.222139 -0.723428
H16   H     H_    0.002456 0.458613 0.236943 0.349099

loop_
_geom_bond_atom_site_label_1
_geom_bond_atom_site_label_2
_ccdc_geom_bond_type
C60   O44   A    
C123  Cl27  S    
O56   H4    S    
C88   C96   S    
C61   O37   A    
C139  O69   D    
C115  C123  A    
C107  Cl11  S    
C40   C136  S    
C70   C78   S    
C105  Cl9   S    
C132  O55   D    
C69   C77   S    
O76   H14   S    
C34   C42   A    
C108  C116  A    
C75   C83   T    
C35   C43   A    
C110  C118  A    
Cu1   O17   S    
Cu2   O18   S    
C109  C117  A    
O70   H11   S    
C58   O34   A    
C133  O57   D    
C112  C120  A    
C45   C141  S    
C11   C19   A    
C128  Cl32  S    
C71   O23   A    
C2    O10   A    
C106  C114  A    
Cu12  O45   S    
C72   O32   A    
C103  C111  A    
Cu3   O16   S    
C69   O21   A    
C126  Cl30  S    
C42   C138  S    
C59   O35   A    
C52   C61   S    
Cu4   Cu7   S    
C119  C127  A    
Cu8   O24   S    
C137  O65   D    
C64   O40   A    
C5    O13   A    
C48   C144  S    
Cu1   O1    S    
C100  Cl4   S    
Cu2   O29   S    
C101  C109  A    
O74   H13   S    
C66   C74   S    
C65   O25   A    
O66   H9    S    
C102  Cl6   S    
Cu12  O39   S    
C63   O39   A    
C56   C57   S    
C30   C38   A    
C134  O59   D    
C33   C129  S    
C138  O67   D    
C120  Cl24  S    
C73   C81   T    
C129  O50   S    
Cu10  O41   S    
C40   C48   A    
C93   C95   T    
Cu11  O40   S    
C86   C94   S    
C12   C52   A    
C85   C93   S    
C26   C34   A    
C3    O3    A    
C23   C103  A    
C9    C121  A    
Cu1   Cu6   S    
C130  O52   S    
C87   C95   S    
Cu10  O34   S    
Cu12  O38   S    
O78   H15   S    
C1    O9    A    
C98   C106  A    
C142  O76   S    
Cu4   O31   S    
C89   C91   T    
Cu11  O46   S    
C19   C27   A    
C140  O71   D    
C98   Cl2   S    
C13   C53   A    
C143  O78   S    
C57   O41   A    
C62   O46   A    
C81   C89   S    
C15   C23   A    
C78   C86   T    
C5    O5    A    
C121  Cl25  S    
C47   C55   A    
C77   C85   T    
Cu4   O4    S    
C16   C24   A    
C49   C64   S    
C15   C127  A    
C141  O73   D    
O72   H12   S    
C1    C25   S    
C50   C63   S    
C132  O56   S    
C76   C84   T    
C8    O8    A    
C51   C62   S    
C37   C133  S    
C16   C56   A    
C74   C82   T    
Cu11  O47   S    
C118  Cl22  S    
C70   O22   A    
C11   C51   A    
C79   C87   T    
C4    C28   S    
C53   C60   S    
C104  Cl8   S    
C7    O7    A    
C54   C59   S    
C135  O62   S    
Cu6   O6    S    
C41   C137  S    
C99   Cl3   S    
Cu3   O32   S    
C100  C108  A    
C46   C142  S    
C7    C31   S    
C66   O26   A    
C68   O20   A    
O50   H1    S    
Cu12  O48   S    
Cu1   O30   S    
C18   C98   A    
C9    C49   A    
Cu9   O36   S    
C65   O17   A    
Cu3   Cu8   S    
C65   C73   S    
O64   H8    S    
C139  O70   S    
C19   C99   A    
C144  O80   S    
C131  O54   S    
Cu9   O42   S    
C20   C28   A    
C27   C35   A    
C144  O79   D    
C112  Cl16  S    
Cu6   O9    S    
C21   C29   A    
C6    O6    A    
C71   C79   S    
Cu6   O22   S    
C106  Cl10  S    
C104  C112  A    
C24   C104  A    
C23   C31   A    
C124  Cl28  S    
C59   O43   A    
O62   H7    S    
C24   C32   A    
Cu9   O33   S    
C14   C126  A    
Cu11  O37   S    
C22   C30   A    
C12   C20   A    
Cu7   O12   S    
C90   C92   T    
O60   H6    S    
C12   C124  A    
C135  O61   D    
Cu7   O28   S    
C29   C37   A    
C18   C26   A    
C46   C54   A    
C61   O45   A    
C142  O75   D    
C72   O24   A    
Cu6   O25   S    
C13   C21   A    
C2    C26   S    
C69   O29   A    
C82   C90   S    
C17   C25   A    
C4    O12   A    
C94   C96   T    
C16   C128  A    
C107  C115  A    
Cu8   O8    S    
C42   C50   A    
C57   O33   A    
C68   O28   A    
C111  C119  A    
C9    C17   A    
C6    C30   S    
C15   C55   A    
C63   O47   A    
C111  Cl15  S    
C141  O74   S    
C35   C131  S    
O80   H16   S    
C2    O2    A    
C71   O31   A    
C36   C44   A    
Cu2   Cu5   S    
C67   C75   S    
C36   C132  S    
C37   C45   A    
O68   H10   S    
C10   C50   A    
C5    C29   S    
C113  C121  A    
C66   O18   A    
Cu8   O11   S    
Cu3   O3    S    
C34   C130  S    
C127  Cl31  S    
C39   C47   A    
C108  Cl12  S    
C105  C113  A    
C129  O49   D    
C48   C56   A    
Cu10  O44   S    
Cu3   O19   S    
C116  C124  A    
C14   C54   A    
Cu5   O10   S    
Cu2   O2    S    
Cu7   O23   S    
C97   Cl1   S    
C11   C123  A    
C67   O27   A    
C3    O11   A    
C10   C122  A    
Cu5   O21   S    
C44   C52   A    
C4    O4    A    
Cu11  Cu12  S    
C120  C128  A    
C44   C140  S    
Cu9   O43   S    
Cu8   O27   S    
C118  C126  A    
C136  O64   S    
C41   C49   A    
C99   C107  A    
Cu9   Cu10  S    
C116  Cl20  S    
Cu7   O7    S    
C22   C102  A    
C114  Cl18  S    
C58   O42   A    
C39   C135  S    
C33   C41   A    
C14   C22   A    
C3    C27   S    
C62   O38   A    
C136  O63   D    
C97   C105  A    
C21   C101  A    
C80   C88   T    
C140  O72   S    
Cu4   O15   S    
Cu5   O26   S    
C115  Cl19  S    
C68   C76   S    
C43   C51   A    
C6    O14   A    
C8    C32   S    
C119  Cl23  S    
C10   C18   A    
C102  C110  A    
C60   O36   A    
C122  Cl26  S    
C83   C91   S    
C125  Cl29  S    
C134  O60   S    
C7    O15   A    
C31   C39   A    
Cu2   O13   S    
C43   C139  S    
C32   C40   A    
C38   C134  S    
C70   O30   A    
C131  O53   D    
C8    O16   A    
C64   O48   A    
C38   C46   A    
C1    O1    A    
C45   C53   A    
O52   H2    S    
C114  C122  A    
C117  C125  A    
C47   C143  S    
O54   H3    S    
Cu5   O5    S    
C113  Cl17  S    
C28   C36   A    
C72   C80   S    
C130  O51   D    
C137  O66   S    
C55   C58   S    
C25   C33   A    
Cu10  O35   S    
O58   H5    S    
C101  Cl5   S    
C67   O19   A    
C84   C92   S    
C138  O68   S    
C103  Cl7   S    
C143  O77   D    
C133  O58   S    
C17   C97   A    
C13   C125  A    
Cu4   O20   S    
Cu1   O14   S    
C110  Cl14  S    
C109  Cl13  S    
C20   C100  A    
C117  Cl21  S    
