data_mof_unit_18618.cif
_audit_creation_date              2013-03-05T15:49:12-0500
_audit_creation_method            fapswitch 2.2
_symmetry_space_group_name_H-M    P1
_symmetry_Int_Tables_number       1
_space_group_crystal_system       triclinic
_cell_length_a                    17.538791
_cell_length_b                    24.605535
_cell_length_c                    14.960883
_cell_angle_alpha                 90.004448
_cell_angle_beta                  126.421135
_cell_angle_gamma                 89.94744
_cell_volume                      5195.29079196

loop_
_atom_site_label
_atom_site_type_symbol
_atom_site_description
_atom_site_fract_x
_atom_site_fract_y
_atom_site_fract_z
_atom_type_partial_charge
C1    C     C_R   0.355801 0.152852 0.907720 0.369498
C2    C     C_R   0.334473 0.854569 0.908603 0.384491
C3    C     C_R   0.817009 0.633757 0.906398 0.432841
C4    C     C_R   0.817467 0.365981 0.906359 0.440274
N1    N     N_R   0.392450 0.103580 0.942190 -0.079493
N2    N     N_R   0.392450 0.896420 0.942190 -0.080363
N3    N     N_R   0.892450 0.603580 0.942190 -0.076869
N4    N     N_R   0.892450 0.396420 0.942190 -0.074653
C5    C     C_R   0.421507 0.859602 0.094955 -0.145429
C6    C     C_R   0.447241 0.152468 0.092037 -0.211666
C7    C     C_R   0.907021 0.371033 0.093386 -0.104101
C8    C     C_R   0.907080 0.629091 0.093427 -0.107621
H1    H     H_    0.455587 0.850845 0.181675 0.128683
H2    H     H_    0.492152 0.164537 0.178303 0.122384
H3    H     H_    0.937597 0.363848 0.179675 0.127085
H4    H     H_    0.937744 0.636283 0.179725 0.127540
N5    N     N_R   0.450490 0.896000 0.057360 -0.067010
N6    N     N_R   0.450490 0.104000 0.057360 -0.061581
N7    N     N_R   0.950490 0.396000 0.057360 -0.061160
N8    N     N_R   0.950490 0.604000 0.057360 -0.062488
C9    C     C_R   0.545874 0.045529 0.303376 -0.138109
C10   C     C_R   0.546874 0.954706 0.304019 -0.149757
C11   C     C_R   0.049603 0.545423 0.305135 -0.155680
C12   C     C_R   0.049341 0.454883 0.305387 -0.156759
H5    H     H_    0.556117 0.087734 0.327689 0.101011
H6    H     H_    0.559174 0.912686 0.329675 0.105043
H7    H     H_    0.063194 0.587418 0.330890 0.111811
H8    H     H_    0.061912 0.412913 0.331459 0.110703
N9    N     N_R   0.525490 0.028390 0.207550 -0.039951
N10   N     N_R   0.525490 0.971610 0.207550 -0.041662
N11   N     N_R   0.025490 0.528390 0.207550 -0.045237
N12   N     N_R   0.025490 0.471610 0.207550 -0.045187
C13   C     C_R   0.230548 0.954982 0.753800 -0.126703
C14   C     C_R   0.231511 0.045998 0.755639 -0.093852
C15   C     C_R   0.742724 0.454635 0.693124 -0.076799
C16   C     C_R   0.742932 0.544869 0.692046 -0.084936
H9    H     H_    0.204325 0.914065 0.733325 0.168870
H10   H     H_    0.207977 0.087688 0.740624 0.159281
H11   H     H_    0.732081 0.414457 0.659514 0.173352
H12   H     H_    0.731517 0.584887 0.657331 0.183551
N13   N     N_R   0.317450 0.971190 0.792000 -0.042513
N14   N     N_R   0.317450 0.028810 0.792000 -0.038492
N15   N     N_R   0.817450 0.471190 0.792000 -0.057283
N16   N     N_R   0.817450 0.528810 0.792000 -0.056134
C17   C     C_R   0.386704 0.184446 0.000258 -0.003168
C18   C     C_R   0.345181 0.834722 0.002215 -0.035394
C19   C     C_R   0.822068 0.647924 0.000203 -0.095203
C20   C     C_R   0.822292 0.352055 0.000121 -0.104281
C21   C     C_R   0.562224 0.000151 0.366904 0.064533
C22   C     C_R   0.066675 0.500289 0.369080 0.077332
C23   C     C_R   0.176599 0.000685 0.732111 -0.010849
C24   C     C_R   0.695652 0.499591 0.631445 -0.032176
C25   C     C_R   0.522320 0.045596 0.755559 -0.113683
C26   C     C_R   0.522398 0.954335 0.755657 -0.121973
C27   C     C_R   0.020564 0.545958 0.753653 -0.130825
C28   C     C_R   0.019438 0.454760 0.751539 -0.132970
H13   H     H_    0.529192 0.087714 0.741423 0.132907
H14   H     H_    0.529507 0.912172 0.741911 0.132057
H15   H     H_    0.027539 0.588203 0.740367 0.133789
H16   H     H_    0.022960 0.413184 0.732106 0.095207
N17   N     N_R   0.473900 0.028390 0.792280 -0.047669
N18   N     N_R   0.473900 0.971610 0.792280 -0.050806
N19   N     N_R   0.973900 0.528390 0.792280 -0.053111
N20   N     N_R   0.973900 0.471610 0.792280 -0.051420
C29   C     C_R   0.764509 0.954121 0.297895 -0.118316
C30   C     C_R   0.764308 0.045893 0.297883 -0.118130
C31   C     C_R   0.270269 0.454768 0.251329 -0.129878
C32   C     C_R   0.269032 0.546336 0.249802 -0.110239
H17   H     H_    0.781097 0.912536 0.326961 0.103719
H18   H     H_    0.780690 0.087475 0.326883 0.101199
H19   H     H_    0.295726 0.413474 0.271002 0.104890
H20   H     H_    0.291305 0.588313 0.264729 0.101066
N21   N     N_R   0.682310 0.971180 0.208170 -0.040164
N22   N     N_R   0.682310 0.028820 0.208170 -0.039917
N23   N     N_R   0.182310 0.471180 0.208170 -0.042805
N24   N     N_R   0.182310 0.528820 0.208170 -0.044351
C33   C     C_R   0.650818 0.150701 0.093377 -0.116278
C34   C     C_R   0.649000 0.848718 0.093256 -0.106871
C35   C     C_R   0.145652 0.652061 0.091905 -0.116739
C36   C     C_R   0.162714 0.353670 0.094057 -0.119847
H21   H     H_    0.697132 0.161685 0.180065 0.096895
H22   H     H_    0.694773 0.837671 0.179968 0.101948
H23   H     H_    0.187910 0.664106 0.178031 0.107287
H24   H     H_    0.208659 0.341078 0.179859 0.106163
N25   N     N_R   0.606470 0.103570 0.057210 -0.042026
N26   N     N_R   0.606470 0.896430 0.057210 -0.045114
N27   N     N_R   0.106470 0.603570 0.057210 -0.047192
N28   N     N_R   0.106470 0.396430 0.057210 -0.044233
C37   C     C_R   0.553231 0.847335 0.909195 -0.056430
C38   C     C_R   0.555186 0.152111 0.909021 -0.043333
C39   C     C_R   0.070132 0.352957 0.908743 -0.016596
C40   C     C_R   0.051495 0.652694 0.908409 -0.067324
H25   H     H_    0.504112 0.834371 0.824456 0.187305
H26   H     H_    0.507097 0.165114 0.824147 0.198130
H27   H     H_    0.031747 0.340207 0.823304 0.144474
H28   H     H_    0.001683 0.665394 0.823566 0.180337
N29   N     N_R   0.549740 0.896000 0.943240 -0.053551
N30   N     N_R   0.549740 0.104000 0.943240 -0.050436
N31   N     N_R   0.049740 0.396000 0.943240 -0.053258
N32   N     N_R   0.049740 0.604000 0.943240 -0.054442
Ni1   Ni    Ni4+2 0.433780 0.065390 0.868430 0.282777
Ni2   Ni    Ni4+2 0.433780 0.934610 0.868430 0.277893
Ni3   Ni    Ni4+2 0.933780 0.565390 0.868430 0.257105
Ni4   Ni    Ni4+2 0.933780 0.434610 0.868430 0.267379
Ni5   Ni    Ni4+2 0.565800 0.934190 0.131570 0.222299
Ni6   Ni    Ni4+2 0.565800 0.065810 0.131570 0.209447
Ni7   Ni    Ni4+2 0.065800 0.434190 0.131570 0.238645
Ni8   Ni    Ni4+2 0.065800 0.565810 0.131570 0.230692
C41   C     C_R   0.553117 0.999954 0.730537 0.146865
C42   C     C_R   0.050203 0.500506 0.727013 0.158669
C43   C     C_R   0.816062 0.000033 0.353485 0.050520
C44   C     C_R   0.324399 0.500861 0.275770 0.056173
C45   C     C_R   0.618467 0.182636 0.001392 0.033445
C46   C     C_R   0.615545 0.816371 0.001466 0.070850
C47   C     C_R   0.113231 0.683998 0.999745 0.102521
C48   C     C_R   0.145965 0.328060 0.002269 0.084937
C49   C     C_3   0.003532 0.956631 0.612904 -0.136804
C50   C     C_3   0.004178 0.046296 0.609028 -0.135492
C51   C     C_3   0.539128 0.449180 0.478769 -0.153133
C52   C     C_3   0.526086 0.532773 0.519860 -0.120451
C53   C     C_3   0.928607 0.001997 0.575672 -0.122668
C54   C     C_3   0.462126 0.482584 0.472487 -0.143052
H29   H     H_    0.874189 0.003089 0.591370 0.141393
H30   H     H_    0.417176 0.468037 0.497254 0.141301
H31   H     H_    0.015790 0.921049 0.665592 0.145468
H32   H     H_    0.016868 0.083342 0.658472 0.158087
H33   H     H_    0.560040 0.407023 0.510973 0.157172
H34   H     H_    0.537085 0.559276 0.586717 0.152788
C55   C     C_3   0.906874 0.000215 0.460255 0.128176
C56   C     C_3   0.426171 0.501322 0.355842 0.143582
C57   C     C_3   0.979391 0.955008 0.495471 -0.140354
C58   C     C_3   0.980025 0.044407 0.491607 -0.147611
C59   C     C_3   0.502173 0.467872 0.360722 -0.145843
C60   C     C_3   0.489850 0.551677 0.402741 -0.133984
C61   C     C_3   0.053104 0.999200 0.527315 -0.105892
C62   C     C_3   0.568547 0.518364 0.410245 -0.122140
C63   C     C_3   0.076538 0.000939 0.643845 0.151131
C64   C     C_3   0.602939 0.499470 0.526157 0.157154
H35   H     H_    0.967840 0.917850 0.446777 0.143283
H36   H     H_    0.968910 0.080083 0.439644 0.141938
H37   H     H_    0.489351 0.441537 0.292788 0.142307
H38   H     H_    0.468115 0.593659 0.369732 0.141767
H39   H     H_    0.105871 0.998097 0.508950 0.141672
H40   H     H_    0.615225 0.532818 0.387986 0.134120
C65   C     C_3   0.297079 0.796527 0.115924 -0.405834
C66   C     C_3   0.375116 0.250181 0.119283 -0.341368
C67   C     C_3   0.777510 0.308393 0.115152 -0.403507
C68   C     C_3   0.778630 0.691978 0.116281 -0.414030
H41   H     H_    0.368779 0.782037 0.184813 0.218829
H42   H     H_    0.442120 0.271037 0.148012 0.211344
H43   H     H_    0.850838 0.298162 0.186756 0.214602
H44   H     H_    0.852089 0.702954 0.186355 0.218695
H45   H     H_    0.289541 0.838511 0.137632 0.173214
H46   H     H_    0.393852 0.218189 0.181781 0.160033
H47   H     H_    0.760992 0.348982 0.132648 0.173183
H48   H     H_    0.763996 0.651407 0.135966 0.174687
C69   C     C_3   0.709508 0.265630 0.106618 -0.449871
C70   C     C_3   0.710276 0.734322 0.108348 -0.425499
C71   C     C_3   0.222796 0.760122 0.107849 -0.430672
C72   C     C_3   0.307416 0.288865 0.119356 -0.475583
H49   H     H_    0.170314 0.785172 0.108662 0.207834
H50   H     H_    0.298059 0.274590 0.182904 0.170936
H51   H     H_    0.650314 0.285988 0.101476 0.202756
H52   H     H_    0.652795 0.713645 0.106178 0.219361
H53   H     H_    0.750108 0.241717 0.184659 0.183242
H54   H     H_    0.751491 0.758904 0.185395 0.184833
H55   H     H_    0.261127 0.734697 0.183840 0.184904
H56   H     H_    0.339616 0.330160 0.144129 0.201783
H57   H     H_    0.804819 0.187067 0.087575 0.210473
H58   H     H_    0.800763 0.813274 0.082661 0.211519
H59   H     H_    0.296689 0.673619 0.073947 0.206568
H60   H     H_    0.264538 0.351724 0.946726 0.241188
C73   C     C_3   0.799804 0.253317 0.986766 0.245441
C74   C     C_3   0.795733 0.746429 0.983049 0.255453
C75   C     C_3   0.302174 0.738119 0.977246 0.271587
C76   C     C_3   0.292364 0.270224 0.912768 0.274951
C77   C     C_3   0.177973 0.813024 0.914231 -0.519448
C78   C     C_3   0.236693 0.193508 0.973953 -0.565748
C79   C     C_3   0.658985 0.319299 0.912547 -0.467868
C80   C     C_3   0.657985 0.679257 0.914548 -0.477895
C81   C     C_3   0.283294 0.795976 0.003027 0.170935
C82   C     C_3   0.325818 0.224839 0.001693 0.141987
C83   C     C_3   0.766795 0.309301 0.004103 0.178066
C84   C     C_3   0.765734 0.690380 0.003955 0.181256
H61   H     H_    0.163238 0.825017 0.833915 0.241643
H62   H     H_    0.200775 0.172339 0.892627 0.217270
H63   H     H_    0.641585 0.334288 0.832833 0.252883
H64   H     H_    0.640068 0.664118 0.834659 0.253493
H65   H     H_    0.161049 0.849844 0.942766 0.167032
H66   H     H_    0.258257 0.161228 0.037080 0.179664
H67   H     H_    0.632857 0.352174 0.939281 0.175644
H68   H     H_    0.634078 0.646087 0.943254 0.170995
C85   C     C_3   0.668868 0.229718 0.000991 0.145467
C86   C     C_3   0.666431 0.769368 0.000947 0.138826
C87   C     C_3   0.171247 0.726102 0.998597 0.139573
C88   C     C_3   0.210287 0.290355 0.002430 0.130655
C89   C     C_3   0.753419 0.206864 0.005628 -0.442733
C90   C     C_3   0.748927 0.792672 0.001889 -0.458626
C91   C     C_3   0.247883 0.696387 0.995020 -0.463410
C92   C     C_3   0.230114 0.311074 0.919615 -0.458792
C93   C     C_3   0.604821 0.266745 0.895120 0.305389
C94   C     C_3   0.602126 0.731258 0.897016 0.308368
C95   C     C_3   0.112657 0.766254 0.897186 0.322121
C96   C     C_3   0.167308 0.232287 0.972011 0.385087
H69   H     H_    0.051777 0.782926 0.893343 0.136303
H70   H     H_    0.157103 0.218662 0.035225 0.121695
H71   H     H_    0.538095 0.276926 0.884290 0.166964
H72   H     H_    0.536757 0.720380 0.888948 0.156035
H73   H     H_    0.773288 0.250279 0.898788 0.195848
H74   H     H_    0.767395 0.748816 0.894372 0.192501
H75   H     H_    0.272343 0.736490 0.887792 0.188283
H76   H     H_    0.245259 0.251592 0.829153 0.147569
H77   H     H_    0.730325 0.174941 0.941426 0.219114
H78   H     H_    0.723653 0.824049 0.936132 0.217735
H79   H     H_    0.215705 0.665815 0.926914 0.221145
H80   H     H_    0.163535 0.316671 0.834621 0.176922
C97   C     C_3   0.615959 0.052458 0.641282 0.415198
C98   C     C_3   0.615989 0.947496 0.641246 0.413393
C99   C     C_3   0.112077 0.554253 0.638232 0.406636
C100  C     C_3   0.119094 0.449341 0.643423 0.411125
H81   H     H_    0.572007 0.088510 0.627788 0.082098
H82   H     H_    0.572607 0.911405 0.628843 0.081129
H83   H     H_    0.065933 0.589423 0.623057 0.080896
H84   H     H_    0.077330 0.412372 0.630625 0.054924
C101  C     C_3   0.622554 0.050708 0.543112 -0.475367
C102  C     C_3   0.621429 0.948957 0.542212 -0.477175
C103  C     C_3   0.119583 0.552892 0.540817 -0.467930
C104  C     C_3   0.127893 0.451219 0.546944 -0.459261
H85   H     H_    0.697674 0.049385 0.572887 0.212638
H86   H     H_    0.696290 0.949288 0.570969 0.210981
H87   H     H_    0.194819 0.554295 0.571092 0.219087
H88   H     H_    0.203344 0.454262 0.578501 0.220861
H89   H     H_    0.591370 0.088986 0.495322 0.150219
H90   H     H_    0.588571 0.911004 0.493932 0.151607
H91   H     H_    0.084362 0.590057 0.490378 0.151506
H92   H     H_    0.100190 0.412280 0.500873 0.147140
H93   H     H_    0.422921 0.036264 0.527239 0.205436
H94   H     H_    0.423341 0.963544 0.526771 0.204022
H95   H     H_    0.920473 0.534397 0.521189 0.199167
H96   H     H_    0.924477 0.461703 0.524955 0.196758
H97   H     H_    0.427704 0.037270 0.380414 0.181505
H98   H     H_    0.426641 0.964281 0.378842 0.179699
H99   H     H_    0.926576 0.533288 0.375171 0.178049
H100  H     H_    0.932700 0.460389 0.380829 0.174706
C105  C     C_3   0.463173 0.000044 0.531561 -0.574724
C106  C     C_3   0.962942 0.498640 0.528611 -0.583604
C107  C     C_3   0.565561 0.999986 0.641386 0.044133
C108  C     C_3   0.064436 0.500759 0.639477 0.058199
C109  C     C_3   0.568930 0.000082 0.469612 0.229183
C110  C     C_3   0.071532 0.500605 0.470534 0.222979
C111  C     C_3   0.465481 0.000465 0.431552 -0.370758
C112  C     C_3   0.967417 0.498043 0.430206 -0.376741
Cl1   Cl    Cl    0.313686 0.176366 0.774730 -0.674187
Cl2   Cl    Cl    0.287943 0.819977 0.782829 -0.656186
Cl3   Cl    Cl    0.752126 0.666134 0.775996 -0.682232
Cl4   Cl    Cl    0.755222 0.332390 0.777309 -0.669904
N33   N     N_R   0.903396 0.246681 0.056030 0.242930
O1    O     O_R   0.953093 0.242464 0.163562 -0.413298
O2    O     O_R   0.946324 0.243378 0.009115 -0.330174
N34   N     N_R   0.898981 0.754108 0.049746 0.242751
O3    O     O_R   0.950327 0.758931 0.157287 -0.411949
O4    O     O_R   0.939853 0.757765 0.000462 -0.385699
N35   N     N_R   0.403431 0.724360 0.042091 0.244973
O5    O     O_R   0.454911 0.718620 0.149462 -0.420724
O6    O     O_R   0.442278 0.716555 0.991314 -0.385709
N36   N     N_R   0.370714 0.297580 0.920901 0.253829
O7    O     O_R   0.432758 0.326185 0.007880 -0.414498
O8    O     O_R   0.371135 0.299407 0.834319 -0.328836
Cl5   Cl    Cl    0.573137 0.237113 0.766675 -0.626607
Cl6   Cl    Cl    0.566041 0.760025 0.766160 -0.638947
Cl7   Cl    Cl    0.066060 0.736779 0.763346 -0.663608
Cl8   Cl    Cl    0.053147 0.228095 0.839653 -0.619885
Cl9   Cl    Cl    0.729354 0.065096 0.770040 -0.538444
Cl10  Cl    Cl    0.730040 0.935248 0.769458 -0.553415
Cl11  Cl    Cl    0.224303 0.568896 0.767106 -0.550221
Cl12  Cl    Cl    0.232163 0.439135 0.774157 -0.557975

loop_
_geom_bond_atom_site_label_1
_geom_bond_atom_site_label_2
_geom_bond_distance
_ccdc_geom_bond_type
C102  C109  1.555826 S    
C103  H87   1.112626 S    
C90   H78   1.114472 S    
N23   Ni7   1.881464 S    
C78   C96   1.532356 S    
C100  Cl12  1.792957 S    
N13   N14   1.417773 A    
C15   H11   1.074172 S    
C14   N14   1.331121 A    
H58   C90   1.113557 S    
C4    N4    1.320016 A    
C9    C21   1.381384 A    
C29   N21   1.325726 A    
N35   O5    1.301215 A    
C106  C112  1.520196 S    
C39   C48   1.375109 A    
C74   N34   1.471576 S    
C71   C87   1.560817 S    
C95   H69   1.112664 S    
C25   C41   1.389989 A    
C7    N7    1.318327 A    
C14   C23   1.376208 A    
C70   C86   1.564787 S    
C85   C89   1.548026 S    
H95   C106  1.114373 S    
C69   C85   1.565100 S    
H98   C111  1.114315 S    
C18   C81   1.450779 S    
H57   C89   1.113525 S    
C79   H67   1.114093 S    
C3    N3    1.321263 A    
C51   H33   1.110040 S    
C4    C20   1.396922 A    
C78   H66   1.114122 S    
C71   H55   1.107971 S    
C77   C81   1.561312 S    
C97   C101  1.540801 S    
C87   C95   1.575118 S    
C67   C83   1.557343 S    
C86   C94   1.577458 S    
C65   C81   1.557759 S    
C40   H28   1.074650 S    
C77   H61   1.108557 S    
N13   Ni2   1.872678 S    
C100  C104  1.540764 S    
C104  H88   1.112645 S    
N20   Ni4   1.890808 S    
N33   O1    1.301326 A    
C32   C44   1.376943 A    
C38   C45   1.373252 A    
C100  C108  1.566425 S    
N26   N29   1.372201 A    
C5    H1    1.079787 S    
N15   Ni4   1.872678 S    
C29   C43   1.376306 A    
N7    Ni7   1.882247 S    
H59   C91   1.113514 S    
N25   N30   1.372189 A    
C80   H64   1.104611 S    
C75   N35   1.470645 S    
C92   H80   1.111762 S    
C66   H42   1.109242 S    
C25   N17   1.325491 A    
C27   C42   1.387323 A    
C43   C55   1.437844 S    
H100  C112  1.114310 S    
N27   Ni8   1.885027 S    
C79   C93   1.533199 S    
N18   Ni2   1.890808 S    
C1    Cl1   1.758775 S    
N12   Ni7   1.895434 S    
C27   N19   1.323999 A    
C59   C62   1.557562 S    
C24   C64   1.443582 S    
C77   C95   1.535309 S    
C98   H82   1.111553 S    
C91   H79   1.113749 S    
C104  H92   1.110073 S    
C75   H75   1.111301 S    
C30   C43   1.375095 A    
C88   C96   1.552848 S    
C50   C63   1.529694 S    
C15   N15   1.330643 A    
C69   H51   1.113058 S    
C104  C110  1.554586 S    
N29   Ni2   1.893470 S    
C22   C110  1.468892 S    
C70   H52   1.112809 S    
C72   C88   1.557173 S    
C55   C58   1.528493 S    
C65   H45   1.113910 S    
C34   N26   1.321464 A    
C61   H39   1.111122 S    
N31   Ni4   1.893470 S    
C105  C111  1.520641 S    
C33   N25   1.320773 A    
C5    C18   1.373963 A    
N24   Ni8   1.879737 S    
C65   C71   1.526315 S    
N3    Ni3   1.890672 S    
C35   N27   1.320270 A    
C79   H63   1.104139 S    
H96   C106  1.114206 S    
C7    C20   1.382877 A    
C2    N2    1.319843 A    
C7    H3    1.078515 S    
C76   C92   1.530879 S    
C8    C19   1.382966 A    
C8    H4    1.078465 S    
C2    Cl2   1.763179 S    
C28   C42   1.388908 A    
N16   Ni3   1.874391 S    
C52   C54   1.531030 S    
C17   C82   1.467638 S    
C38   H26   1.074220 S    
C87   C91   1.558079 S    
N21   N22   1.418263 A    
C97   H81   1.111687 S    
C58   H36   1.110323 S    
C106  C108  1.554597 S    
C68   H44   1.108455 S    
C74   C90   1.523480 S    
N4    N7    1.386534 A    
C53   H29   1.110364 S    
C66   C82   1.557549 S    
C73   C89   1.523915 S    
C36   H24   1.079109 S    
C79   C83   1.560721 S    
C36   C48   1.374902 A    
C95   Cl7   1.805849 S    
C16   H12   1.074997 S    
C73   C83   1.573775 S    
C77   H65   1.114032 S    
C97   Cl9   1.792953 S    
N19   Ni3   1.890101 S    
C80   H68   1.113974 S    
C74   C84   1.572703 S    
C88   C92   1.558187 S    
N28   Ni7   1.884297 S    
C25   H13   1.078777 S    
C19   C84   1.461041 S    
C11   C22   1.377536 A    
C60   C62   1.550330 S    
N1    N6    1.386546 A    
C26   N18   1.325557 A    
C54   C56   1.532478 S    
C102  H86   1.112807 S    
C9    N9    1.323849 A    
N32   Ni3   1.895255 S    
C2    C18   1.386659 A    
C13   C23   1.377941 A    
C28   H16   1.075188 S    
C26   C41   1.390348 A    
C37   N29   1.316742 A    
N33   O2    1.301335 A    
C50   C53   1.552756 S    
C11   N11   1.324031 A    
N17   Ni1   1.890101 S    
N23   N24   1.418263 A    
C12   N12   1.326502 A    
C73   N33   1.471519 S    
N9    N10   1.397100 A    
C10   N10   1.324279 A    
N5    Ni5   1.882247 S    
C60   H38   1.110008 S    
C3    Cl3   1.760145 S    
C68   H48   1.113287 S    
C34   H22   1.079033 S    
C57   C61   1.533586 S    
N21   Ni5   1.881466 S    
N11   N12   1.397100 A    
C66   H46   1.112067 S    
C33   H21   1.079031 S    
C32   H20   1.080000 S    
C8    N8    1.318672 A    
C6    C17   1.378146 A    
C99   Cl11  1.793416 S    
C35   C47   1.382153 A    
C93   H71   1.110357 S    
H93   C105  1.114223 S    
C51   C59   1.546294 S    
C5    N5    1.310431 A    
N4    Ni4   1.891416 S    
C12   C22   1.380275 A    
C75   C91   1.527846 S    
C78   C82   1.562617 S    
N36   O8    1.300515 A    
C103  C110  1.555845 S    
C96   Cl8   1.798101 S    
N11   Ni8   1.896150 S    
N34   O4    1.301301 A    
C33   C45   1.380359 A    
C96   H70   1.113552 S    
C99   C103  1.539577 S    
C109  C111  1.545785 S    
C11   H7    1.079033 S    
C10   C21   1.381164 A    
N15   N16   1.417773 A    
C6    H2    1.080528 S    
C12   H8    1.079216 S    
C1    N1    1.324385 A    
N9    Ni6   1.896150 S    
C16   N16   1.333757 A    
C56   C59   1.530369 S    
C31   N23   1.332658 A    
C4    Cl4   1.761013 S    
C52   C64   1.531134 S    
C69   H53   1.108415 S    
N25   Ni6   1.885027 S    
C67   C69   1.538635 S    
N14   Ni1   1.874391 S    
C27   H15   1.078945 S    
C100  H84   1.111424 S    
C48   C88   1.458857 S    
C67   H47   1.113271 S    
C40   N32   1.314259 A    
C62   C64   1.531265 S    
C13   H9    1.073541 S    
N27   N32   1.372189 A    
C26   H14   1.079016 S    
C51   C54   1.534795 S    
C42   C108  1.471616 S    
C61   C63   1.536028 S    
N2    N5    1.386534 A    
C9    H5    1.079670 S    
C37   C46   1.373950 A    
C34   C46   1.381128 A    
C101  C109  1.555404 S    
H99   C112  1.114336 S    
C46   C86   1.463032 S    
C57   H35   1.110262 S    
C14   H10   1.078066 S    
C51   C64   1.531850 S    
C45   C85   1.460039 S    
C62   H40   1.109900 S    
C73   H73   1.107937 S    
C97   C107  1.565888 S    
C53   C55   1.532103 S    
N34   O3    1.301288 A    
C52   C60   1.538743 S    
C16   C24   1.363695 A    
C20   C83   1.458890 S    
C52   H34   1.110847 S    
C110  C112  1.547406 S    
C49   C53   1.552868 S    
C49   C57   1.544120 S    
C32   N24   1.327927 A    
N30   Ni1   1.895255 S    
C103  H91   1.110318 S    
C68   C70   1.538054 S    
C80   C94   1.535706 S    
N10   Ni5   1.895434 S    
C102  H90   1.110189 S    
N1    Ni1   1.890672 S    
C75   C81   1.560693 S    
C47   C87   1.460007 S    
C101  H89   1.110058 S    
C49   C63   1.530044 S    
C105  C107  1.555905 S    
C71   H49   1.113356 S    
C94   Cl6   1.806203 S    
C13   N13   1.332462 A    
N26   Ni5   1.884297 S    
C36   N28   1.317728 A    
N35   O6    1.300967 A    
C98   C107  1.565382 S    
C35   H23   1.078790 S    
C68   C84   1.557375 S    
C1    C17   1.387221 A    
C28   N20   1.326177 A    
C86   C90   1.549139 S    
C85   C93   1.576801 S    
C49   H31   1.110245 S    
N6    Ni6   1.880481 S    
C6    N6    1.315128 A    
C58   C61   1.532943 S    
C29   H17   1.081674 S    
C67   H43   1.108354 S    
H94   C105  1.114224 S    
C3    C19   1.396800 A    
C76   N36   1.469477 S    
C74   H74   1.107951 S    
C38   N30   1.315665 A    
N2    Ni2   1.891416 S    
H60   C92   1.113412 S    
C31   H19   1.077743 S    
N22   Ni6   1.879736 S    
C72   H56   1.114074 S    
C37   H25   1.074582 S    
N17   N18   1.397100 A    
C56   C60   1.531882 S    
C40   C47   1.370173 A    
C101  H85   1.112820 S    
H97   C111  1.114246 S    
N28   N31   1.372201 A    
C50   C58   1.544028 S    
N36   O7    1.301030 A    
C76   C82   1.559933 S    
C99   H83   1.111748 S    
N19   N20   1.397100 A    
C78   H62   1.113067 S    
C70   H54   1.108319 S    
C76   H76   1.109512 S    
C31   C44   1.382391 A    
C89   H77   1.114505 S    
C66   C72   1.521616 S    
C30   H18   1.081692 S    
C41   C107  1.473865 S    
C39   H27   1.078909 S    
C98   Cl10  1.792859 S    
N3    N8    1.386546 A    
C10   H6    1.078968 S    
C23   C63   1.439394 S    
C15   C24   1.360336 A    
C44   C56   1.443007 S    
C99   C108  1.565735 S    
C94   H72   1.112158 S    
C59   H37   1.110038 S    
C50   H32   1.110131 S    
C21   C109  1.469834 S    
C55   C57   1.527853 S    
C39   N31   1.316950 A    
C93   Cl5   1.807109 S    
C54   H30   1.111021 S    
C98   C102  1.540616 S    
C65   H41   1.109495 S    
C80   C84   1.560349 S    
C72   H50   1.113395 S    
N8    Ni8   1.880481 S    
C30   N22   1.324831 A    
