data_mof_unit_46042.cif
_audit_creation_date              2012-12-10T19:47:59-0500
_audit_creation_method            fapswitch 2.2
_symmetry_space_group_name_H-M    P1
_symmetry_Int_Tables_number       1
_space_group_crystal_system       triclinic
_cell_length_a                    15.056857
_cell_length_b                    14.030857
_cell_length_c                    10.703669
_cell_angle_alpha                 90.965381
_cell_angle_beta                  90.404091
_cell_angle_gamma                 89.742908
_cell_volume                      2260.86483724

loop_
_atom_site_label
_atom_site_type_symbol
_atom_type_description
_atom_site_fract_x
_atom_site_fract_y
_atom_site_fract_z
_atom_type_partial_charge
C1    C     C_R   0.327653 0.500273 0.495347 0.864716
C2    C     C_R   0.673099 0.499607 0.491808 0.851264
C3    C     C_R   0.049131 0.507667 0.453533 0.065980
C4    C     C_R   0.953906 0.503472 0.447967 0.075531
C5    C     C_R   0.538357 0.102885 0.401004 -0.283850
C6    C     C_R   0.563660 0.896289 0.569683 -0.286574
C7    C     C_R   0.463240 0.105448 0.599289 -0.290229
C8    C     C_R   0.437282 0.895464 0.430112 -0.286431
C9    C     C_R   0.537913 0.202978 0.403345 -0.024705
C10   C     C_R   0.562442 0.796216 0.567948 -0.004692
C11   C     C_R   0.462897 0.205481 0.597022 0.004509
C12   C     C_R   0.437583 0.795421 0.432474 0.004256
C13   C     C_R   0.500828 0.053053 0.500011 0.133897
C14   C     C_R   0.500726 0.946993 0.499705 0.135310
C15   C     C_R   0.488555 0.498970 0.259495 0.874050
C16   C     C_R   0.513709 0.500731 0.739742 0.896250
C17   C     C_R   0.438999 0.668190 0.113330 -0.132925
C18   C     C_R   0.564650 0.329444 0.882203 -0.147609
C19   C     C_R   0.534630 0.678928 0.893791 -0.138040
C20   C     C_R   0.475548 0.318680 0.106606 -0.151197
C21   C     C_R   0.452111 0.756429 0.058675 -0.163337
C22   C     C_R   0.551814 0.241121 0.936373 -0.160714
C23   C     C_R   0.503129 0.762180 0.951370 -0.185122
C24   C     C_R   0.504370 0.235488 0.046497 -0.182882
C25   C     C_R   0.514390 0.588313 0.942237 0.091797
C26   C     C_R   0.494216 0.409791 0.057564 0.110767
C27   C     C_R   0.476942 0.584159 0.060985 0.076063
C28   C     C_R   0.529844 0.414022 0.937440 0.083852
C29   C     C_R   0.528456 0.502068 0.874958 -0.269334
C30   C     C_R   0.478020 0.496443 0.123831 -0.268616
C31   C     C_R   0.089201 0.564388 0.544941 -0.210612
C32   C     C_R   0.912620 0.417878 0.471157 -0.214921
C33   C     C_R   0.905582 0.585348 0.425381 -0.221446
C34   C     C_R   0.098669 0.449764 0.374148 -0.214289
C35   C     C_R   0.180688 0.561886 0.561572 0.069684
C36   C     C_R   0.820906 0.413036 0.480748 0.069439
C37   C     C_R   0.813412 0.584592 0.430855 0.078001
C38   C     C_R   0.190592 0.447257 0.384292 0.075680
C39   C     C_R   0.232073 0.501694 0.481637 -0.089067
C40   C     C_R   0.769620 0.498966 0.468489 -0.114534
H1    H     H_    0.490539 0.166707 0.086202 0.132852
H2    H     H_    0.517162 0.830870 0.911586 0.139257
H3    H     H_    0.576588 0.176873 0.891088 0.134673
H4    H     H_    0.424362 0.820374 0.101136 0.134242
H5    H     H_    0.397327 0.665573 0.194942 0.134855
H6    H     H_    0.602026 0.330931 0.796894 0.160212
H7    H     H_    0.576143 0.686114 0.812738 0.142863
H8    H     H_    0.435508 0.309899 0.188798 0.156432
H9    H     H_    0.048102 0.607639 0.606690 0.135495
H10   H     H_    0.953137 0.354945 0.486713 0.136656
H11   H     H_    0.940821 0.649887 0.402168 0.132536
H12   H     H_    0.065185 0.406817 0.303058 0.145416
H13   H     H_    0.568308 0.064678 0.323164 0.138997
H14   H     H_    0.613593 0.933815 0.624446 0.137557
H15   H     H_    0.433816 0.069244 0.677294 0.141716
H16   H     H_    0.387463 0.932355 0.375501 0.136287
H17   H     H_    0.568249 0.241145 0.327967 0.136553
H18   H     H_    0.611718 0.757429 0.620750 0.104528
H19   H     H_    0.433075 0.245543 0.673166 0.145421
H20   H     H_    0.387614 0.756070 0.380641 0.113166
N1    N     N_R   0.500000 0.252470 0.500000 -0.093823
N2    N     N_R   0.500000 0.747530 0.500000 -0.087474
O1    O     O_R   0.369060 0.579480 0.500010 -0.629574
O2    O     O_R   0.630940 0.420520 0.499990 -0.621384
O3    O     O_R   0.630940 0.579480 0.499990 -0.628330
O4    O     O_R   0.369060 0.420520 0.500010 -0.628672
O5    O     O_R   0.499990 0.579480 0.316780 -0.615676
O6    O     O_R   0.500010 0.420520 0.683220 -0.625273
O7    O     O_R   0.500010 0.579480 0.683220 -0.612344
O8    O     O_R   0.499990 0.420520 0.316780 -0.635626
Zn1   Zn    Zn3+2 0.500000 0.606140 0.500000 0.925389
Zn2   Zn    Zn3+2 0.500000 0.393860 0.500000 0.919059
C41   C     C_3   0.219349 0.621403 0.668388 -0.415648
C42   C     C_3   0.249747 0.558536 0.776272 -0.339661
C43   C     C_3   0.279473 0.619320 0.887906 -0.866746
H21   H     H_    0.334171 0.667269 0.860526 0.287548
H22   H     H_    0.223205 0.662722 0.924440 0.249964
H23   H     H_    0.303506 0.572206 0.962916 0.251845
H24   H     H_    0.193882 0.512524 0.805294 0.218908
H25   H     H_    0.305879 0.511968 0.746802 0.228339
H26   H     H_    0.274232 0.666982 0.636075 0.228459
H27   H     H_    0.168435 0.672228 0.704881 0.190148
C44   C     C_3   0.784366 0.314515 0.506867 -0.377679
C45   C     C_3   0.769785 0.301768 0.647036 -0.311791
C46   C     C_3   0.728949 0.204880 0.673450 -0.907748
H28   H     H_    0.661862 0.199607 0.630418 0.278096
H29   H     H_    0.771615 0.146569 0.635628 0.257731
H30   H     H_    0.722988 0.195993 0.775870 0.240889
H31   H     H_    0.834697 0.307043 0.696808 0.210721
H32   H     H_    0.726217 0.359272 0.684293 0.216441
H33   H     H_    0.724655 0.297910 0.449740 0.223455
H34   H     H_    0.832577 0.258791 0.475620 0.174402
C47   C     C_3   0.767034 0.675434 0.388788 -0.395869
C48   C     C_3   0.719721 0.659836 0.262657 -0.302807
C49   C     C_3   0.669493 0.749124 0.223246 -0.846584
H35   H     H_    0.614682 0.765061 0.289273 0.280374
H36   H     H_    0.714968 0.811141 0.220299 0.241545
H37   H     H_    0.640989 0.737256 0.128585 0.260853
H38   H     H_    0.769901 0.641677 0.190240 0.203874
H39   H     H_    0.672421 0.599641 0.266658 0.239218
H40   H     H_    0.722499 0.704962 0.461570 0.219770
H41   H     H_    0.816094 0.733460 0.375827 0.174765
C50   C     C_3   0.238900 0.387442 0.286207 -0.433818
C51   C     C_3   0.234349 0.434467 0.157449 -0.352797
C52   C     C_3   0.241450 0.360755 0.051322 -0.885473
H42   H     H_    0.249766 0.397202 0.961052 0.253202
H43   H     H_    0.298870 0.312582 0.065801 0.267284
H44   H     H_    0.180045 0.317228 0.046305 0.253958
H45   H     H_    0.171095 0.474368 0.144490 0.231080
H46   H     H_    0.289427 0.486415 0.151016 0.207578
H47   H     H_    0.309441 0.374326 0.308510 0.212803
H48   H     H_    0.207321 0.315882 0.281902 0.207469

loop_
_geom_bond_atom_site_label_1
_geom_bond_atom_site_label_2
_ccdc_geom_bond_type
C47   C48   S    
C41   C42   S    
C19   C23   A    
C49   H35   S    
C7    H15   S    
C2    O3    A    
C8    H16   S    
C49   H37   S    
C46   H28   S    
C7    C11   A    
C44   H34   S    
C52   H43   S    
C23   H2    S    
C44   C45   S    
C9    N1    A    
C32   C36   A    
C5    H13   S    
C28   C29   A    
C10   H18   S    
C17   H5    S    
C37   C40   A    
C51   H45   S    
C19   H7    S    
C36   C44   S    
C1    O1    A    
C50   H47   S    
O7    Zn1   S    
O4    Zn2   S    
C20   C24   A    
C16   O6    A    
C5    C13   A    
O6    Zn2   S    
C42   H25   S    
C13   C14   S    
C27   C30   A    
C24   H1    S    
C10   N2    A    
C45   H32   S    
C31   H9    S    
C11   H19   S    
C18   H6    S    
C41   H26   S    
C51   C52   S    
C2    O2    A    
C46   H29   S    
C25   C29   A    
C52   H44   S    
C42   C43   S    
C17   C27   A    
C36   C40   A    
C18   C28   A    
C45   C46   S    
C9    H17   S    
C47   H40   S    
C3    C34   A    
C16   C29   S    
O3    Zn1   S    
C33   C37   A    
C50   H48   S    
C35   C39   A    
C43   H21   S    
C5    C9    A    
C38   C50   S    
C6    C14   A    
C21   H4    S    
C12   N2    A    
C22   H3    S    
C48   H39   S    
C8    C12   A    
C15   O5    A    
C1    O4    A    
C37   C47   S    
C20   H8    S    
C3    C31   A    
C43   H22   S    
C32   H10   S    
C4    C32   A    
N1    Zn2   S    
O1    Zn1   S    
C6    H14   S    
C42   H24   S    
C21   C23   A    
C22   C24   A    
C33   H11   S    
C45   H31   S    
C3    C4    S    
C41   H27   S    
C15   C30   S    
C46   H30   S    
C15   O8    A    
C4    C33   A    
C35   C41   S    
C8    C14   A    
C34   C38   A    
C26   C28   A    
C16   O7    A    
C11   N1    A    
C47   H41   S    
C6    C10   A    
C49   H36   S    
C26   C30   A    
C25   C27   A    
C44   H33   S    
C52   H42   S    
C34   H12   S    
C18   C22   A    
C51   H46   S    
C38   C39   A    
C20   C26   A    
C48   H38   S    
C31   C35   A    
N2    Zn1   S    
O5    Zn1   S    
O2    Zn2   S    
C48   C49   S    
C19   C25   A    
C43   H23   S    
C17   C21   A    
C1    C39   S    
C12   H20   S    
C2    C40   S    
C7    C13   A    
C50   C51   S    
O8    Zn2   S    
