data_mof_unit_52200.cif
_audit_creation_date              2013-03-05T15:46:45-0500
_audit_creation_method            fapswitch 2.2
_symmetry_space_group_name_H-M    P1
_symmetry_Int_Tables_number       1
_space_group_crystal_system       triclinic
_cell_length_a                    10.206061
_cell_length_b                    10.785054
_cell_length_c                    12.271625
_cell_angle_alpha                 90.445595
_cell_angle_beta                  109.152544
_cell_angle_gamma                 95.832006
_cell_volume                      1268.18624334

loop_
_atom_site_label
_atom_site_type_symbol
_atom_site_description
_atom_site_fract_x
_atom_site_fract_y
_atom_site_fract_z
_atom_type_partial_charge
O1    O     O_R   0.936910 0.692950 0.509080 -0.609421
O2    O     O_R   0.138320 0.658600 0.480130 -0.606332
C1    C     C_R   0.053996 0.732823 0.496549 0.950039
O3    O     O_R   0.002900 0.525670 0.675280 -0.614509
O4    O     O_R   0.204310 0.491320 0.646330 -0.608717
C2    C     C_R   0.132376 0.505560 0.714143 0.856057
Zn1   Zn    Zn3+2 0.865520 0.522940 0.519330 0.935489
Zn2   Zn    Zn3+2 0.134480 0.477060 0.480670 0.928054
O5    O     O_R   0.861680 0.341400 0.519870 -0.614108
O6    O     O_R   0.063090 0.307050 0.490920 -0.614926
O7    O     O_R   0.795690 0.508680 0.353670 -0.613214
O8    O     O_R   0.997100 0.474330 0.324720 -0.610855
C3    C     C_R   0.950517 0.267664 0.511331 0.937456
C4    C     C_R   0.865856 0.487810 0.285931 0.877679
C5    C     C_R   0.730854 0.335123 0.990039 -0.222445
H1    H     H_    0.928288 0.346331 0.126085 0.160495
H2    H     H_    0.521506 0.249372 0.801151 0.144070
H3    H     H_    0.761088 0.269683 0.937629 0.136855
C6    C     C_R   0.787756 0.463923 0.164428 -0.067638
C7    C     C_R   0.154370 0.572939 0.912370 -0.194835
C8    C     C_R   0.234712 0.593485 0.027813 -0.146089
C9    C     C_R   0.366913 0.553403 0.067990 -0.197445
C10   C     C_R   0.417733 0.485655 0.993575 0.088205
C11   C     C_R   0.326460 0.447562 0.882418 0.086393
C12   C     C_R   0.555946 0.454233 0.025663 0.082525
C13   C     C_R   0.594486 0.369182 0.955655 0.173064
C14   C     C_R   0.495661 0.317752 0.853803 -0.257936
C15   C     C_R   0.362919 0.355999 0.817650 -0.193857
C16   C     C_R   0.657755 0.507256 0.124855 -0.278857
C17   C     C_R   0.826926 0.380638 0.095743 -0.203306
C18   C     C_R   0.201989 0.503936 0.838359 -0.120413
H4    H     H_    0.636675 0.579611 0.176020 0.152258
H5    H     H_    0.057226 0.614275 0.880271 0.168113
H6    H     H_    0.425415 0.573813 0.158099 0.133049
H7    H     H_    0.197129 0.645464 0.085210 0.145233
H8    H     H_    0.288635 0.311831 0.739136 0.168863
H9    H     H_    0.136682 0.110725 0.540113 0.184977
H10   H     H_    0.926801 0.896389 0.570190 0.191305
C19   C     C_2   0.091900 0.865992 0.507093 -0.385065
C20   C     C_2   0.014536 0.936411 0.545346 -0.143957
H11   H     H_    0.829012 0.094447 0.532503 0.146661
C21   C     C_2   0.929612 0.136403 0.530408 -0.384580
C22   C     C_2   0.035876 0.069219 0.542325 -0.157830
H12   H     H_    0.179334 0.906461 0.482167 0.148658
H13   H     H_    0.559236 0.427734 0.419385 0.157864
H14   H     H_    0.430087 0.582258 0.574018 0.186628
N1    N     N_2   0.313640 0.446500 0.454900 -0.201211
C23   C     C_2   0.430624 0.511882 0.510633 -0.128421
N2    N     N_2   0.686360 0.553430 0.545150 -0.130970
C24   C     C_2   0.564776 0.493790 0.488329 -0.150611
H15   H     H_    0.316260 0.380724 0.394481 0.159595
C25   C     C_R   0.699778 0.630587 0.643277 0.274723
C26   C     C_R   0.733334 0.580447 0.752992 -0.153094
C27   C     C_R   0.749622 0.657091 0.850027 -0.173232
C28   C     C_R   0.733338 0.784001 0.837900 -0.108126
C29   C     C_R   0.701242 0.834529 0.728765 -0.164011
C30   C     C_R   0.684905 0.758104 0.631567 -0.204645
H16   H     H_    0.746729 0.482355 0.762968 0.135975
H17   H     H_    0.775510 0.618357 0.934618 0.158895
H18   H     H_    0.746104 0.843255 0.913084 0.130056
H19   H     H_    0.689351 0.932905 0.719536 0.132478
H20   H     H_    0.660632 0.797756 0.547335 0.128946

loop_
_geom_bond_atom_site_label_1
_geom_bond_atom_site_label_2
_geom_bond_distance
_ccdc_geom_bond_type
H9    C22   1.088368 S    
O4    Zn2   1.920029 S    
H10   C20   1.087981 S    
C28   C29   1.399164 A    
Zn2   O6    1.923770 S    
C19   H12   1.087375 S    
C8    H7    1.082749 S    
C26   H16   1.083203 S    
C5    H3    1.083697 S    
H11   C21   1.087517 S    
N1    C23   1.294639 D    
Zn2   O8    1.964507 S    
C10   C11   1.406053 A    
N2    C25   1.419263 S    
C23   C24   1.512270 S    
C2    C18   1.456367 S    
Zn2   N1    2.013057 S    
C1    C19   1.442401 S    
C30   H20   1.083101 S    
C29   H19   1.082713 S    
O1    Zn1   1.923768 S    
C26   C27   1.398476 A    
C29   C30   1.398633 A    
Zn1   O7    1.920029 S    
C15   H8    1.081744 S    
C13   C14   1.391227 A    
H13   C24   1.085179 S    
O3    Zn1   1.964507 S    
C7    H5    1.083137 S    
C8    C9    1.391319 A    
C3    C21   1.442551 S    
O8    C4    1.290041 A    
O2    C1    1.293580 A    
C16   H4    1.079168 S    
C9    C10   1.419245 A    
C27   H17   1.082181 S    
C10   C12   1.412255 A    
C12   C16   1.388117 A    
O4    C2    1.294955 A    
C9    H6    1.078884 S    
O7    C4    1.294196 A    
H14   C23   1.084264 S    
C11   C18   1.409681 A    
C21   C22   1.334133 D    
H1    C17   1.083023 S    
H2    C14   1.083919 S    
C19   C20   1.334221 D    
C7    C8    1.387216 A    
Zn1   N2    2.013144 S    
C5    C17   1.393814 A    
O3    C2    1.291129 A    
N2    C24   1.304917 D    
C25   C30   1.402240 A    
C14   C15   1.387240 A    
Zn1   O5    1.954433 S    
O5    C3    1.293455 A    
C27   C28   1.398701 A    
C5    C13   1.403921 A    
N1    H15   1.030713 S    
C12   C13   1.420208 A    
C28   H18   1.082428 S    
C6    C17   1.399778 A    
C4    C6    1.448235 S    
O6    C3    1.286278 A    
C20   C22   1.429380 S    
O2    Zn2   1.954431 S    
C11   C15   1.414872 A    
C25   C26   1.403156 A    
O1    C1    1.285976 A    
C7    C18   1.402699 A    
C6    C16   1.386144 A    
