data_mof_unit_37717.cif
_audit_creation_date              2012-12-10T20:02:25-0500
_audit_creation_method            fapswitch 2.2
_symmetry_space_group_name_H-M    P1
_symmetry_Int_Tables_number       1
_space_group_crystal_system       triclinic
_cell_length_a                    10.763062
_cell_length_b                    14.959683
_cell_length_c                    14.138557
_cell_angle_alpha                 88.885497
_cell_angle_beta                  91.140479
_cell_angle_gamma                 90.108083
_cell_volume                      2275.59317071

loop_
_atom_site_label
_atom_site_type_symbol
_atom_type_description
_atom_site_fract_x
_atom_site_fract_y
_atom_site_fract_z
_atom_type_partial_charge
C1    C     C_R   0.500287 0.327606 0.501117 0.954422
C2    C     C_R   0.475692 0.821404 0.419678 -0.040059
C3    C     C_R   0.512479 0.231849 0.504695 -0.185397
C4    C     C_R   0.515620 0.768922 0.498030 -0.190949
C5    C     C_R   0.589859 0.192141 0.439531 -0.387123
C6    C     C_R   0.574461 0.808247 0.576040 -0.361934
C7    C     C_R   0.611140 0.100720 0.444333 0.562536
C8    C     C_R   0.594146 0.899849 0.577144 0.569821
C9    C     C_R   0.545806 0.048741 0.510225 -0.089590
C10   C     C_R   0.546147 0.952660 0.502282 -0.067704
C11   C     C_R   0.408603 0.453245 0.105203 -0.273051
C12   C     C_R   0.501665 0.672670 0.499158 0.958171
C13   C     C_R   0.558842 0.567829 0.894448 -0.274989
C14   C     C_R   0.409957 0.454766 0.204405 0.031732
C15   C     C_R   0.558208 0.566810 0.795198 0.044858
C16   C     C_R   0.259691 0.500003 0.498670 0.877388
C17   C     C_R   0.740009 0.497187 0.501113 0.869796
C18   C     C_R   0.592817 0.542267 0.205164 0.002231
C19   C     C_R   0.441875 0.432750 0.795430 0.035983
C20   C     C_R   0.595935 0.541536 0.105973 -0.299182
C21   C     C_R   0.441347 0.430625 0.894668 -0.312129
C22   C     C_R   0.501828 0.497715 0.053535 0.121871
C23   C     C_R   0.872268 0.493461 0.502517 -0.092576
C24   C     C_R   0.500729 0.498665 0.946607 0.126069
C25   C     C_R   0.176269 0.629613 0.189753 0.589176
C26   C     C_R   0.764491 0.314186 0.752158 0.582349
C27   C     C_R   0.156390 0.611446 0.286287 -0.246952
C28   C     C_R   0.814062 0.351793 0.668743 -0.263543
C29   C     C_R   0.106411 0.528963 0.315829 0.081347
C30   C     C_R   0.885611 0.430298 0.671766 0.085034
C31   C     C_R   0.077839 0.464338 0.247973 -0.209913
C32   C     C_R   0.906922 0.471782 0.758649 -0.200759
C33   C     C_R   0.093485 0.482963 0.151953 -0.311007
C34   C     C_R   0.127183 0.497525 0.496219 -0.091463
C35   C     C_R   0.856431 0.435968 0.841316 -0.266129
C36   C     C_R   0.139448 0.566235 0.122001 0.081545
C37   C     C_R   0.784782 0.357356 0.838718 0.104278
C38   C     C_R   0.930276 0.517027 0.418430 -0.254684
C39   C     C_R   0.068889 0.472937 0.580603 -0.259431
C40   C     C_3   0.811553 0.084518 0.399172 -0.339744
C41   C     C_3   0.778958 0.920021 0.654409 -0.374226
C42   C     C_3   0.340589 0.706358 0.130190 -0.292598
C43   C     C_3   0.747387 0.167639 0.707266 -0.296169
C44   C     C_3   0.295830 0.006203 0.613279 -0.340722
C45   C     C_R   0.941334 0.467601 0.584140 0.034980
C46   C     C_3   0.326087 0.995912 0.359590 -0.329055
C47   C     C_R   0.057196 0.515950 0.412529 0.033041
C48   C     C_R   0.468376 0.088063 0.576958 0.462608
C49   C     C_R   0.487424 0.914162 0.422995 0.477199
C50   C     C_R   0.454891 0.180791 0.575957 0.008783
H1    H     H_    0.333214 0.418637 0.069963 0.136004
H2    H     H_    0.795877 0.320939 0.601230 0.123921
H3    H     H_    0.036720 0.401111 0.269273 0.157732
H4    H     H_    0.962218 0.532241 0.762255 0.151259
H5    H     H_    0.066111 0.433657 0.100444 0.164045
H6    H     H_    0.873862 0.469363 0.907559 0.149523
H7    H     H_    0.876428 0.535415 0.355282 0.172951
H8    H     H_    0.122838 0.453906 0.643429 0.169924
H9    H     H_    0.635492 0.232376 0.385894 0.192110
H10   H     H_    0.606674 0.767813 0.636014 0.184584
H11   H     H_    0.199896 0.540263 0.991026 0.178841
H12   H     H_    0.603326 0.623383 0.929343 0.134648
H13   H     H_    0.054626 0.582235 0.994237 0.181124
H14   H     H_    0.639680 0.316804 0.917177 0.218635
H15   H     H_    0.757020 0.359255 0.981709 0.176420
H16   H     H_    0.837987 0.072458 0.474930 0.133485
H17   H     H_    0.829041 0.155454 0.378611 0.161515
H18   H     H_    0.872852 0.042513 0.356274 0.199240
H19   H     H_    0.821483 0.940800 0.586253 0.155096
H20   H     H_    0.796863 0.847943 0.669646 0.172929
H21   H     H_    0.825647 0.958459 0.711262 0.191086
H22   H     H_    0.344256 0.671852 0.061515 0.191581
H23   H     H_    0.338527 0.419903 0.243206 0.143386
H24   H     H_    0.401956 0.671786 0.183410 0.169809
H25   H     H_    0.378140 0.774686 0.118551 0.194293
H26   H     H_    0.845262 0.159233 0.733047 0.141677
H27   H     H_    0.743278 0.175010 0.628996 0.150964
H28   H     H_    0.696695 0.105434 0.725980 0.251317
H29   H     H_    0.307577 0.947334 0.567819 0.159929
H30   H     H_    0.241089 0.058859 0.574482 0.124885
H31   H     H_    0.240494 0.984070 0.674816 0.201407
H32   H     H_    0.325926 0.054444 0.406548 0.155966
H33   H     H_    0.264050 0.942567 0.388069 0.130265
H34   H     H_    0.604032 0.619852 0.756170 0.122699
H35   H     H_    0.286129 0.018219 0.290195 0.207409
H36   H     H_    0.416128 0.205017 0.712655 0.246969
H37   H     H_    0.289696 0.199394 0.639599 0.175193
H38   H     H_    0.473548 0.801041 0.279171 0.220655
H39   H     H_    0.330947 0.804215 0.327787 0.214888
H40   H     H_    0.665054 0.576647 0.244442 0.132715
H41   H     H_    0.396202 0.380117 0.756562 0.142015
H42   H     H_    0.672677 0.574395 0.071356 0.139961
H43   H     H_    0.397145 0.374526 0.929722 0.140850
H44   H     H_    0.175235 0.662805 0.337613 0.148214
N1    N     N_R   0.500000 0.499980 0.252470 -0.100062
N2    N     N_R   0.500000 0.500020 0.747530 -0.097222
N3    N     N_3   0.144467 0.587858 0.023047 -0.440347
N4    N     N_3   0.736393 0.318564 0.924143 -0.424740
N5    N     N_3   0.380827 0.223029 0.645547 -0.429133
N6    N     N_3   0.421753 0.780829 0.337593 -0.417174
O1    O     O_R   0.500010 0.369070 0.579480 -0.595308
O2    O     O_3   0.650695 0.939147 0.654679 -0.573664
O3    O     O_3   0.217784 0.713499 0.162282 -0.610759
O4    O     O_3   0.687598 0.239687 0.750352 -0.612483
O5    O     O_3   0.412236 0.037057 0.646996 -0.560453
O6    O     O_3   0.448665 0.966170 0.345773 -0.562015
O7    O     O_R   0.499990 0.630930 0.420520 -0.599044
O8    O     O_R   0.500010 0.369060 0.420520 -0.630463
O9    O     O_R   0.499990 0.630940 0.579480 -0.637819
O10   O     O_R   0.316760 0.500010 0.579480 -0.627930
O11   O     O_R   0.683240 0.499990 0.420520 -0.639910
O12   O     O_R   0.316760 0.500000 0.420520 -0.626089
O13   O     O_R   0.683240 0.500000 0.579480 -0.615636
O14   O     O_3   0.687015 0.060262 0.379844 -0.553460
Zn1   Zn    Zn3+2 0.500000 0.500010 0.606140 0.955194
Zn2   Zn    Zn3+2 0.500000 0.499990 0.393860 0.942261

loop_
_geom_bond_atom_site_label_1
_geom_bond_atom_site_label_2
_ccdc_geom_bond_type
C33   H5    S    
C49   O6    S    
C23   C45   A    
C27   C29   A    
C30   C45   S    
C42   O3    S    
C17   O13   A    
C44   O5    S    
C43   H28   S    
C20   H42   S    
C50   N5    S    
C17   C23   S    
C29   C47   S    
C7    O14   S    
C35   C37   A    
H15   N4    S    
C11   C14   A    
C33   C36   A    
C41   O2    S    
C43   O4    S    
C37   N4    S    
C16   C34   S    
C46   H32   S    
C40   O14   S    
C13   H12   S    
C40   H17   S    
C31   C33   A    
N2    Zn1   S    
O11   Zn2   S    
C4    C12   S    
C9    C10   S    
C41   H21   S    
C46   H35   S    
C26   O4    S    
H14   N4    S    
C2    N6    S    
C40   H16   S    
C18   N1    A    
C17   O11   A    
C32   H4    S    
C12   O9    A    
C3    C50   A    
H37   N5    S    
C42   H24   S    
C5    H9    S    
H39   N6    S    
C16   O10   A    
C34   C39   A    
C18   H40   S    
C32   C35   A    
C6    H10   S    
C44   H30   S    
C11   H1    S    
C4    C6    A    
C44   H31   S    
C15   N2    A    
C5    C7    A    
C25   O3    S    
C6    C8    A    
C1    O8    A    
C39   H8    S    
C36   N3    S    
C1    C3    S    
C2    C4    A    
C14   H23   S    
C2    C49   A    
C38   H7    S    
C48   O5    S    
N1    Zn2   S    
C42   H22   S    
C42   H25   S    
C31   H3    S    
H36   N5    S    
C38   C47   A    
H38   N6    S    
C8    C10   A    
C20   C22   A    
C13   C15   A    
O1    Zn1   S    
C22   C24   S    
C43   H27   S    
C1    O1    A    
C14   N1    A    
O12   Zn2   S    
C16   O12   A    
C41   H19   S    
C43   H26   S    
C7    C9    A    
C19   C21   A    
C35   H6    S    
C44   H29   S    
H11   N3    S    
C3    C5    A    
C12   O7    A    
C26   C37   A    
C15   H34   S    
C25   C27   A    
C23   C38   A    
C11   C22   A    
C26   C28   A    
C39   C45   A    
O8    Zn2   S    
C28   C30   A    
C29   C31   A    
C30   C32   A    
C28   H2    S    
C21   H43   S    
C46   O6    S    
C48   C50   A    
C18   C20   A    
O7    Zn2   S    
C19   H41   S    
O9    Zn1   S    
C25   C36   A    
C46   H33   S    
C13   C24   A    
C9    C48   A    
H13   N3    S    
C40   H18   S    
C21   C24   A    
C27   H44   S    
C34   C47   A    
C10   C49   A    
C8    O2    S    
O10   Zn1   S    
C19   N2    A    
C41   H20   S    
O13   Zn1   S    
