data_mof_unit_11735.cif
_audit_creation_date              2013-03-05T15:54:12-0500
_audit_creation_method            fapswitch 2.2
_symmetry_space_group_name_H-M    P1
_symmetry_Int_Tables_number       1
_space_group_crystal_system       triclinic
_cell_length_a                    10.593235
_cell_length_b                    10.694807
_cell_length_c                    9.99995
_cell_angle_alpha                 91.748192
_cell_angle_beta                  90.502764
_cell_angle_gamma                 95.464411
_cell_volume                      1127.16927817

loop_
_atom_site_label
_atom_site_type_symbol
_atom_site_description
_atom_site_fract_x
_atom_site_fract_y
_atom_site_fract_z
_atom_type_partial_charge
O1    O     O_R   0.500000 0.316780 0.614690 -0.569946
O2    O     O_R   0.499990 0.316750 0.385360 -0.664671
C1    C     C_R   0.514623 0.262188 0.499291 0.952335
O3    O     O_R   0.313960 0.499980 0.614650 -0.531303
O4    O     O_R   0.313940 0.499960 0.385310 -0.632768
C2    C     C_R   0.257544 0.501871 0.499885 0.964188
Zn1   Zn    Zn3+2 0.500010 0.500020 0.653130 1.121703
Zn2   Zn    Zn3+2 0.499990 0.499980 0.346870 1.039905
O5    O     O_R   0.500010 0.683250 0.614640 -0.582576
O6    O     O_R   0.500000 0.683220 0.385310 -0.585083
O7    O     O_R   0.686060 0.500040 0.614690 -0.564392
O8    O     O_R   0.686040 0.500020 0.385350 -0.596264
C3    C     C_R   0.488779 0.739090 0.502319 0.885029
C4    C     C_R   0.742209 0.507706 0.500433 0.958858
C5    C     C_3   0.035825 0.487464 0.622037 0.353867
C6    C     C_3   0.943093 0.398415 0.537165 -0.228244
H1    H     H_    0.900660 0.303414 0.561274 0.249434
C7    C     C_3   0.876856 0.513599 0.500068 -0.168719
C8    C     C_3   0.967538 0.602650 0.587454 -0.103233
C9    C     C_3   0.054704 0.623679 0.463986 -0.191231
C10   C     C_3   0.959450 0.536583 0.376219 -0.113889
C11   C     C_3   0.027831 0.423397 0.415881 0.259535
C12   C     C_3   0.122552 0.507882 0.501214 -0.225493
H2    H     H_    0.939555 0.676558 0.658504 0.241871
H3    H     H_    0.102720 0.715202 0.433960 0.230162
H4    H     H_    0.925382 0.555396 0.274151 0.244360
H5    H     H_    0.501475 0.104823 0.285916 0.191579
C13   C     C_R   0.602790 0.124232 0.740625 0.366051
C14   C     C_R   0.583503 0.068081 0.862900 -0.271485
H6    H     H_    0.630118 0.111805 0.951731 0.230472
C15   C     C_R   0.500890 0.959723 0.873518 0.254867
C16   C     C_R   0.447480 0.898225 0.756179 0.287325
C17   C     C_R   0.485865 0.944744 0.629353 -0.061901
C18   C     C_R   0.542257 0.068356 0.623281 -0.017448
C19   C     C_R   0.532069 0.129804 0.500248 -0.078689
C20   C     C_R   0.505652 0.060339 0.381565 -0.073782
H7    H     H_    0.459647 0.879663 0.293000 0.244384
C21   C     C_R   0.478562 0.932630 0.385516 -0.046997
C22   C     C_R   0.474883 0.872922 0.507524 -0.091047
C23   C     C_R   0.348823 0.320847 0.142626 -0.203703
H8    H     H_    0.337291 0.332420 0.247063 0.260550
C24   C     C_R   0.286185 0.213600 0.084059 0.195588
C25   C     C_R   0.284592 0.200938 0.945656 0.278112
C26   C     C_R   0.338935 0.299854 0.866807 0.316872
C27   C     C_R   0.420263 0.406787 0.926438 0.016508
C28   C     C_R   0.422611 0.410625 0.071043 -0.018083
N1    N     N_R   0.498800 0.498800 0.142780 -0.150103
C29   C     C_R   0.582741 0.577976 0.074394 0.396596
C30   C     C_R   0.584767 0.576272 0.931601 0.319249
N2    N     N_R   0.498760 0.498720 0.857170 -0.140406
N3    N     N_R   0.478471 0.911044 0.003705 0.212293
O9    O     O_R   0.572989 0.913895 0.087858 -0.365342
O10   O     O_R   0.363420 0.888372 0.047104 -0.309009
N4    N     N_R   0.346778 0.798725 0.765173 0.266499
O11   O     O_R   0.252080 0.790778 0.680619 -0.358508
O12   O     O_R   0.351277 0.713057 0.854011 -0.295677
Cl1   Cl    Cl    0.695512 0.679173 0.164730 -0.434999
N5    N     N_R   0.219191 0.121756 0.167351 0.283923
O13   O     O_R   0.253791 0.112602 0.291533 -0.368681
O14   O     O_R   0.112001 0.061886 0.127851 -0.174267
Cl2   Cl    Cl    0.207629 0.060116 0.870333 -0.348435
Cl3   Cl    Cl    0.271564 0.278188 0.706031 -0.476688
N6    N     N_R   0.687461 0.644674 0.865919 0.242174
O15   O     O_R   0.801169 0.609542 0.877532 -0.304463
O16   O     O_R   0.672591 0.752701 0.815231 -0.364644
N7    N     N_R   0.070555 0.462972 0.759430 0.265458
O17   O     O_R   0.018639 0.363798 0.817100 -0.244939
O18   O     O_R   0.136440 0.549453 0.831276 -0.250359
N8    N     N_R   0.054750 0.326243 0.318715 0.228867
O19   O     O_R   0.015339 0.209790 0.341600 -0.275106
O20   O     O_R   0.079655 0.358361 0.196518 -0.332924
Cl4   Cl    Cl    0.720374 0.251345 0.740033 -0.543118

loop_
_geom_bond_atom_site_label_1
_geom_bond_atom_site_label_2
_geom_bond_distance
_ccdc_geom_bond_type
N7    O18   1.298634 A    
C10   H4    1.110138 S    
N6    O16   1.298279 A    
C30   N6    1.428389 S    
C7    C10   1.535061 S    
C4    C7    1.421778 S    
C8    C9    1.557248 S    
C24   N5    1.445600 S    
C29   Cl1   1.757736 S    
C27   C28   1.445297 A    
C5    C8    1.533539 S    
C14   H6    1.083780 S    
C13   C14   1.386832 A    
C7    C8    1.534175 S    
O4    C2    1.297292 A    
O7    C4    1.293950 A    
C9    H3    1.110297 S    
N5    O14   1.301368 A    
C5    C6    1.533019 S    
C18   C19   1.420466 A    
N8    O20   1.301842 A    
O5    C3    1.297886 A    
N4    O11   1.301140 A    
N1    C29   1.370391 A    
C6    H1    1.105590 S    
C11   N8    1.450770 S    
C23   C24   1.380627 A    
N7    O17   1.300697 A    
C13   C18   1.419954 A    
C10   C11   1.529249 S    
C13   Cl4   1.754357 S    
O3    Zn1   2.004725 S    
C16   N4    1.438666 S    
N4    O12   1.299287 A    
N3    O9    1.299783 A    
O3    C2    1.290864 A    
C26   Cl3   1.753142 S    
N5    O13   1.300879 A    
C5    N7    1.457076 S    
O1    C1    1.294529 A    
C19   C20   1.392682 A    
Zn1   O7    2.011297 S    
C25   C26   1.419550 A    
H7    C21   1.077082 S    
C15   C16   1.414185 A    
C9    C12   1.543314 S    
C1    C19   1.445486 S    
Zn2   O8    2.004726 S    
C17   C18   1.401203 A    
C17   C22   1.418151 A    
Zn2   O6    1.985511 S    
C23   H8    1.057433 S    
O8    C4    1.287667 A    
C24   C25   1.386307 A    
C23   C28   1.397894 A    
C26   C27   1.472218 A    
C25   Cl2   1.785056 S    
Zn1   O5    2.008539 S    
C28   N1    1.363411 A    
C29   C30   1.427857 A    
C6    C11   1.530139 S    
O1    Zn1   1.985510 S    
O2    Zn2   2.008540 S    
Zn1   N2    2.041012 S    
C15   N3    1.430220 S    
O6    C3    1.309028 A    
O4    Zn2   2.011296 S    
H5    C20   1.083598 S    
C16   C17   1.424905 A    
C20   C21   1.370482 A    
O2    C1    1.310440 A    
Zn2   N1    2.040464 S    
C14   C15   1.391436 A    
C21   C22   1.393374 A    
C27   N2    1.426150 A    
C2    C12   1.437705 S    
C5    C12   1.532617 S    
C8    H2    1.109729 S    
N8    O19   1.303007 A    
C3    C22   1.452154 S    
N6    O15   1.300760 A    
C9    C10   1.552955 S    
C6    C7    1.528204 S    
C30   N2    1.370590 A    
C11   C12   1.522054 S    
N3    O10   1.300738 A    
