data_mof_unit_46474.cif
_audit_creation_date              2012-12-11T17:39:40-0500
_audit_creation_method            fapswitch 2.2
_symmetry_space_group_name_H-M    P1
_symmetry_Int_Tables_number       1
_space_group_crystal_system       triclinic
_cell_length_a                    15.008418
_cell_length_b                    15.112259
_cell_length_c                    14.964867
_cell_angle_alpha                 109.005533
_cell_angle_beta                  109.592469
_cell_angle_gamma                 110.328008
_cell_volume                      2595.94211229

loop_
_atom_site_label
_atom_site_type_symbol
_atom_type_description
_atom_site_fract_x
_atom_site_fract_y
_atom_site_fract_z
_atom_type_partial_charge
C1    C     C_R   0.908129 0.975649 0.720356 -0.125689
C2    C     C_R   0.906717 0.702115 0.504215 -0.149489
C3    C     C_R   0.741493 0.778152 0.185832 -0.130411
C4    C     C_R   0.092136 0.315183 0.556591 -0.139185
C5    C     C_R   0.253742 0.939975 0.528251 -0.151808
C6    C     C_R   0.707121 0.675433 0.175099 0.128511
C7    C     C_R   0.279280 0.959157 0.452346 0.046428
C8    C     C_R   0.996538 0.698970 0.563189 0.053096
C9    C     C_R   0.995736 0.052599 0.190805 0.063812
C10   C     C_R   0.480450 0.589314 0.341314 -0.102643
C11   C     C_R   0.463999 0.671601 0.330927 -0.196348
C12   C     C_R   0.998592 0.323105 0.536292 0.027180
C13   C     C_R   0.451913 0.740575 0.409396 -0.066062
C14   C     C_R   0.456861 0.726130 0.500047 0.562758
C15   C     C_R   0.469677 0.640504 0.506650 -0.220704
C16   C     C_R   0.303753 0.206758 0.797357 -0.161440
C17   C     C_R   0.482596 0.573348 0.428484 -0.187273
C18   C     C_R   0.351830 0.840409 0.401985 -0.207176
C19   C     C_R   0.353041 0.937559 0.419441 0.029983
C20   C     C_R   0.432436 0.018442 0.415382 0.018062
C21   C     C_R   0.509395 0.000609 0.396579 -0.235717
C22   C     C_R   0.521627 0.914092 0.400282 0.044147
C23   C     C_R   0.367886 0.298048 0.797967 0.133456
C24   C     C_R   0.439832 0.830251 0.398866 0.040177
C25   C     C_R   0.440972 0.170495 0.377852 -0.192039
C26   C     C_R   0.463545 0.277635 0.413392 -0.126456
C27   C     C_R   0.500855 0.346566 0.523031 -0.104502
C28   C     C_R   0.696166 0.991320 0.399212 -0.149919
C29   C     C_R   0.516110 0.308701 0.597334 -0.116977
C30   C     C_R   0.493178 0.201633 0.562207 -0.117055
C31   C     C_R   0.454033 0.131337 0.451839 0.116311
C32   C     C_R   0.791277 0.195667 0.175716 -0.129965
C33   C     C_R   0.866869 0.281744 0.283079 -0.108633
C34   C     C_R   0.630856 0.930439 0.426978 0.069330
C35   C     C_R   0.829723 0.317063 0.354401 0.113095
C36   C     C_R   0.716279 0.265249 0.317164 -0.196825
C37   C     C_R   0.641172 0.178080 0.210318 -0.112190
C38   C     C_R   0.678435 0.143952 0.139294 -0.101522
C39   C     C_R   0.906662 0.506373 0.479744 -0.233390
C40   C     C_R   0.303644 0.298169 0.707104 -0.138040
C41   C     C_R   0.988950 0.605951 0.573683 0.058980
C42   C     C_R   0.068667 0.612846 0.663223 0.031416
C43   C     C_R   0.069665 0.517497 0.650469 -0.248883
C44   C     C_R   0.991882 0.419064 0.551486 0.076813
C45   C     C_R   0.738939 0.686111 0.277662 -0.141458
C46   C     C_R   0.908547 0.413411 0.465681 0.019184
C47   C     C_R   0.260861 0.752055 0.822805 -0.165085
C48   C     C_R   0.335101 0.851671 0.920855 -0.113330
C49   C     C_R   0.297488 0.916587 0.966446 -0.087404
C50   C     C_R   0.185513 0.881907 0.914487 -0.111446
C51   C     C_R   0.110991 0.782390 0.816762 -0.139887
C52   C     C_R   0.693820 0.903314 0.492365 -0.147135
C53   C     C_R   0.148010 0.716810 0.769292 0.115108
C54   C     C_2   0.541491 0.463545 0.876996 -0.144706
C55   C     C_2   0.485700 0.370233 0.873302 -0.198007
C56   C     C_R   0.243373 0.025681 0.431193 -0.097768
C57   C     C_2   0.634558 0.559873 0.980935 -0.103914
C58   C     C_2   0.637704 0.572250 0.074720 -0.201470
C59   C     C_R   0.390914 0.253164 0.119894 -0.120294
C60   C     C_R   0.283550 0.198211 0.098032 -0.214495
C61   C     C_R   0.206962 0.227576 0.054262 0.068908
C62   C     C_R   0.240598 0.315329 0.033500 0.176349
C63   C     C_R   0.349893 0.369954 0.056583 -0.165723
C64   C     C_R   0.907788 0.219751 0.472494 -0.109112
C65   C     C_R   0.423996 0.338610 0.099130 -0.154385
C66   C     C_R   0.085150 0.160347 0.121438 -0.240132
C67   C     C_R   0.089815 0.790049 0.592770 -0.114801
C68   C     C_R   0.989318 0.078804 0.103931 0.055108
C69   C     C_R   0.892357 0.018302 0.000059 0.010289
C70   C     C_R   0.896654 0.041128 0.918913 -0.229857
C71   C     C_R   0.998479 0.094831 0.926978 0.059620
C72   C     C_R   0.094042 0.164049 0.032724 0.023225
C73   C     C_R   0.791298 0.815502 0.905059 -0.129051
C74   C     C_R   0.693175 0.715388 0.848331 -0.159113
C75   C     C_R   0.598775 0.711650 0.848217 -0.092035
C76   C     C_R   0.091892 0.062646 0.812883 -0.164425
C77   C     C_R   0.602450 0.807793 0.905022 -0.107879
C78   C     C_R   0.907480 0.999526 0.199940 -0.131453
C79   C     C_R   0.699508 0.908120 0.958999 -0.220915
C80   C     C_R   0.795085 0.913006 0.960352 0.126010
C81   C     C_R   0.001023 0.051776 0.824540 0.056509
C82   C     C_3   0.520626 0.900661 0.635455 0.166581
C83   C     C_3   0.577967 0.942755 0.757791 -0.287107
C84   C     C_3   0.653006 0.066654 0.822749 -1.034600
C85   C     C_3   0.165270 0.355964 0.992539 -0.468093
C86   C     C_3   0.138779 0.337067 0.877183 -0.234402
C87   C     C_3   0.059725 0.374636 0.835102 -0.907138
C88   C     C_R   0.089861 0.089342 0.286959 -0.152253
H1    H     H_    0.822704 0.946214 0.695519 0.093038
H2    H     H_    0.491972 0.538076 0.281917 0.130533
H3    H     H_    0.462170 0.682635 0.262460 0.137835
H4    H     H_    0.176952 0.380761 0.602023 0.102353
H5    H     H_    0.471131 0.626945 0.573745 0.138736
H6    H     H_    0.289529 0.778343 0.403658 0.154416
H7    H     H_    0.571734 0.066393 0.398889 0.131206
H8    H     H_    0.412537 0.117853 0.292863 0.109537
H9    H     H_    0.452455 0.307299 0.356077 0.116956
H10   H     H_    0.518714 0.429563 0.550882 0.093691
H11   H     H_    0.546362 0.362509 0.682301 0.115965
H12   H     H_    0.247157 0.053389 0.374117 0.112672
H13   H     H_    0.505725 0.173315 0.620688 0.110308
H14   H     H_    0.619478 0.077981 0.055929 0.099236
H15   H     H_    0.333531 0.174643 0.847921 0.112507
H16   H     H_    0.820499 0.170123 0.120791 0.112664
H17   H     H_    0.953933 0.321894 0.310204 0.114343
H18   H     H_    0.686361 0.292229 0.371044 0.125108
H19   H     H_    0.554047 0.137608 0.182306 0.094735
H20   H     H_    0.846475 0.501867 0.410448 0.133170
H21   H     H_    0.130610 0.519586 0.716890 0.131708
H22   H     H_    0.291671 0.703578 0.787784 0.111777
H23   H     H_    0.174508 0.817445 0.646920 0.110735
H24   H     H_    0.421954 0.878940 0.961380 0.097930
H25   H     H_    0.355013 0.993697 0.042073 0.089895
H26   H     H_    0.156338 0.932115 0.949840 0.111953
H27   H     H_    0.669830 0.012659 0.336722 0.101136
H28   H     H_    0.024398 0.756675 0.777879 0.111874
H29   H     H_    0.508150 0.476727 0.809510 0.111852
H30   H     H_    0.522774 0.354342 0.937690 0.137786
H31   H     H_    0.689946 0.627532 0.979514 0.140871
H32   H     H_    0.581206 0.507515 0.078020 0.125883
H33   H     H_    0.507959 0.381149 0.117779 0.106108
H34   H     H_    0.825339 0.983024 0.156458 0.111019
H35   H     H_    0.448767 0.229727 0.153536 0.110595
H36   H     H_    0.259541 0.131541 0.114484 0.120718
H37   H     H_    0.378376 0.438153 0.043107 0.119051
H38   H     H_    0.332099 0.348299 0.673808 0.090379
H39   H     H_    0.158091 0.212552 0.202067 0.131215
H40   H     H_    0.820884 0.995434 0.841789 0.134024
H41   H     H_    0.863093 0.817555 0.902087 0.111992
H42   H     H_    0.690044 0.640729 0.803785 0.111344
H43   H     H_    0.522438 0.634524 0.803353 0.094244
H44   H     H_    0.529075 0.804850 0.904011 0.104259
H45   H     H_    0.173752 0.147756 0.315658 0.099587
H46   H     H_    0.699449 0.981911 0.997229 0.117260
H47   H     H_    0.666516 0.847727 0.520671 0.098685
H48   H     H_    0.822524 0.195999 0.443764 0.112502
H49   H     H_    0.177692 0.110850 0.874012 0.132235
H50   H     H_    0.722490 0.621779 0.297690 0.094918
H51   H     H_    0.477655 0.945125 0.619012 0.139479
H52   H     H_    0.585531 0.921099 0.612864 0.079384
H53   H     H_    0.515956 0.919024 0.783314 0.213196
H54   H     H_    0.627699 0.904407 0.774066 0.210768
H55   H     H_    0.715318 0.092099 0.798021 0.270832
H56   H     H_    0.821897 0.649971 0.479041 0.095778
H57   H     H_    0.696610 0.094868 0.911550 0.270584
H58   H     H_    0.603667 0.106154 0.808513 0.270182
H59   H     H_    0.981336 0.329388 0.831795 0.264263
H60   H     H_    0.097461 0.463445 0.889162 0.261568
H61   H     H_    0.040997 0.358521 0.751250 0.254832
H62   H     H_    0.215551 0.382474 0.877961 0.199084
H63   H     H_    0.100252 0.249180 0.819419 0.215906
H64   H     H_    0.087162 0.316038 0.991625 0.202860
H65   H     H_    0.206548 0.444651 0.050330 0.195873
H66   H     H_    0.726164 0.798030 0.121160 0.117153
H67   H     H_    0.271399 0.891718 0.563334 0.119902
H68   H     H_    0.494397 0.508784 0.435378 0.126535
N1    N     N_R   0.941940 0.944580 0.650780 -0.040549
N2    N     N_R   0.204460 0.150250 0.707090 -0.047554
N3    N     N_R   0.794270 0.003240 0.446420 -0.039728
N4    N     N_R   0.204920 0.207570 0.650770 -0.044334
N5    N     N_R   0.793810 0.945920 0.502740 -0.038691
N6    N     N_R   0.943620 0.152590 0.446420 -0.041845
N7    N     N_R   0.055110 0.000900 0.707100 -0.040190
N8    N     N_R   0.795080 0.792430 0.349230 -0.038865
N9    N     N_R   0.206190 0.054080 0.497260 -0.041601
N10   N     N_R   0.056380 0.847410 0.553580 -0.040516
N11   N     N_R   0.944890 0.999100 0.292900 -0.040994
N12   N     N_R   0.058060 0.055420 0.349220 -0.039716
N13   N     N_R   0.943200 0.791100 0.497260 -0.036398
N14   N     N_R   0.795540 0.849750 0.292910 -0.044503
N15   N     N_R   0.205730 0.996760 0.553580 -0.039652
N16   N     N_R   0.056800 0.208900 0.502740 -0.039113
Ni1   Ni    Ni4+2 0.869690 0.869690 0.500000 0.213671
Ni2   Ni    Ni4+2 0.130310 0.130310 0.500000 0.213160
Ni3   Ni    Ni4+2 0.129250 0.998840 0.629170 0.212518
Ni4   Ni    Ni4+2 0.870750 0.001160 0.370830 0.213840
O1    O     O_3   0.441183 0.787867 0.578722 -0.680904

loop_
_geom_bond_atom_site_label_1
_geom_bond_atom_site_label_2
_ccdc_geom_bond_type
C25   C31   A    
C66   C68   A    
C63   C65   A    
C27   H10   S    
N9    N15   A    
C6    C45   A    
C27   C29   A    
C2    H56   S    
C41   C42   A    
C6    C58   S    
C49   H25   S    
C35   C36   A    
C3    C6    A    
N7    Ni3   S    
C54   C57   S    
C64   H48   S    
C39   C41   A    
N14   Ni4   S    
C84   H57   S    
N12   Ni2   S    
C78   N11   A    
C37   C38   A    
C87   H59   S    
C65   H33   S    
C18   C24   A    
C36   C37   A    
C45   N8    A    
C88   H45   S    
C37   H19   S    
C86   H62   S    
C9    C88   A    
C30   C31   A    
C12   C64   A    
N6    Ni4   S    
C10   C17   A    
C1    C81   A    
C23   C40   A    
C66   H39   S    
C30   H13   S    
C18   C19   A    
C73   C74   A    
C60   H36   S    
C82   H52   S    
N8    N14   A    
C66   C72   A    
C83   C84   S    
C75   H43   S    
C68   C69   A    
C88   N12   A    
C56   N9    A    
C32   H16   S    
C70   C71   A    
C32   C38   A    
C4    C12   A    
C29   C30   A    
N1    N7    A    
C52   N5    A    
C47   C53   A    
C4    H4    S    
C28   C34   A    
C59   C60   A    
C13   C14   A    
N2    N4    A    
C61   C62   A    
C7    C56   A    
N16   Ni2   S    
C77   C79   A    
C59   H35   S    
C39   H20   S    
C22   C34   S    
C62   C85   S    
C73   H41   S    
C74   C75   A    
C29   H11   S    
C16   N2    A    
C33   H17   S    
C8    C41   S    
C64   N6    A    
C87   H60   S    
N11   N12   A    
C5    C7    A    
C86   C87   S    
C21   H7    S    
C84   H55   S    
C25   C26   A    
C85   C86   S    
C36   H18   S    
C28   N3    A    
C13   C24   S    
C60   C61   A    
C51   C53   A    
C77   H44   S    
C43   C44   A    
N10   Ni3   S    
C82   H51   S    
C28   H27   S    
N5    Ni1   S    
C16   H15   S    
C47   C48   A    
C40   H38   S    
C62   C63   A    
C58   H32   S    
C50   C51   A    
C26   C27   A    
N8    Ni1   S    
C85   H65   S    
C75   C77   A    
C63   H37   S    
C8    C67   A    
C39   C46   A    
C61   C72   S    
C67   H23   S    
C48   C49   A    
C48   H24   S    
C26   H9    S    
C82   C83   S    
C16   C23   A    
C7    C19   S    
N3    Ni4   S    
C74   H42   S    
C17   H68   S    
C18   H6    S    
C22   C24   A    
C42   C43   A    
C56   H12   S    
C5    N15   A    
C83   H53   S    
C70   H40   S    
C15   C17   A    
C79   H46   S    
C54   C55   D    
C1    H1    S    
C4    N16   A    
N4    Ni2   S    
C40   N4    A    
C76   H49   S    
C2    C8    A    
N10   N13   A    
C69   C80   S    
C76   C81   A    
C15   H5    S    
C83   H54   S    
C3    N14   A    
C23   C55   S    
C84   H58   S    
C47   H22   S    
C34   C52   A    
C51   H28   S    
C57   H31   S    
C32   C33   A    
C19   C20   A    
C1    N1    A    
N3    N5    A    
N9    Ni2   S    
C85   H64   S    
C71   C72   A    
C42   C53   S    
C5    H67   S    
C86   H63   S    
C59   C65   A    
C11   C13   A    
C57   C58   D    
N15   Ni3   S    
C82   O1    S    
C45   H50   S    
C33   C35   A    
C73   C80   A    
C9    C78   A    
C3    H66   S    
C69   C70   A    
C78   H34   S    
C9    C68   S    
C14   O1    S    
C10   C11   A    
C2    N13   A    
C79   C80   A    
C11   H3    S    
N2    Ni3   S    
N6    N16   A    
C20   C21   A    
C10   H2    S    
C25   H8    S    
C38   H14   S    
C49   C50   A    
C87   H61   S    
C54   H29   S    
N1    Ni1   S    
C52   H47   S    
N13   Ni1   S    
C14   C15   A    
C12   C44   S    
C76   N7    A    
C43   H21   S    
C50   H26   S    
C21   C22   A    
C35   C46   S    
C55   H30   S    
C44   C46   A    
C67   N10   A    
N11   Ni4   S    
C71   C81   S    
C20   C31   S    
