data_mof_unit_34816.cif
_audit_creation_date              2012-12-10T17:44:29-0500
_audit_creation_method            fapswitch 2.2
_symmetry_space_group_name_H-M    P1
_symmetry_Int_Tables_number       1
_space_group_crystal_system       triclinic
_cell_length_a                    9.895899
_cell_length_b                    10.727719
_cell_length_c                    15.473925
_cell_angle_alpha                 91.392755
_cell_angle_beta                  67.877275
_cell_angle_gamma                 89.671065
_cell_volume                      1521.13407541

loop_
_atom_site_label
_atom_site_type_symbol
_atom_type_description
_atom_site_fract_x
_atom_site_fract_y
_atom_site_fract_z
_atom_type_partial_charge
C1    C     C_R   0.502184 0.739972 0.493795 0.870685
C2    C     C_R   0.743558 0.524311 0.029236 0.175406
C3    C     C_R   0.597545 0.559491 0.085051 0.097203
C4    C     C_R   0.408957 0.501741 0.676051 0.852619
C5    C     C_R   0.841724 0.491271 0.071087 -0.219454
C6    C     C_R   0.794532 0.486806 0.167824 -0.197786
C7    C     C_R   0.552789 0.553468 0.181833 -0.267981
C8    C     C_R   0.257859 0.889309 0.471395 -0.162673
C9    C     C_R   0.123014 0.950534 0.497898 -0.139141
C10   C     C_R   0.099772 0.063345 0.547647 -0.154681
C11   C     C_R   0.215618 0.120442 0.562479 -0.162834
C12   C     C_R   0.429516 0.562420 0.907570 0.093893
C13   C     C_R   0.356857 0.064373 0.527516 0.098384
C14   C     C_R   0.371794 0.940383 0.495285 0.094689
C15   C     C_R   0.499942 0.873785 0.489318 -0.122601
C16   C     C_R   0.494303 0.260947 0.509176 0.886949
C17   C     C_R   0.620045 0.936335 0.494826 -0.221835
C18   C     C_R   0.614592 0.063223 0.506823 -0.217889
C19   C     C_R   0.485334 0.128237 0.520436 -0.131593
C20   C     C_R   0.789535 0.667384 0.620238 -0.236512
C21   C     C_R   0.825047 0.749052 0.679285 -0.217372
C22   C     C_R   0.964439 0.747083 0.680970 0.225752
C23   C     C_R   0.288664 0.612364 0.959714 0.180221
C24   C     C_R   0.068427 0.662338 0.622601 -0.195357
C25   C     C_R   0.036868 0.580665 0.560196 0.104515
C26   C     C_R   0.892655 0.581841 0.559528 0.173495
C27   C     C_R   0.962458 0.421860 0.443092 -0.135761
C28   C     C_R   0.591245 0.502128 0.324088 0.877787
C29   C     C_R   0.105748 0.422105 0.442956 -0.112823
C30   C     C_R   0.355347 0.523526 0.776848 -0.050099
C31   C     C_R   0.648588 0.514449 0.223062 -0.060916
C32   C     C_R   0.183720 0.619511 0.918991 -0.225719
C33   C     C_R   0.217608 0.576239 0.827277 -0.221610
C34   C     C_R   0.538393 0.561404 0.946132 0.064626
C35   C     C_R   0.456165 0.510698 0.819162 -0.262401
C36   C     C_3   0.003939 0.836067 0.743870 -0.910833
C37   C     C_R   0.497220 0.588288 0.042566 0.068789
C38   C     C_R   0.356478 0.640126 0.093162 -0.231795
C39   C     C_R   0.254962 0.653966 0.051528 -0.242060
C40   C     C_R   0.686947 0.534706 0.891363 -0.224188
C41   C     C_R   0.788153 0.518248 0.932541 -0.243776
H1    H     H_    0.953189 0.463954 0.029017 0.150826
H2    H     H_    0.900072 0.494650 0.888751 0.149748
H3    H     H_    0.556789 0.460594 0.781055 0.157823
H4    H     H_    0.728332 0.527957 0.816115 0.160580
H5    H     H_    0.148419 0.694161 0.092159 0.151636
H6    H     H_    0.719490 0.887567 0.488965 0.171313
H7    H     H_    0.993264 0.108380 0.572364 0.139198
H8    H     H_    0.936269 0.358057 0.396660 0.142697
H9    H     H_    0.440776 0.572117 0.226494 0.156831
H10   H     H_    0.913007 0.902575 0.781218 0.242207
H11   H     H_    0.029972 0.783624 0.796618 0.235535
H12   H     H_    0.271672 0.804293 0.429968 0.166183
H13   H     H_    0.100613 0.890457 0.702057 0.254985
H14   H     H_    0.187421 0.358398 0.396423 0.156020
H15   H     H_    0.076949 0.660737 0.957329 0.146012
H16   H     H_    0.138598 0.586872 0.795042 0.150927
H17   H     H_    0.323279 0.674163 0.164435 0.145863
H18   H     H_    0.035617 0.908891 0.481705 0.138886
H19   H     H_    0.193013 0.207710 0.602155 0.161643
H20   H     H_    0.712701 0.110305 0.504035 0.168366
H21   H     H_    0.680060 0.675058 0.624627 0.223523
H22   H     H_    0.742545 0.813691 0.724267 0.160191
H23   H     H_    0.173043 0.663538 0.627237 0.216524
H24   H     H_    0.870372 0.457611 0.199075 0.156674
N1    N     N_R   0.856800 0.501200 0.500850 -0.111158
N2    N     N_R   0.142390 0.501280 0.500880 -0.118409
O1    O     O_R   0.385310 0.683220 0.500000 -0.647780
O2    O     O_R   0.614640 0.683250 0.500010 -0.635033
O3    O     O_R   0.319840 0.499980 0.632240 -0.638354
O4    O     O_R   0.549160 0.500000 0.632250 -0.631612
O5    O     O_R   0.385360 0.316750 0.499990 -0.619681
O6    O     O_R   0.614690 0.316780 0.500000 -0.616227
O7    O     O_R   0.450840 0.500000 0.367750 -0.616770
O8    O     O_R   0.680160 0.500020 0.367760 -0.610488
Zn1   Zn    Zn3+2 0.346880 0.499980 0.499990 0.917461
Zn2   Zn    Zn3+2 0.653120 0.500020 0.500010 0.928539

loop_
_geom_bond_atom_site_label_1
_geom_bond_atom_site_label_2
_ccdc_geom_bond_type
C5    H1    S    
C27   C29   A    
C34   C37   A    
O2    Zn2   S    
C16   O5    A    
O5    Zn1   S    
C28   O7    A    
C4    O3    A    
C12   C23   A    
O7    Zn1   S    
C30   C35   A    
C34   C40   A    
C3    C7    A    
C5    C6    A    
C2    C41   A    
C1    O1    A    
C18   C19   A    
C38   H17   S    
C6    H24   S    
C8    C9    A    
C25   N2    A    
C8    C14   A    
C1    C15   S    
C9    C10   A    
C36   H11   S    
C6    C31   A    
C24   H23   S    
C29   N2    A    
C13   C14   A    
C41   H2    S    
C40   H4    S    
C7    C31   A    
C13   C19   A    
C16   O6    A    
C26   N1    A    
C24   C25   A    
C29   H14   S    
C25   C26   A    
C1    O2    A    
C9    H18   S    
C37   C38   A    
C17   C18   A    
C12   C35   A    
C35   H3    S    
O8    Zn2   S    
C36   H10   S    
C39   H5    S    
C40   C41   A    
C10   H7    S    
C22   C24   A    
C2    C5    A    
C12   C34   A    
C11   H19   S    
O4    Zn2   S    
C15   C17   A    
N1    Zn2   S    
C33   H16   S    
C30   C33   A    
C28   C31   S    
C17   H6    S    
C7    H9    S    
C8    H12   S    
C18   H20   S    
O1    Zn1   S    
C22   C36   S    
C23   C32   A    
C2    C3    A    
C27   N1    A    
C32   C33   A    
O3    Zn1   S    
C11   C13   A    
C38   C39   A    
C20   C26   A    
C16   C19   S    
C23   C39   A    
C20   H21   S    
C21   H22   S    
C36   H13   S    
C10   C11   A    
C20   C21   A    
C3    C37   A    
O6    Zn2   S    
C14   C15   A    
N2    Zn1   S    
C21   C22   A    
C28   O8    A    
C32   H15   S    
C4    O4    A    
C4    C30   S    
C27   H8    S    
