data_mof_unit_67301.cif
_audit_creation_date              2013-03-05T16:02:16-0500
_audit_creation_method            fapswitch 2.2
_symmetry_space_group_name_H-M    P1
_symmetry_Int_Tables_number       1
_space_group_crystal_system       triclinic
_cell_length_a                    8.479921
_cell_length_b                    14.667574
_cell_length_c                    15.051519
_cell_angle_alpha                 94.957059
_cell_angle_beta                  97.742488
_cell_angle_gamma                 92.821389
_cell_volume                      1844.58480626

loop_
_atom_site_label
_atom_site_type_symbol
_atom_site_description
_atom_site_fract_x
_atom_site_fract_y
_atom_site_fract_z
_atom_type_partial_charge
P1    P     P_3+3 0.018600 0.416790 0.295970 0.478646
O1    O     O_2   0.841230 0.444160 0.280430 -0.366435
O2    O     O_3   0.112860 0.447350 0.393710 -0.384617
O3    O     O_3   0.597940 0.615700 0.327690 -0.391173
O4    O     O_2   0.690583 0.540007 0.179547 -0.417729
O5    O     O_3   0.968989 0.298050 0.281836 -0.568171
O6    O     O_3   0.598825 0.699578 0.154089 -0.541723
H1    H     H_    0.685008 0.802440 0.252459 0.127933
C1    C     C_3   0.547592 0.862186 0.139594 -0.612161
H2    H     H_    0.652980 0.912031 0.156189 0.137964
P2    P     P_3+3 0.635660 0.716530 0.560900 0.466661
P3    P     P_3+3 0.045455 0.785481 0.378220 0.475531
O7    O     O_2   0.802240 0.729740 0.532850 -0.397823
O8    O     O_3   0.017180 0.664790 0.371080 -0.332298
O9    O     O_2   0.917417 0.829151 0.429306 -0.404432
O10   O     O_3   0.674206 0.735200 0.678897 -0.559055
O11   O     O_3   0.000278 0.820107 0.268685 -0.553343
C2    C     C_3   0.999399 0.745951 0.201654 0.383201
H3    H     H_    0.913530 0.689641 0.212312 0.126964
C3    C     C_3   0.943391 0.778775 0.109574 -0.865800
H4    H     H_    0.916570 0.719528 0.057492 0.232956
H5    H     H_    0.836029 0.815982 0.113670 0.267009
C4    C     C_3   0.112524 0.748017 0.666706 0.297435
H6    H     H_    0.133134 0.733409 0.595597 0.058963
H7    H     H_    0.987936 0.729184 0.673258 0.110250
C5    C     C_3   0.144786 0.850302 0.695522 -0.392713
H8    H     H_    0.075137 0.887961 0.645179 0.101905
Ba1   Ba    Ba6+2 0.833400 0.543310 0.453520 1.566423
C6    C     C_3   0.102070 0.246963 0.302385 0.568188
H9    H     H_    0.209626 0.290413 0.329765 0.106518
C7    C     C_3   0.136138 0.184260 0.219763 -0.773782
H10   H     H_    0.079186 0.114370 0.219984 0.208130
H11   H     H_    0.265642 0.178985 0.225261 0.240324
C8    C     C_3   0.708689 0.654248 0.718470 0.473102
H12   H     H_    0.812377 0.623441 0.693391 0.024940
H13   H     H_    0.607039 0.603328 0.703285 0.164890
C9    C     C_3   0.742351 0.677419 0.820183 -0.949144
H14   H     H_    0.860693 0.714845 0.838989 0.245577
H15   H     H_    0.741031 0.614527 0.855557 0.218696
H16   H     H_    0.649063 0.720680 0.843220 0.305193
P4    P     P_3+3 0.171090 0.583290 0.704030 0.461451
O12   O     O_2   0.348480 0.555870 0.719620 -0.364724
O13   O     O_3   0.076830 0.552730 0.606300 -0.404506
O14   O     O_3   0.591760 0.384380 0.672320 -0.325210
O15   O     O_3   0.215408 0.700686 0.723388 -0.545790
P5    P     P_3+3 0.141283 0.217858 0.632039 0.515698
O16   O     O_3   0.629090 0.386350 0.459240 -0.396252
O17   O     O_3   0.172520 0.335290 0.628920 -0.401290
O18   O     O_2   0.262781 0.170922 0.578273 -0.362031
O19   O     O_3   0.199856 0.199103 0.745237 -0.464862
Ba2   Ba    Ba6+2 0.356420 0.456770 0.546480 1.581657
P6    P     P_3+3 0.559705 0.599944 0.208404 0.431641
C10   C     C_3   0.576079 0.783243 0.203479 0.250284
H17   H     H_    0.480520 0.777852 0.244745 0.108470
O20   O     O_3   0.560610 0.613730 0.540770 -0.394624
C11   C     C_3   0.509105 0.328095 0.273155 0.356467
H18   H     H_    0.388042 0.350741 0.269169 0.023838
H19   H     H_    0.592210 0.384808 0.305502 0.172595
C12   C     C_3   0.544156 0.307256 0.178272 -0.793122
H20   H     H_    0.461830 0.250277 0.143231 0.276153
H21   H     H_    0.529314 0.368621 0.140427 0.227181
H22   H     H_    0.668424 0.286424 0.180846 0.260064
P7    P     P_3+3 0.556886 0.270472 0.433450 0.481123
O21   O     O_2   0.387460 0.270290 0.467210 -0.356942
O22   O     O_3   0.519034 0.247392 0.316437 -0.575520
H23   H     H_    0.033265 0.827288 0.088834 0.272949
C13   C     C_3   0.209024 0.284676 0.797805 0.488606
H24   H     H_    0.305345 0.330787 0.780920 0.165428
H25   H     H_    0.095756 0.319223 0.785155 0.078988
C14   C     C_3   0.241132 0.273819 0.898358 -0.765487
H26   H     H_    0.367624 0.269294 0.922157 0.269179
H27   H     H_    0.203226 0.334449 0.937250 0.239379
H28   H     H_    0.177507 0.211154 0.914403 0.325996
P8    P     P_3+3 0.641251 0.391419 0.791113 0.425915
C15   C     C_3   0.644771 0.206192 0.819456 -0.028835
O23   O     O_2   0.526356 0.461511 0.823369 -0.428849
O24   O     O_3   0.578873 0.291958 0.842581 -0.561377
C16   C     C_3   0.604238 0.129626 0.886690 -0.693032
C17   C     C_R   0.842707 0.447377 0.833968 0.192808
C18   C     C_R   0.904355 0.462138 0.926831 0.020954
C19   C     C_R   0.044660 0.466522 0.111089 0.006391
C20   C     C_R   0.887389 0.432322 0.081874 -0.049240
C21   C     C_R   0.815352 0.436322 0.993588 -0.196445
C22   C     C_R   0.117345 0.465426 0.202573 0.230826
H29   H     H_    0.818198 0.399620 0.125903 0.181938
H30   H     H_    0.691855 0.411936 0.977092 0.215252
C23   C     C_R   0.276904 0.498620 0.225001 -0.423324
C24   C     C_R   0.080425 0.528196 0.795528 0.217638
C25   C     C_R   0.149976 0.534746 0.888089 -0.060032
C26   C     C_R   0.062685 0.499299 0.953428 0.018695
C27   C     C_R   0.305201 0.572834 0.917537 -0.077917
C28   C     C_R   0.378449 0.568366 0.005674 -0.058409
C29   C     C_R   0.294934 0.533759 0.071269 0.021223
C30   C     C_R   0.133852 0.500525 0.045602 0.028115
C31   C     C_R   0.365148 0.535499 0.162561 0.225978
C32   C     C_R   0.932889 0.479130 0.770273 -0.516280
H31   H     H_    0.501946 0.592931 0.021327 0.174521
H32   H     H_    0.374865 0.605068 0.872981 0.179626
H33   H     H_    0.331357 0.501209 0.294572 0.167108
H34   H     H_    0.883603 0.468953 0.699747 0.173700
C33   C     C_R   0.703420 0.945359 0.556030 0.213220
C34   C     C_R   0.511554 0.804401 0.508099 0.260911
C35   C     C_R   0.356282 0.772583 0.470002 -0.480847
C36   C     C_R   0.250501 0.830210 0.427754 0.266290
C37   C     C_R   0.305018 0.919007 0.415773 -0.216475
C38   C     C_R   0.462958 0.953307 0.449680 -0.031271
C39   C     C_R   0.563153 0.899526 0.504512 0.027692
H35   H     H_    0.315955 0.702167 0.474535 0.187107
C40   C     C_R   0.653480 0.088138 0.484706 -0.132153
C41   C     C_R   0.755602 0.035331 0.539069 0.075662
C42   C     C_R   0.688335 0.186007 0.488595 0.288550
C43   C     C_R   0.830793 0.224398 0.539006 -0.447701
C44   C     C_R   0.941632 0.169323 0.581000 0.300418
C45   C     C_R   0.904463 0.075854 0.580860 -0.202951
C46   C     C_R   0.519953 0.041403 0.431117 -0.148537
H36   H     H_    0.220486 0.961864 0.382215 0.191019
H37   H     H_    0.992751 0.035138 0.614576 0.140571
H38   H     H_    0.859886 0.297381 0.541807 0.163357
C47   C     C_2   0.316196 0.878712 0.694962 1.247416
O25   O     O_2   0.419875 0.847420 0.745855 -0.535862
O26   O     O_R   0.358476 0.941449 0.637050 -0.808290
H39   H     H_    0.265132 0.967408 0.600361 0.283155
C48   C     C_3   0.096543 0.876635 0.788536 -0.840733
H40   H     H_    0.108480 0.952229 0.802884 0.262717
H41   H     H_    0.970696 0.853717 0.790633 0.253393
H42   H     H_    0.172745 0.845276 0.842170 0.284532
C49   C     C_3   0.067945 0.188920 0.377522 -0.783700
H43   H     H_    0.952879 0.147713 0.358783 0.241278
H44   H     H_    0.164494 0.142236 0.393730 0.247984
H45   H     H_    0.061135 0.236111 0.437949 0.227826
C50   C     C_2   0.094488 0.217477 0.128682 1.153037
O27   O     O_2   0.155095 0.289721 0.112007 -0.661572
O28   O     O_R   0.004735 0.161203 0.058820 -0.734545
H46   H     H_    0.980191 0.097156 0.075553 0.327207
C51   C     C_2   0.404890 0.917163 0.152513 1.091817
O29   O     O_2   0.381176 0.983695 0.109878 -0.592771
O30   O     O_R   0.298482 0.892880 0.210566 -0.805867
H47   H     H_    0.201567 0.930900 0.205999 0.355191
C52   C     C_2   0.531563 0.829898 0.040230 1.202984
O31   O     O_2   0.632066 0.855133 0.994998 -0.621713
O32   O     O_R   0.396130 0.776782 0.998839 -0.764256
H48   H     H_    0.394528 0.765269 0.931346 0.318236
C53   C     C_2   0.823714 0.218868 0.824099 0.964844
O33   O     O_2   0.888589 0.186996 0.762218 -0.650961
O34   O     O_R   0.918859 0.260647 0.900172 -0.769859
H49   H     H_    0.863185 0.273186 0.953790 0.349836
C54   C     C_2   0.576489 0.171634 0.724096 1.076439
O35   O     O_2   0.515990 0.223254 0.672844 -0.531660
O36   O     O_R   0.586795 0.081031 0.692939 -0.781017
H50   H     H_    0.525275 0.068578 0.630628 0.368752
C55   C     C_2   0.705550 0.046167 0.875229 1.109648
O37   O     O_2   0.643408 0.970554 0.846247 -0.546592
O38   O     O_R   0.870250 0.055008 0.902261 -0.764304
H51   H     H_    0.921198 0.994071 0.898740 0.324681
C56   C     C_2   0.428881 0.093154 0.873552 1.105370
O39   O     O_2   0.362142 0.063029 0.799225 -0.578121
O40   O     O_R   0.348919 0.083922 0.948310 -0.759399
H52   H     H_    0.237649 0.053578 0.931581 0.343805
C57   C     C_2   0.640635 0.166026 0.985343 1.135570
O41   O     O_2   0.624393 0.246230 0.008704 -0.691748
O42   O     O_R   0.678058 0.105406 0.050840 -0.758937
H53   H     H_    0.706449 0.138162 0.113323 0.315685
C58   C     C_2   0.162148 0.710045 0.202415 0.958123
O43   O     O_2   0.236021 0.715623 0.138701 -0.616153
O44   O     O_R   0.228261 0.671133 0.278439 -0.819502
H54   H     H_    0.345923 0.680564 0.294546 0.304935
C59   C     C_3   0.758392 0.917058 0.648199 -0.754273
H55   H     H_    0.654195 0.898314 0.680508 0.326464
H56   H     H_    0.833397 0.859720 0.642987 0.244596
H57   H     H_    0.824916 0.972025 0.695743 0.249889
C60   C     C_2   0.490962 0.061923 0.337407 1.093330
O45   O     O_2   0.355632 0.061080 0.299231 -0.694098
O46   O     O_R   0.620298 0.077474 0.290918 -0.806366
H58   H     H_    0.585048 0.090433 0.226625 0.347958

loop_
_geom_bond_atom_site_label_1
_geom_bond_atom_site_label_2
_geom_bond_distance
_ccdc_geom_bond_type
C33   C39   1.432019 A    
C60   O45   1.211188 D    
P7    O22   1.747423 S    
Ba1   O16   2.826851 S    
O44   H54   0.994433 S    
C4    O15   1.390106 S    
C56   O40   1.402534 S    
C8    C9    1.524315 S    
C1    C52   1.515254 S    
P4    O12   1.568551 D    
C37   H36   1.079716 S    
C54   O35   1.210003 D    
C22   C23   1.401933 A    
C24   C32   1.401289 A    
O34   H49   0.996784 S    
O36   H50   1.007124 S    
C51   O29   1.223652 D    
C59   H56   1.082906 S    
C10   H17   1.089250 S    
P1    C22   1.902078 S    
C60   O46   1.397960 S    
P5    O18   1.545499 D    
C5    H8    1.100892 S    
O40   H52   1.013449 S    
P8    O23   1.543290 D    
O3    P6    1.773754 S    
C3    H23   1.110728 S    
O2    Ba1   3.015233 S    
C54   O36   1.381444 S    
O6    P6    1.773657 S    
P3    C36   1.861043 S    
C9    H16   1.110833 S    
C40   C42   1.445848 A    
O16   P7    1.770279 S    
C8    H12   1.104013 S    
Ba1   Ba2   4.610351 S    
C16   C56   1.536440 S    
C48   H41   1.108353 S    
C38   C39   1.419451 A    
C11   O22   1.400359 S    
P2    O7    1.535927 D    
C11   H18   1.090073 S    
P6    C31   1.875783 S    
C51   O30   1.392532 S    
P1    O1    1.568126 D    
C2    C58   1.500167 S    
C4    C5    1.526092 S    
C33   C59   1.502834 S    
C43   C44   1.392271 A    
C7    C50   1.497812 S    
C35   C36   1.391856 A    
O10   C8    1.399855 S    
O17   Ba2   2.788621 S    
C42   C43   1.401560 A    
P8    O24   1.799408 S    
C23   C31   1.404754 A    
P3    O11   1.765351 S    
C28   H31   1.078776 S    
P1    Ba1   3.473245 S    
C4    H6    1.111962 S    
C7    H11   1.097183 S    
O7    Ba1   2.926565 S    
C14   H26   1.091269 S    
C25   C27   1.403139 A    
C6    H9    1.097250 S    
O19   C13   1.417629 S    
C41   C45   1.410675 A    
C8    H13   1.098685 S    
O12   Ba2   2.882875 S    
C55   O38   1.397469 S    
O30   H47   1.013724 S    
C12   H20   1.109587 S    
C29   C31   1.419595 A    
C18   C26   1.416131 A    
P4    O13   1.592984 S    
C18   C21   1.401625 A    
C36   C37   1.395126 A    
O3    Ba1   2.870267 S    
Ba1   O20   2.993637 S    
C16   C55   1.540562 S    
C26   C30   1.434675 A    
C59   H57   1.107749 S    
C23   H33   1.082724 S    
C47   O26   1.387597 S    
P5    O17   1.735387 S    
C12   H21   1.109460 S    
C13   H24   1.104731 S    
C45   H37   1.081065 S    
C48   H40   1.108131 S    
C5    C47   1.493582 S    
C46   C60   1.458661 S    
C27   C28   1.395337 A    
O2    Ba2   2.865233 S    
C2    H3    1.110534 S    
C48   H42   1.110716 S    
O16   Ba2   2.992697 S    
Ba2   O20   2.826237 S    
C15   C54   1.507907 S    
C33   C41   1.426073 A    
O46   H58   1.010627 S    
C19   C20   1.400572 A    
P1    O5    1.759325 S    
P1    O2    1.593110 S    
C49   H44   1.108573 S    
C9    H14   1.109468 S    
P2    O10   1.756941 S    
C57   O41   1.218218 D    
P3    O9    1.545540 D    
C55   O37   1.222663 D    
C21   H30   1.078899 S    
C14   H28   1.104038 S    
C57   O42   1.399325 S    
O11   C2    1.417239 S    
C34   C39   1.449266 A    
O4    P6    1.534013 D    
C29   C30   1.418608 A    
C3    H4    1.111851 S    
C47   O25   1.220440 D    
O14   P8    1.773545 S    
C15   O24   1.435912 S    
O26   H39   1.012276 S    
C35   H35   1.082602 S    
C15   C53   1.511100 S    
C1    C51   1.511551 S    
O14   Ba2   2.869719 S    
P3    O8    1.766692 S    
P8    C17   1.865930 S    
C6    C49   1.522448 S    
O28   H46   1.012423 S    
C17   C18   1.418979 A    
C1    C10   1.575151 S    
C5    C48   1.533945 S    
O6    C10   1.414231 S    
C50   O27   1.215350 D    
C59   H55   1.098981 S    
C19   C22   1.432598 A    
P2    O20   1.595303 S    
C44   C45   1.391293 A    
C1    H2    1.113344 S    
C13   H25   1.109462 S    
C53   O34   1.385174 S    
P4    C24   1.886059 S    
C12   H22   1.108177 S    
P5    C44   1.843820 S    
C58   O44   1.385983 S    
C7    H10   1.111940 S    
Ba2   O21   2.926726 S    
C3    H5    1.090280 S    
C50   O28   1.392398 S    
H1    C10   1.109535 S    
C14   H27   1.107118 S    
C52   O31   1.222976 D    
C20   H29   1.070278 S    
C37   C38   1.418613 A    
P5    O19   1.758334 S    
Ba1   O13   2.864665 S    
C11   C12   1.506387 S    
C38   C46   1.420784 A    
C13   C14   1.524797 S    
C53   O33   1.215250 D    
O38   H51   1.012105 S    
C49   H45   1.104070 S    
C17   C32   1.400170 A    
C6    C7    1.549547 S    
O42   H53   1.011337 S    
O32   H48   1.013460 S    
C43   H38   1.082585 S    
C19   C30   1.428658 A    
C52   O32   1.396178 S    
O13   Ba2   3.016224 S    
P2    Ba1   3.509863 S    
C32   H34   1.082002 S    
C28   C29   1.404854 A    
C11   H19   1.097948 S    
P2    C34   1.866952 S    
C2    C3    1.529272 S    
C4    H7    1.098304 S    
C27   H32   1.075326 S    
P7    C42   1.879003 S    
C34   C35   1.403615 A    
C15   C16   1.629598 S    
C58   O43   1.220319 D    
C40   C46   1.408740 A    
P7    O21   1.587118 D    
C16   C57   1.519356 S    
O5    C6    1.399987 S    
C24   C25   1.431060 A    
C9    H15   1.104546 S    
C20   C21   1.393095 A    
C56   O39   1.219203 D    
P4    O15   1.735290 S    
O1    Ba1   2.882384 S    
O8    Ba1   2.788023 S    
C25   C26   1.425505 A    
C40   C41   1.415638 A    
P4    Ba2   3.473872 S    
C49   H43   1.111431 S    
