data_mof_unit_45904.cif
_audit_creation_date              2012-12-10T16:58:32-0500
_audit_creation_method            fapswitch 2.2
_symmetry_space_group_name_H-M    P1
_symmetry_Int_Tables_number       1
_space_group_crystal_system       triclinic
_cell_length_a                    8.12932
_cell_length_b                    8.580364
_cell_length_c                    23.428904
_cell_angle_alpha                 101.795607
_cell_angle_beta                  81.724393
_cell_angle_gamma                 92.131753
_cell_volume                      1583.00681055

loop_
_atom_site_label
_atom_site_type_symbol
_atom_type_description
_atom_site_fract_x
_atom_site_fract_y
_atom_site_fract_z
_atom_type_partial_charge
C1    C     C_R   0.542874 0.793275 0.499033 0.934758
C2    C     C_R   0.368624 0.518407 0.303018 -0.217115
C3    C     C_R   0.623675 0.478159 0.756216 -0.117643
C4    C     C_R   0.376327 0.521844 0.243784 -0.117644
C5    C     C_R   0.470560 0.492119 0.792506 0.322852
C6    C     C_R   0.529442 0.507891 0.207495 0.322853
C7    C     C_2   0.565889 0.956082 0.498682 -0.384443
C8    C     C_2   0.434111 0.043917 0.501318 -0.384443
C9    C     C_R   0.495294 0.500913 0.610514 0.823847
C10   C     C_R   0.504706 0.499087 0.389486 0.823848
C11   C     C_R   0.561901 0.368459 0.106404 0.503606
C12   C     C_R   0.457126 0.206725 0.500966 0.934759
C13   C     C_R   0.438102 0.631551 0.893596 0.503606
C14   C     C_R   0.497693 0.646075 0.130129 0.503668
C15   C     C_R   0.502309 0.353934 0.869872 0.503668
C16   C     C_R   0.483331 0.645709 0.071328 -0.017196
C17   C     C_R   0.516671 0.354301 0.928673 -0.017196
C18   C     C_R   0.508385 0.502037 0.029618 -0.019829
C19   C     C_R   0.491618 0.497973 0.970383 -0.019828
C20   C     C_R   0.549698 0.362317 0.047034 -0.012087
C21   C     C_R   0.450305 0.637693 0.952966 -0.012087
C22   C     C_R   0.442120 0.784299 0.053532 -0.143968
C23   C     C_R   0.324402 0.509846 0.769463 -0.095025
C24   C     C_R   0.557882 0.215711 0.946468 -0.143968
C25   C     C_R   0.425387 0.780202 0.994893 -0.180777
C26   C     C_R   0.574616 0.219808 0.005108 -0.180777
C27   C     C_R   0.993450 0.307478 0.439793 0.241827
C28   C     C_R   0.867121 0.218994 0.410563 -0.137263
C29   C     C_R   0.885109 0.063734 0.377324 -0.207615
C30   C     C_R   0.037416 0.990347 0.366743 -0.051370
C31   C     C_R   0.171656 0.077946 0.385861 -0.196976
C32   C     C_R   0.149852 0.233568 0.418827 -0.147520
C33   C     C_R   0.006550 0.692522 0.560207 0.241828
C34   C     C_R   0.675600 0.490165 0.230538 -0.095026
C35   C     C_R   0.132879 0.781006 0.589437 -0.137264
C36   C     C_R   0.114891 0.936266 0.622676 -0.207615
C37   C     C_R   0.962583 0.009652 0.633257 -0.051369
C38   C     C_R   0.828344 0.922053 0.614139 -0.196976
C39   C     C_R   0.850148 0.766431 0.581173 -0.147519
C40   C     C_R   0.331609 0.513147 0.709949 -0.224936
C41   C     C_R   0.668392 0.486861 0.290051 -0.224935
C42   C     C_R   0.485434 0.499048 0.673282 -0.021583
C43   C     C_R   0.514566 0.500955 0.326718 -0.021582
C44   C     C_R   0.631377 0.481593 0.696981 -0.217115
H1    H     H_    0.422075 0.896063 0.084827 0.212455
H2    H     H_    0.248185 0.529423 0.330078 0.165071
H3    H     H_    0.736898 0.465503 0.774163 0.135452
H4    H     H_    0.263103 0.534498 0.225837 0.135451
H5    H     H_    0.692225 0.003349 0.496298 0.205950
H6    H     H_    0.307775 0.996651 0.503702 0.205950
H7    H     H_    0.750112 0.262871 0.410129 0.206290
H8    H     H_    0.780319 0.001894 0.358806 0.152052
H9    H     H_    0.053316 0.870676 0.340819 0.140403
H10   H     H_    0.295068 0.027514 0.373406 0.146839
H11   H     H_    0.263179 0.286273 0.421339 0.204723
H12   H     H_    0.577927 0.103947 0.915174 0.212456
H13   H     H_    0.249888 0.737128 0.589871 0.206290
H14   H     H_    0.219681 0.998105 0.641194 0.152052
H15   H     H_    0.946683 0.129323 0.659182 0.140403
H16   H     H_    0.704932 0.972485 0.626594 0.146839
H17   H     H_    0.736821 0.713726 0.578661 0.204723
H18   H     H_    0.393167 0.888885 0.982520 0.187884
H19   H     H_    0.606836 0.111125 0.017480 0.187884
H20   H     H_    0.205807 0.521026 0.797655 0.141970
H21   H     H_    0.794196 0.478990 0.202346 0.141969
H22   H     H_    0.217331 0.526728 0.692788 0.162658
H23   H     H_    0.782671 0.473283 0.307213 0.162658
H24   H     H_    0.751815 0.470572 0.669922 0.165071
N1    N     N_R   0.534288 0.508432 0.146433 -0.359530
N2    N     N_R   0.465714 0.491578 0.853568 -0.359530
N3    N     N_2   0.950330 0.457950 0.484560 -0.110410
N4    N     N_2   0.049670 0.542050 0.515440 -0.110410
O1    O     O_R   0.389250 0.738570 0.503790 -0.631236
O2    O     O_2   0.402444 0.764756 0.875688 -0.549749
O3    O     O_2   0.474021 0.782261 0.170894 -0.543836
O4    O     O_2   0.525979 0.217749 0.829107 -0.543836
O5    O     O_R   0.610750 0.261430 0.496210 -0.631236
O6    O     O_R   0.678390 0.711620 0.493890 -0.634016
O7    O     O_R   0.321610 0.288380 0.506110 -0.634016
O8    O     O_R   0.355400 0.513520 0.588790 -0.650658
O9    O     O_R   0.644600 0.486480 0.411210 -0.650658
O10   O     O_R   0.644550 0.486570 0.578900 -0.644719
O11   O     O_R   0.355450 0.513430 0.421100 -0.644719
O12   O     O_2   0.597560 0.235254 0.124313 -0.549749
Zn1   Zn    Zn3+2 0.306930 0.518000 0.506610 0.907192
Zn2   Zn    Zn3+2 0.693070 0.482000 0.493390 0.907192

loop_
_geom_bond_atom_site_label_1
_geom_bond_atom_site_label_2
_ccdc_geom_bond_type
C6    N1    S    
C35   C36   A    
N4    Zn1   S    
C7    C8    D    
C41   H23   S    
C2    H2    S    
C9    C42   S    
C29   C30   A    
C36   C37   A    
C19   C21   A    
C37   C38   A    
C24   C26   A    
C36   H14   S    
C30   C31   A    
C28   H7    S    
C13   N2    A    
C23   C40   A    
C12   O7    A    
C10   O11   A    
C18   C19   A    
C33   N4    S    
C33   C35   A    
C22   C25   A    
C32   H11   S    
O9    Zn2   S    
C9    O10   A    
O6    Zn2   S    
C40   C42   A    
C15   O4    S    
C10   C43   S    
C40   H22   S    
C1    O6    A    
C41   C43   A    
C34   C41   A    
C42   C44   A    
C34   H21   S    
C39   H17   S    
C30   H9    S    
C3    C44   A    
C17   C24   A    
C7    H5    S    
C4    C6    A    
O10   Zn2   S    
C11   C20   A    
C6    C34   A    
C9    O8    A    
C2    C4    A    
C26   H19   S    
O8    Zn1   S    
N3    Zn2   S    
C31   C32   A    
C5    C23   A    
C2    C43   A    
C8    C12   S    
C12   O5    A    
C13   C21   A    
C33   C39   A    
O1    Zn1   S    
C37   H15   S    
C38   H16   S    
C23   H20   S    
O11   Zn1   S    
O5    Zn2   S    
C14   N1    A    
C14   C16   A    
C44   H24   S    
C8    H6    S    
O7    Zn1   S    
C27   N3    S    
C4    H4    S    
C15   C17   A    
C15   N2    A    
C21   C25   A    
C28   C29   A    
C16   C22   A    
C27   C32   A    
C1    C7    S    
C3    C5    A    
C5    N2    S    
C11   N1    A    
C11   O12   S    
C24   H12   S    
C10   O9    A    
C35   H13   S    
C1    O1    A    
C14   O3    S    
N3    N4    D    
C38   C39   A    
C20   C26   A    
C3    H3    S    
C17   C19   A    
C18   C20   A    
C25   H18   S    
C31   H10   S    
C22   H1    S    
C13   O2    S    
C16   C18   A    
C27   C28   A    
C29   H8    S    
