data_mof_unit_39533.cif
_audit_creation_date              2013-03-05T16:31:29-0500
_audit_creation_method            fapswitch 2.2
_symmetry_space_group_name_H-M    P1
_symmetry_Int_Tables_number       1
_space_group_crystal_system       triclinic
_cell_length_a                    15.085027
_cell_length_b                    10.81235
_cell_length_c                    9.559885
_cell_angle_alpha                 90.241354
_cell_angle_beta                  90.180764
_cell_angle_gamma                 90.699516
_cell_volume                      1559.12308322

loop_
_atom_site_label
_atom_site_type_symbol
_atom_site_description
_atom_site_fract_x
_atom_site_fract_y
_atom_site_fract_z
_atom_type_partial_charge
O1    O     O_R   0.500000 0.319640 0.618810 -0.591989
O2    O     O_R   0.500010 0.319680 0.381230 -0.542154
C1    C     C_R   0.502285 0.262367 0.499951 0.821078
O3    O     O_R   0.370250 0.499950 0.618800 -0.594244
O4    O     O_R   0.370260 0.499990 0.381220 -0.541564
C2    C     C_R   0.328641 0.500107 0.499899 0.836756
Cu1   Cu    Cu3+1 0.500000 0.499980 0.640670 0.944989
Cu2   Cu    Cu3+1 0.500000 0.500020 0.359330 0.995038
O5    O     O_R   0.499990 0.680320 0.618770 -0.579704
O6    O     O_R   0.500000 0.680360 0.381190 -0.586236
O7    O     O_R   0.629740 0.500010 0.618780 -0.586844
O8    O     O_R   0.629750 0.500050 0.381200 -0.594735
C3    C     C_R   0.502191 0.737648 0.500217 0.794677
C4    C     C_R   0.671404 0.499380 0.500183 0.801330
C5    C     C_R   0.814696 0.502749 0.373518 -0.241774
C6    C     C_R   0.768387 0.498042 0.500489 -0.070410
C7    C     C_R   0.815030 0.491953 0.627494 -0.242450
C8    C     C_R   0.907435 0.492071 0.628388 0.108913
C9    C     C_R   0.953636 0.498193 0.500421 0.064341
C10   C     C_R   0.906994 0.503463 0.372522 0.109144
C11   C     C_R   0.954380 0.486382 0.754974 -0.208080
C12   C     C_R   0.046827 0.486830 0.754865 -0.200038
C13   C     C_R   0.093248 0.493139 0.628183 0.108483
C14   C     C_R   0.046563 0.498936 0.500307 0.061447
C15   C     C_R   0.092702 0.505566 0.372296 0.095816
C16   C     C_R   0.045762 0.510892 0.245705 -0.193447
C17   C     C_R   0.953354 0.509636 0.245802 -0.207756
C18   C     C_R   0.185612 0.493604 0.627098 -0.245644
C19   C     C_R   0.231737 0.500186 0.499955 -0.078648
C20   C     C_R   0.185052 0.506687 0.373081 -0.194904
H1    H     H_    0.779188 0.505956 0.275158 0.145489
H2    H     H_    0.779667 0.486733 0.725753 0.147296
H3    H     H_    0.919625 0.481655 0.853908 0.137820
H4    H     H_    0.081995 0.482348 0.853725 0.143764
H5    H     H_    0.220386 0.512823 0.274754 0.182998
C21   C     C_R   0.506640 0.064004 0.626154 0.103163
C22   C     C_R   0.512474 0.129428 0.500859 -0.099143
C23   C     C_R   0.532867 0.064537 0.377653 -0.156677
C24   C     C_R   0.531995 0.935445 0.377398 -0.206317
H6    H     H_    0.542815 0.886997 0.279737 0.162196
C25   C     C_R   0.512209 0.870830 0.501054 -0.094621
C26   C     C_R   0.506700 0.936825 0.626283 0.106808
C27   C     C_3   0.439531 0.929329 0.740444 -0.438993
C28   C     C_3   0.439549 0.069823 0.740471 -0.428596
H7    H     H_    0.375630 0.887220 0.705023 0.200846
H8    H     H_    0.467481 0.889622 0.837951 0.201306
H9    H     H_    0.375625 0.109677 0.705445 0.201728
H10   H     H_    0.467782 0.110749 0.837891 0.227977
C29   C     C_R   0.533462 0.598971 0.074191 0.195890
N1    N     N_R   0.500570 0.500930 0.147930 -0.249481
C30   C     C_R   0.457275 0.408947 0.071932 0.396904
C31   C     C_R   0.458109 0.409479 0.923545 -0.143253
H11   H     H_    0.424807 0.336072 0.866050 0.169816
N2    N     N_R   0.500570 0.500890 0.852020 -0.211749
C32   C     C_R   0.533253 0.599030 0.927077 0.245246
C33   C     C_3   0.625170 0.650507 0.921153 -0.483674
C34   C     C_3   0.625717 0.649731 0.080003 -0.488628
H12   H     H_    0.672998 0.584859 0.874920 0.207692
H13   H     H_    0.627122 0.745179 0.876271 0.195161
H14   H     H_    0.628853 0.743925 0.126733 0.191680
N3    N     N_R   0.411140 0.309697 0.139244 0.137894
O9    O     O_R   0.333483 0.329790 0.192481 -0.367920
O10   O     O_R   0.431559 0.196628 0.106954 -0.424428
H15   H     H_    0.673461 0.583053 0.124004 0.205919
H16   H     H_    0.221427 0.488625 0.725410 0.163008
H17   H     H_    0.080492 0.515885 0.146766 0.143461
H18   H     H_    0.918160 0.513771 0.146931 0.136967
H19   H     H_    0.545739 0.112736 0.280813 0.201058

loop_
_geom_bond_atom_site_label_1
_geom_bond_atom_site_label_2
_geom_bond_distance
_ccdc_geom_bond_type
C5    C6    1.403202 A    
O4    Cu2   1.968941 S    
C32   C33   1.489130 S    
C28   H9    1.112219 S    
C14   C15   1.411404 A    
C5    H1    1.081589 S    
C19   C20   1.403058 A    
C10   C17   1.402135 A    
C8    C11   1.402149 A    
C25   C26   1.394338 A    
N2    C32   1.364731 A    
C21   C26   1.375122 A    
C9    C10   1.410474 A    
C30   N3    1.428437 S    
C33   H13   1.111672 S    
Cu2   O8    1.967757 S    
C13   C14   1.410899 A    
C11   H3    1.083931 S    
C3    C25   1.446067 S    
C9    C14   1.401731 A    
O8    C4    1.297834 A    
C29   C34   1.490531 S    
Cu1   Cu2   2.689580 S    
C24   C25   1.406676 A    
O1    Cu1   1.960190 S    
C11   C12   1.394506 A    
C31   H11   1.081338 S    
Cu1   O7    1.968939 S    
C27   H7    1.112234 S    
C18   C19   1.404084 A    
C16   C17   1.393879 A    
N3    O9    1.299057 A    
C20   H5    1.083934 S    
O3    Cu1   1.967759 S    
O4    C2    1.298415 A    
Cu2   O6    1.960190 S    
C21   C22   1.396122 A    
C27   H8    1.111901 S    
C22   C23   1.405271 A    
C31   N2    1.359294 A    
C7    C8    1.393918 A    
O2    C1    1.295966 A    
C27   C28   1.519062 S    
C5    C10   1.392308 A    
C12   H4    1.083897 S    
O7    C4    1.298084 A    
C4    C6    1.463238 S    
C21   C28   1.493486 S    
C17   H18   1.083973 S    
C13   C18   1.393334 A    
C23   H19   1.081248 S    
C30   C31   1.418693 A    
C16   H17   1.083920 S    
Cu2   N1    2.021070 S    
C15   C20   1.393009 A    
C2    C19   1.461812 S    
C23   C24   1.395680 A    
C33   C34   1.518648 S    
C1    C22   1.447509 S    
C34   H15   1.108484 S    
O3    C2    1.296744 A    
C29   N1    1.364731 A    
C26   C27   1.493328 S    
C24   H6    1.082429 S    
Cu1   O5    1.961984 S    
C7    H2    1.083046 S    
O5    C3    1.294394 A    
C12   C13   1.402353 A    
C8    C9    1.411257 A    
C34   H14   1.110812 S    
Cu1   N2    2.020455 S    
N1    C30   1.385131 A    
C15   C16   1.401946 A    
C29   C32   1.406391 A    
C18   H16   1.084459 S    
N3    O10   1.300534 A    
O2    Cu2   1.961984 S    
C28   H10   1.110843 S    
C33   H12   1.109773 S    
C6    C7    1.403568 A    
O1    C1    1.292527 A    
O6    C3    1.293398 A    
