data_mof_unit_35592.cif
_audit_creation_date              2012-12-10T17:15:12-0500
_audit_creation_method            fapswitch 2.2
_symmetry_space_group_name_H-M    P1
_symmetry_Int_Tables_number       1
_space_group_crystal_system       triclinic
_cell_length_a                    15.857079
_cell_length_b                    12.993974
_cell_length_c                    11.747767
_cell_angle_alpha                 101.017041
_cell_angle_beta                  95.085901
_cell_angle_gamma                 91.045973
_cell_volume                      2365.08715065

loop_
_atom_site_label
_atom_site_type_symbol
_atom_type_description
_atom_site_fract_x
_atom_site_fract_y
_atom_site_fract_z
_atom_type_partial_charge
C1    C     C_R   0.500991 0.298860 0.477343 0.806033
C2    C     C_R   0.499034 0.701147 0.522657 0.806119
C3    C     C_R   0.542876 0.013366 0.361427 -0.189742
C4    C     C_R   0.457232 0.986675 0.638584 -0.189628
C5    C     C_R   0.537824 0.121394 0.365552 0.156931
C6    C     C_R   0.462306 0.878658 0.634486 0.158415
C7    C     C_R   0.477945 0.138664 0.552615 -0.295857
C8    C     C_R   0.522104 0.861349 0.447363 -0.296454
C9    C     C_R   0.483708 0.031483 0.548044 0.123139
C10   C     C_R   0.516367 0.968540 0.451944 0.123230
C11   C     C_R   0.404204 0.425942 0.018648 0.351602
C12   C     C_R   0.596208 0.573387 0.981489 0.370227
C13   C     C_R   0.416802 0.424835 0.139786 0.261585
C14   C     C_R   0.583523 0.574586 0.860139 0.256267
C15   C     C_R   0.541722 0.531920 0.158231 -0.013655
C16   C     C_R   0.458006 0.468621 0.841907 -0.010787
C17   C     C_R   0.534874 0.526493 0.035259 -0.121958
C18   C     C_R   0.465302 0.473445 0.964821 -0.144867
C19   C     C_R   0.339701 0.499643 0.499078 0.828639
C20   C     C_R   0.660298 0.500136 0.500871 0.828366
C21   C     C_3   0.967318 0.401626 0.457145 -0.159150
C22   C     C_3   0.032609 0.596172 0.542278 -0.158640
C23   C     C_3   0.019361 0.467751 0.389642 -0.163168
C24   C     C_3   0.980594 0.530049 0.609792 -0.161833
C25   C     C_1   0.249798 0.499102 0.497349 -0.196493
C26   C     C_1   0.750182 0.499901 0.502395 -0.193948
C27   C     C_3   0.032009 0.432576 0.565780 -0.162061
C28   C     C_3   0.967947 0.565215 0.433665 -0.159328
C29   C     C_3   0.082496 0.498708 0.498267 0.197088
C30   C     C_3   0.917450 0.499106 0.501163 0.196614
C31   C     C_1   0.174168 0.498785 0.497216 -0.086623
C32   C     C_1   0.825790 0.499542 0.502331 -0.081640
C33   C     C_R   0.495222 0.815372 0.537150 -0.065926
C34   C     C_R   0.504844 0.184649 0.462851 -0.065894
Cu1   Cu    Cu3+1 0.506200 0.507730 0.615930 0.928574
Cu2   Cu    Cu3+1 0.493800 0.492270 0.384070 0.926173
H1    H     H_    0.036513 0.442216 0.299206 0.130212
H2    H     H_    0.963370 0.555571 0.700188 0.124346
H3    H     H_    0.939101 0.321811 0.422145 0.129278
H4    H     H_    0.060768 0.676035 0.577167 0.128336
H5    H     H_    0.940197 0.619542 0.379361 0.134607
H6    H     H_    0.059700 0.378186 0.620061 0.127028
H7    H     H_    0.547635 0.813328 0.373125 0.162247
H8    H     H_    0.452385 0.186674 0.626838 0.162516
H9    H     H_    0.568098 0.964026 0.287873 0.141011
H10   H     H_    0.432032 0.036027 0.712150 0.140806
H11   H     H_    0.406079 0.424237 0.787274 0.177436
H12   H     H_    0.592878 0.577484 0.213162 0.177808
N1    N     N_R   0.515540 0.519350 0.790140 -0.200306
N2    N     N_R   0.484460 0.480650 0.209860 -0.203409
O1    O     O_R   0.504400 0.354460 0.582000 -0.578719
O2    O     O_R   0.495600 0.645540 0.418000 -0.579362
O3    O     O_R   0.493920 0.341410 0.386200 -0.589793
O4    O     O_R   0.506080 0.658590 0.613800 -0.589489
O5    O     O_R   0.384320 0.506520 0.597880 -0.585256
O6    O     O_R   0.615680 0.493480 0.402120 -0.587105
O7    O     O_R   0.373840 0.493460 0.402080 -0.575781
O8    O     O_R   0.626160 0.506540 0.597920 -0.574686
C35   C     C_3   0.429746 0.833699 0.732269 -0.830867
H13   H     H_    0.400117 0.894132 0.794992 0.215069
H14   H     H_    0.380854 0.770771 0.696634 0.234283
H15   H     H_    0.482833 0.801943 0.781588 0.248500
C36   C     C_3   0.570484 0.166405 0.267858 -0.827505
H16   H     H_    0.517439 0.198151 0.218454 0.247634
H17   H     H_    0.619343 0.229357 0.303588 0.235113
H18   H     H_    0.600186 0.106001 0.205189 0.216078
C37   C     C_3   0.648589 0.637698 0.813285 -0.763280
H19   H     H_    0.670866 0.708412 0.878964 0.216214
H20   H     H_    0.704287 0.589597 0.792236 0.207645
H21   H     H_    0.624241 0.669340 0.737638 0.256728
C38   C     C_3   0.351216 0.362562 0.186750 -0.743770
H22   H     H_    0.296020 0.411480 0.208114 0.210950
H23   H     H_    0.328095 0.292184 0.121122 0.219524
H24   H     H_    0.375472 0.330473 0.262182 0.251005
O9    O     O_3   0.333460 0.375601 0.952026 -0.603693
C39   C     C_3   0.269933 0.449794 0.945150 0.067038
H25   H     H_    0.293223 0.516792 0.908313 0.101075
H26   H     H_    0.249154 0.481377 0.032790 0.134555
C40   C     C_3   0.193542 0.398111 0.864595 -0.335759
H27   H     H_    0.146718 0.458774 0.852933 0.163622
H28   H     H_    0.214147 0.364152 0.777678 0.215177
C41   C     C_3   0.150821 0.312137 0.913894 -0.782083
H29   H     H_    0.129170 0.345053 0.000382 0.231209
H30   H     H_    0.195381 0.248601 0.922933 0.274860
H31   H     H_    0.094936 0.278082 0.853951 0.219962
O10   O     O_3   0.666820 0.623588 0.049031 -0.630290
C42   C     C_3   0.737861 0.558868 0.036699 0.038159
H32   H     H_    0.792648 0.608854 0.024453 0.168466
H33   H     H_    0.730537 0.493062 0.959441 0.126490
C43   C     C_3   0.758465 0.514304 0.147255 -0.335966
H34   H     H_    0.762410 0.578884 0.224936 0.227283
H35   H     H_    0.707326 0.457310 0.155269 0.217405
C44   C     C_3   0.842194 0.458249 0.144575 -0.933957
H36   H     H_    0.840029 0.393594 0.067256 0.255898
H37   H     H_    0.853711 0.424415 0.224248 0.264227
H38   H     H_    0.895380 0.514293 0.141848 0.249926

loop_
_geom_bond_atom_site_label_1
_geom_bond_atom_site_label_2
_ccdc_geom_bond_type
C25   C31   T    
C42   H32   S    
C36   H17   S    
C11   C18   A    
C26   C32   T    
C44   H36   S    
C22   C29   S    
C27   C29   S    
Cu1   Cu2   S    
C8    H7    S    
C20   O6    A    
C4    H10   S    
C19   O7    A    
Cu1   O8    S    
C23   C29   S    
C39   H26   S    
C14   N1    A    
C28   H5    S    
C5    C36   S    
C7    C9    A    
C15   N2    A    
C1    O3    A    
Cu2   O3    S    
C12   C17   A    
Cu1   N1    S    
C24   H2    S    
C14   C37   S    
C24   C27   S    
C9    C10   A    
Cu2   O2    S    
C21   C27   S    
C36   H18   S    
C35   H13   S    
C44   H37   S    
C22   C28   S    
Cu1   O4    S    
C15   H12   S    
C16   H11   S    
C1    C34   S    
C35   H14   S    
Cu1   O5    S    
C37   H19   S    
C39   H25   S    
C4    C6    A    
Cu2   O7    S    
C2    O4    A    
C40   H28   S    
O10   C42   S    
C13   C38   S    
C7    H8    S    
C3    H9    S    
C36   H16   S    
C37   H20   S    
O9    C39   S    
Cu2   O6    S    
C38   H24   S    
C43   H35   S    
C21   H3    S    
C22   H4    S    
C5    C34   A    
C17   C18   A    
C23   C28   S    
C16   N1    A    
C1    O1    A    
C2    O2    A    
C2    C33   S    
C16   C18   A    
C12   C14   A    
C44   H38   S    
C41   H30   S    
C21   C23   S    
Cu1   O1    S    
C7    C34   A    
C22   C24   S    
C20   O8    A    
Cu2   N2    S    
C43   C44   S    
C38   H23   S    
C19   O5    A    
C15   C17   A    
C35   H15   S    
C6    C35   S    
C3    C5    A    
C40   C41   S    
C41   H31   S    
C21   C30   S    
C6    C33   A    
C12   O10   S    
C37   H21   S    
C28   C30   S    
C38   H22   S    
C29   C31   S    
C3    C10   A    
C23   H1    S    
C30   C32   S    
C11   C13   A    
C27   H6    S    
C43   H34   S    
C20   C26   S    
C13   N2    A    
C8    C33   A    
C19   C25   S    
C24   C30   S    
C40   H27   S    
C39   C40   S    
C8    C10   A    
C41   H29   S    
C42   C43   S    
C42   H33   S    
C11   O9    S    
C4    C9    A    
