data_mof_unit_63747.cif
_audit_creation_date              2012-12-10T18:47:44-0500
_audit_creation_method            fapswitch 2.2
_symmetry_space_group_name_H-M    P1
_symmetry_Int_Tables_number       1
_space_group_crystal_system       triclinic
_cell_length_a                    38.742736
_cell_length_b                    38.742747
_cell_length_c                    47.072785
_cell_angle_alpha                 90.008863
_cell_angle_beta                  90.008919
_cell_angle_gamma                 90.00293
_cell_volume                      70656.2493825

loop_
_atom_site_label
_atom_site_type_symbol
_atom_type_description
_atom_site_fract_x
_atom_site_fract_y
_atom_site_fract_z
_atom_type_partial_charge
C1    C     C_R   0.567397 0.000001 0.999999 0.907258
C2    C     C_R   0.999999 0.432603 0.000001 0.907259
C3    C     C_R   0.432603 0.999999 0.000001 0.907536
C4    C     C_R   0.000001 0.567397 0.999999 0.907536
C5    C     C_R   0.067397 0.500001 0.499997 0.907445
C6    C     C_R   0.499999 0.932603 0.500002 0.907446
C7    C     C_R   0.932603 0.499999 0.500002 0.907504
C8    C     C_R   0.500001 0.067397 0.499998 0.907503
C9    C     C_R   0.501412 0.000118 0.854151 0.309563
C10   C     C_R   0.999853 0.500050 0.854116 0.315415
C11   C     C_R   0.499950 0.000146 0.145884 0.315414
C12   C     C_R   0.999882 0.498588 0.145849 0.309562
C13   C     C_R   0.001412 0.500118 0.354151 0.309561
C14   C     C_R   0.499728 0.001447 0.354161 0.309834
C15   C     C_R   0.998553 0.500272 0.645839 0.309834
C16   C     C_R   0.499882 0.998588 0.645849 0.309562
C17   C     C_R   0.623326 0.031144 0.997552 -0.202934
C18   C     C_R   0.031135 0.376671 0.997575 -0.203142
C19   C     C_R   0.376671 0.968857 0.997575 -0.202887
C20   C     C_R   0.968862 0.623325 0.997556 -0.202797
C21   C     C_R   0.623329 0.968864 0.002425 -0.203142
C22   C     C_R   0.031143 0.623329 0.002424 -0.202887
C23   C     C_R   0.376674 0.031138 0.002444 -0.202797
C24   C     C_R   0.968856 0.376674 0.002448 -0.202934
C25   C     C_R   0.123325 0.531144 0.497547 -0.202619
C26   C     C_R   0.531136 0.876671 0.497583 -0.202945
C27   C     C_R   0.876670 0.468857 0.497577 -0.202883
C28   C     C_R   0.468862 0.123325 0.497548 -0.202643
C29   C     C_R   0.123329 0.468864 0.502417 -0.202945
C30   C     C_R   0.531143 0.123329 0.502422 -0.202883
C31   C     C_R   0.876675 0.531138 0.502452 -0.202643
C32   C     C_R   0.468856 0.876674 0.502453 -0.202619
C33   C     C_R   0.659233 0.031338 0.997476 0.264586
C34   C     C_R   0.031325 0.340763 0.997512 0.264579
C35   C     C_R   0.340763 0.968664 0.997511 0.264634
C36   C     C_R   0.968670 0.659233 0.997482 0.264669
C37   C     C_R   0.659237 0.968675 0.002488 0.264578
C38   C     C_R   0.031336 0.659237 0.002488 0.264634
C39   C     C_R   0.340767 0.031329 0.002518 0.264669
C40   C     C_R   0.968662 0.340766 0.002523 0.264587
C41   C     C_R   0.159233 0.531338 0.497468 0.264702
C42   C     C_R   0.531325 0.840763 0.497523 0.264667
C43   C     C_R   0.840762 0.468664 0.497516 0.264659
C44   C     C_R   0.468671 0.159233 0.497471 0.264713
C45   C     C_R   0.159237 0.468675 0.502477 0.264667
C46   C     C_R   0.531336 0.159237 0.502484 0.264660
C47   C     C_R   0.840767 0.531329 0.502528 0.264712
C48   C     C_R   0.468662 0.840767 0.502532 0.264702
C49   C     C_R   0.677414 0.000007 0.999980 -0.077167
C50   C     C_R   0.999992 0.322586 0.000020 -0.077167
C51   C     C_R   0.322586 0.999996 0.000017 -0.077138
C52   C     C_R   0.000003 0.677414 0.999983 -0.077138
C53   C     C_R   0.177414 0.500008 0.499969 -0.077161
C54   C     C_R   0.499992 0.822586 0.500031 -0.077161
C55   C     C_R   0.822586 0.499997 0.500024 -0.077157
C56   C     C_R   0.500003 0.177414 0.499976 -0.077157
C57   C     C_R   0.605181 0.000003 0.999993 -0.150384
C58   C     C_R   0.999997 0.394819 0.000007 -0.150384
C59   C     C_R   0.394819 0.999998 0.000006 -0.150331
C60   C     C_R   0.000002 0.605181 0.999994 -0.150331
C61   C     C_R   0.105181 0.500003 0.499988 -0.150304
C62   C     C_R   0.499997 0.894819 0.500012 -0.150304
C63   C     C_R   0.894819 0.499998 0.500010 -0.150311
C64   C     C_R   0.500002 0.105181 0.499990 -0.150311
C65   C     C_R   0.784721 0.000012 0.999980 0.309917
C66   C     C_R   0.999988 0.215279 0.000020 0.309917
C67   C     C_R   0.215279 1.000000 0.000015 0.309879
C68   C     C_R   0.000000 0.784721 0.999985 0.309880
C69   C     C_R   0.284721 0.500012 0.499973 0.309891
C70   C     C_R   0.499987 0.715279 0.500026 0.309891
C71   C     C_R   0.715279 0.500000 0.500019 0.309886
C72   C     C_R   0.500000 0.284721 0.499980 0.309886
C73   C     C_R   0.715008 0.000011 0.999978 0.388161
C74   C     C_R   0.999989 0.284992 0.000022 0.388160
C75   C     C_R   0.284992 0.999997 0.000016 0.388134
C76   C     C_R   0.000003 0.715008 0.999984 0.388134
C77   C     C_R   0.215008 0.500012 0.499968 0.388133
C78   C     C_R   0.499988 0.784991 0.500032 0.388132
C79   C     C_R   0.784992 0.499998 0.500024 0.388137
C80   C     C_R   0.500002 0.215008 0.499976 0.388138
C81   C     C_R   0.840746 0.023257 0.017166 -0.137077
C82   C     C_R   0.023238 0.159260 0.017196 -0.137070
C83   C     C_R   0.159257 0.976756 0.017189 -0.137089
C84   C     C_R   0.976754 0.840743 0.017165 -0.137070
C85   C     C_R   0.840740 0.976761 0.982804 -0.137071
C86   C     C_R   0.023244 0.840743 0.982811 -0.137090
C87   C     C_R   0.159257 0.023246 0.982835 -0.137070
C88   C     C_R   0.976743 0.159254 0.982834 -0.137077
C89   C     C_R   0.340745 0.523256 0.517163 -0.137033
C90   C     C_R   0.523240 0.659259 0.517198 -0.137051
C91   C     C_R   0.659256 0.476756 0.517192 -0.137063
C92   C     C_R   0.476754 0.340742 0.517163 -0.137053
C93   C     C_R   0.340741 0.476760 0.482801 -0.137051
C94   C     C_R   0.523244 0.340744 0.482808 -0.137063
C95   C     C_R   0.659258 0.523246 0.482837 -0.137054
C96   C     C_R   0.476744 0.659255 0.482837 -0.137034
C97   C     C_R   0.876781 0.023582 0.017406 0.128805
C98   C     C_R   0.023571 0.123225 0.017426 0.128822
C99   C     C_R   0.123222 0.976428 0.017421 0.128814
C100  C     C_R   0.976425 0.876777 0.017404 0.128807
C101  C     C_R   0.876775 0.976429 0.982574 0.128823
C102  C     C_R   0.023572 0.876778 0.982578 0.128814
C103  C     C_R   0.123222 0.023575 0.982596 0.128807
C104  C     C_R   0.976418 0.123219 0.982593 0.128805
C105  C     C_R   0.376780 0.523581 0.517405 0.128781
C106  C     C_R   0.523572 0.623224 0.517427 0.128812
C107  C     C_R   0.623221 0.476427 0.517423 0.128809
C108  C     C_R   0.476426 0.376777 0.517403 0.128799
C109  C     C_R   0.376776 0.476428 0.482573 0.128811
C110  C     C_R   0.523573 0.376779 0.482577 0.128809
C111  C     C_R   0.623223 0.523574 0.482597 0.128798
C112  C     C_R   0.476419 0.623220 0.482595 0.128782
C113  C     C_R   0.895039 0.000003 0.999993 -0.063076
C114  C     C_R   0.999996 0.104961 0.000007 -0.063076
C115  C     C_R   0.104961 0.000001 0.000007 -0.063080
C116  C     C_R   0.999999 0.895039 0.999993 -0.063081
C117  C     C_R   0.395039 0.500002 0.499992 -0.063073
C118  C     C_R   0.499998 0.604961 0.500007 -0.063074
C119  C     C_R   0.604961 0.500000 0.500007 -0.063079
C120  C     C_R   0.500000 0.395039 0.499993 -0.063079
C121  C     C_R   0.500033 0.999998 0.944573 0.897534
C122  C     C_R   0.999997 0.499994 0.944573 0.897715
C123  C     C_R   0.500006 0.000003 0.055427 0.897714
C124  C     C_R   0.000002 0.499966 0.055427 0.897534
C125  C     C_R   0.000033 0.499998 0.444572 0.897446
C126  C     C_R   0.499997 0.000028 0.444573 0.897773
C127  C     C_R   0.999972 0.500003 0.555427 0.897772
C128  C     C_R   0.500002 0.999966 0.555427 0.897446
C129  C     C_R   0.822612 0.000010 0.999983 -0.009730
C130  C     C_R   0.999989 0.177388 0.000017 -0.009730
C131  C     C_R   0.177388 0.000001 0.000013 -0.009725
C132  C     C_R   0.999999 0.822612 0.999987 -0.009724
C133  C     C_R   0.322612 0.500010 0.499979 -0.009727
C134  C     C_R   0.499990 0.677388 0.500021 -0.009727
C135  C     C_R   0.677388 0.500001 0.500016 -0.009723
C136  C     C_R   0.499999 0.322612 0.499984 -0.009723
C137  C     C_R   1.000000 0.067158 0.000002 0.881841
C138  C     C_R   0.067158 0.000000 0.000002 0.881844
C139  C     C_R   1.000000 0.932842 0.999998 0.881844
C140  C     C_R   0.932842 0.000000 0.999998 0.881842
C141  C     C_R   0.500000 0.567158 0.500002 0.881837
C142  C     C_R   0.567158 0.500000 0.500002 0.881837
C143  C     C_R   0.500000 0.432842 0.499998 0.881837
C144  C     C_R   0.432842 0.500000 0.499998 0.881838
C145  C     C_R   0.521397 0.021326 0.690174 0.506626
C146  C     C_R   0.021525 0.479340 0.690257 0.506447
C147  C     C_R   0.479060 0.976398 0.690611 0.505546
C148  C     C_R   0.975922 0.520947 0.690489 0.505464
C149  C     C_R   0.520660 0.978474 0.309743 0.506447
C150  C     C_R   0.023601 0.520941 0.309389 0.505544
C151  C     C_R   0.479053 0.024078 0.309511 0.505462
C152  C     C_R   0.978675 0.478603 0.309826 0.506625
C153  C     C_R   0.021397 0.521326 0.190174 0.506625
C154  C     C_R   0.521916 0.978782 0.190529 0.507278
C155  C     C_R   0.979060 0.476399 0.190611 0.505542
C156  C     C_R   0.477749 0.021923 0.190311 0.507560
C157  C     C_R   0.021218 0.478084 0.809470 0.507277
C158  C     C_R   0.523601 0.020941 0.809389 0.505544
C159  C     C_R   0.978077 0.522251 0.809689 0.507561
C160  C     C_R   0.478675 0.978603 0.809826 0.506625
C161  C     C_R   0.478433 0.976535 0.720343 -0.021065
C162  C     C_R   0.976019 0.521774 0.720214 -0.021197
C163  C     C_R   0.522411 0.021708 0.719895 -0.023645
C164  C     C_R   0.021914 0.478549 0.719981 -0.023656
C165  C     C_R   0.478225 0.023981 0.279786 -0.021196
C166  C     C_R   0.978292 0.477589 0.280104 -0.023645
C167  C     C_R   0.521451 0.978085 0.280019 -0.023656
C168  C     C_R   0.023465 0.521567 0.279657 -0.021064
C169  C     C_R   0.978433 0.476535 0.220343 -0.021062
C170  C     C_R   0.477607 0.022933 0.220031 -0.024911
C171  C     C_R   0.022411 0.521709 0.219895 -0.023647
C172  C     C_R   0.522025 0.978187 0.220259 -0.024816
C173  C     C_R   0.977066 0.522393 0.779968 -0.024911
C174  C     C_R   0.478292 0.977589 0.780104 -0.023647
C175  C     C_R   0.021813 0.477974 0.779741 -0.024816
C176  C     C_R   0.523465 0.021567 0.779657 -0.021062
C177  C     C_R   0.500512 0.999259 0.735041 -0.018274
C178  C     C_R   0.999098 0.500181 0.735018 -0.017229
C179  C     C_R   0.499818 0.000901 0.264981 -0.017229
C180  C     C_R   0.000740 0.499488 0.264959 -0.018274
C181  C     C_R   0.000512 0.499260 0.235041 -0.018274
C182  C     C_R   0.499812 0.000668 0.235065 -0.019732
C183  C     C_R   0.999331 0.500188 0.764935 -0.019732
C184  C     C_R   0.500741 0.999488 0.764959 -0.018274
C185  C     C_R   0.456380 0.954590 0.735643 -0.149266
C186  C     C_R   0.953713 0.543578 0.735404 -0.149416
C187  C     C_R   0.544728 0.043849 0.734751 -0.148172
C188  C     C_R   0.044439 0.456735 0.734942 -0.148461
C189  C     C_R   0.456422 0.046287 0.264595 -0.149417
C190  C     C_R   0.956152 0.455271 0.265249 -0.148172
C191  C     C_R   0.543264 0.955560 0.265058 -0.148461
C192  C     C_R   0.045409 0.543621 0.264356 -0.149266
C193  C     C_R   0.956381 0.454590 0.235643 -0.149273
C194  C     C_R   0.455954 0.045613 0.234993 -0.146764
C195  C     C_R   0.044728 0.543850 0.234751 -0.148169
C196  C     C_R   0.543700 0.955757 0.235451 -0.146888
C197  C     C_R   0.954387 0.544046 0.765007 -0.146765
C198  C     C_R   0.456151 0.955271 0.765249 -0.148170
C199  C     C_R   0.044242 0.456299 0.764549 -0.146889
C200  C     C_R   0.545409 0.043620 0.764356 -0.149273
C201  C     C_R   0.484059 0.026662 0.868912 0.192730
C202  C     C_R   0.026665 0.516882 0.869070 0.192521
C203  C     C_R   0.518267 0.973476 0.869243 0.194440
C204  C     C_R   0.973124 0.483156 0.869110 0.192373
C205  C     C_R   0.483118 0.973335 0.130930 0.192522
C206  C     C_R   0.026524 0.481734 0.130757 0.194439
C207  C     C_R   0.516844 0.026876 0.130890 0.192374
C208  C     C_R   0.973338 0.515940 0.131088 0.192731
C209  C     C_R   0.984059 0.526662 0.368912 0.192720
C210  C     C_R   0.526617 0.017951 0.369222 0.194411
C211  C     C_R   0.018267 0.473476 0.369243 0.194438
C212  C     C_R   0.473017 0.984391 0.368942 0.192527
C213  C     C_R   0.982049 0.473382 0.630778 0.194411
C214  C     C_R   0.526524 0.981734 0.630757 0.194437
C215  C     C_R   0.015608 0.526983 0.631058 0.192526
C216  C     C_R   0.473338 0.015940 0.631088 0.192719
C217  C     C_R   0.484163 0.026630 0.898593 -0.195297
C218  C     C_R   0.026759 0.516089 0.898717 -0.212443
C219  C     C_R   0.517079 0.973421 0.898881 -0.212560
C220  C     C_R   0.973154 0.483881 0.898755 -0.212166
C221  C     C_R   0.483911 0.973241 0.101283 -0.212442
C222  C     C_R   0.026580 0.482922 0.101118 -0.212560
C223  C     C_R   0.516119 0.026845 0.101245 -0.212166
C224  C     C_R   0.973370 0.515836 0.101407 -0.195297
C225  C     C_R   0.984163 0.526630 0.398593 -0.195287
C226  C     C_R   0.526720 0.016749 0.398859 -0.212678
C227  C     C_R   0.017079 0.473421 0.398881 -0.212570
C228  C     C_R   0.473125 0.984454 0.398618 -0.195150
C229  C     C_R   0.983251 0.473279 0.601141 -0.212678
C230  C     C_R   0.526579 0.982922 0.601118 -0.212571
C231  C     C_R   0.015545 0.526875 0.601382 -0.195151
C232  C     C_R   0.473370 0.015836 0.601407 -0.195287
C233  C     C_R   0.500382 0.999997 0.913561 -0.118596
C234  C     C_R   0.999978 0.499981 0.913561 -0.114316
C235  C     C_R   0.500019 0.000022 0.086438 -0.114316
C236  C     C_R   0.000003 0.499619 0.086439 -0.118597
C237  C     C_R   0.000382 0.499997 0.413561 -0.118572
C238  C     C_R   0.499974 0.000360 0.413562 -0.118899
C239  C     C_R   0.999640 0.500026 0.586438 -0.118899
C240  C     C_R   0.500003 0.999618 0.586439 -0.118572
H1    H     H_    0.439123 0.936966 0.724808 0.197331
H2    H     H_    0.935812 0.560462 0.724484 0.197310
H3    H     H_    0.561855 0.061269 0.723566 0.197392
H4    H     H_    0.062149 0.439826 0.723840 0.197324
H5    H     H_    0.439538 0.064188 0.275515 0.197311
H6    H     H_    0.938732 0.438144 0.276434 0.197392
H7    H     H_    0.560174 0.937850 0.276160 0.197324
H8    H     H_    0.063033 0.560878 0.275192 0.197330
H9    H     H_    0.939123 0.436966 0.224808 0.197326
H10   H     H_    0.438736 0.063025 0.223894 0.197224
H11   H     H_    0.061854 0.561270 0.223566 0.197393
H12   H     H_    0.560930 0.938190 0.224530 0.197175
H13   H     H_    0.936975 0.561264 0.776106 0.197224
H14   H     H_    0.438732 0.938144 0.776434 0.197393
H15   H     H_    0.061810 0.439070 0.775469 0.197175
H16   H     H_    0.563033 0.060878 0.775192 0.197327
H17   H     H_    0.470992 0.046980 0.910093 0.168871
H18   H     H_    0.047366 0.528843 0.910248 0.174703
H19   H     H_    0.529892 0.952964 0.910542 0.174740
H20   H     H_    0.952589 0.471106 0.910313 0.174708
H21   H     H_    0.471157 0.952634 0.089751 0.174702
H22   H     H_    0.047036 0.470109 0.089458 0.174740
H23   H     H_    0.528893 0.047410 0.089686 0.174708
H24   H     H_    0.953020 0.529006 0.089907 0.168872
H25   H     H_    0.970993 0.546980 0.410093 0.168878
H26   H     H_    0.547353 0.029315 0.410497 0.175049
H27   H     H_    0.029892 0.452964 0.410542 0.174737
H28   H     H_    0.452641 0.971515 0.410131 0.169194
H29   H     H_    0.970685 0.452647 0.589503 0.175049
H30   H     H_    0.547036 0.970109 0.589458 0.174737
H31   H     H_    0.028485 0.547359 0.589869 0.169194
H32   H     H_    0.453020 0.029007 0.589907 0.168879
H33   H     H_    0.609666 0.055399 0.995435 0.198434
H34   H     H_    0.055393 0.390329 0.995454 0.198370
H35   H     H_    0.390328 0.944599 0.995457 0.198377
H36   H     H_    0.944604 0.609665 0.995441 0.198366
H37   H     H_    0.609671 0.944607 0.004546 0.198370
H38   H     H_    0.055400 0.609672 0.004543 0.198377
H39   H     H_    0.390335 0.055396 0.004559 0.198366
H40   H     H_    0.944601 0.390334 0.004564 0.198434
H41   H     H_    0.109665 0.555399 0.495432 0.198418
H42   H     H_    0.555393 0.890328 0.495462 0.198366
H43   H     H_    0.890328 0.444600 0.495456 0.198371
H44   H     H_    0.444605 0.109664 0.495431 0.198414
H45   H     H_    0.109672 0.444607 0.504538 0.198366
H46   H     H_    0.555400 0.109672 0.504544 0.198371
H47   H     H_    0.890336 0.555395 0.504569 0.198414
H48   H     H_    0.444601 0.890335 0.504567 0.198418
H49   H     H_    0.826791 0.041406 0.030381 0.168415
H50   H     H_    0.041385 0.173221 0.030415 0.168414
H51   H     H_    0.173215 0.958610 0.030405 0.168408
H52   H     H_    0.958607 0.826785 0.030378 0.168430
H53   H     H_    0.826779 0.958614 0.969585 0.168415
H54   H     H_    0.041390 0.826785 0.969595 0.168408
H55   H     H_    0.173215 0.041393 0.969622 0.168431
H56   H     H_    0.958594 0.173209 0.969618 0.168415
H57   H     H_    0.326789 0.541406 0.530377 0.168444
H58   H     H_    0.541387 0.673219 0.530418 0.168422
H59   H     H_    0.673214 0.458610 0.530408 0.168419
H60   H     H_    0.458608 0.326783 0.530376 0.168434
H61   H     H_    0.326781 0.458613 0.469582 0.168421
H62   H     H_    0.541390 0.326786 0.469592 0.168419
H63   H     H_    0.673216 0.541392 0.469624 0.168434
H64   H     H_    0.458594 0.673211 0.469622 0.168444
N1    N     N_R   0.500072 0.998796 0.676268 -0.352463
N2    N     N_R   0.998672 0.500208 0.676252 -0.352512
N3    N     N_R   0.499791 0.001328 0.323748 -0.352512
N4    N     N_R   0.001204 0.499928 0.323732 -0.352463
N5    N     N_R   0.000072 0.498796 0.176267 -0.352462
N6    N     N_R   0.499851 0.000264 0.176297 -0.357743
N7    N     N_R   0.999735 0.500149 0.823703 -0.357743
N8    N     N_R   0.501204 0.999928 0.823732 -0.352462
N9    N     N_R   0.732640 0.980954 0.980712 -0.113756
N10   N     N_R   0.980931 0.267353 0.980755 -0.113827
N11   N     N_R   0.267355 0.019047 0.980749 -0.113622
N12   N     N_R   0.019051 0.732642 0.980717 -0.113855
N13   N     N_R   0.732647 0.019069 0.019244 -0.113827
N14   N     N_R   0.980953 0.732645 0.019251 -0.113623
N15   N     N_R   0.267358 0.980949 0.019283 -0.113855
N16   N     N_R   0.019046 0.267360 0.019288 -0.113755
N17   N     N_R   0.232641 0.480956 0.480702 -0.113808
N18   N     N_R   0.480931 0.767354 0.480764 -0.113599
N19   N     N_R   0.767356 0.519050 0.480757 -0.113654
N20   N     N_R   0.519053 0.232643 0.480712 -0.113768
N21   N     N_R   0.232646 0.519069 0.519236 -0.113600
N22   N     N_R   0.480950 0.232644 0.519243 -0.113653
N23   N     N_R   0.767357 0.480947 0.519288 -0.113768
N24   N     N_R   0.519044 0.767359 0.519298 -0.113808
N25   N     N_R   0.766925 0.980938 0.980737 -0.154104
N26   N     N_R   0.980914 0.233068 0.980778 -0.154128
N27   N     N_R   0.233070 0.019065 0.980772 -0.154071
N28   N     N_R   0.019067 0.766928 0.980742 -0.154136
N29   N     N_R   0.766932 0.019086 0.019222 -0.154129
N30   N     N_R   0.980935 0.766930 0.019228 -0.154071
N31   N     N_R   0.233072 0.980933 0.019258 -0.154136
N32   N     N_R   0.019062 0.233075 0.019263 -0.154104
N33   N     N_R   0.266927 0.480940 0.480729 -0.154099
N34   N     N_R   0.480914 0.733069 0.480785 -0.154046
N35   N     N_R   0.733071 0.519068 0.480779 -0.154070
N36   N     N_R   0.519069 0.266928 0.480738 -0.154095
N37   N     N_R   0.266931 0.519086 0.519215 -0.154046
N38   N     N_R   0.480932 0.266929 0.519221 -0.154070
N39   N     N_R   0.733072 0.480932 0.519262 -0.154094
N40   N     N_R   0.519060 0.733073 0.519271 -0.154098
O1    O     O_R   0.550940 0.971210 0.999990 -0.619897
O2    O     O_R   0.971210 0.449060 0.999990 -0.619735
O3    O     O_R   0.449060 0.028790 0.999990 -0.619743
O4    O     O_R   0.028790 0.550940 0.999990 -0.619762
O5    O     O_R   0.550940 0.028790 0.000010 -0.619735
O6    O     O_R   0.971210 0.550940 0.000010 -0.619743
O7    O     O_R   0.449060 0.971210 0.000010 -0.619762
O8    O     O_R   0.028790 0.449060 0.000010 -0.619897
O9    O     O_R   0.050940 0.471210 0.499990 -0.619894
O10   O     O_R   0.471210 0.949060 0.499990 -0.619673
O11   O     O_R   0.949060 0.528790 0.499990 -0.619696
O12   O     O_R   0.528790 0.050940 0.499990 -0.619839
O13   O     O_R   0.050940 0.528790 0.500010 -0.619673
O14   O     O_R   0.471210 0.050940 0.500010 -0.619696
O15   O     O_R   0.949060 0.471210 0.500010 -0.619839
O16   O     O_R   0.528790 0.949060 0.500010 -0.619894
O17   O     O_R   0.499990 0.971210 0.958070 -0.615482
O18   O     O_R   0.971210 0.500010 0.958070 -0.615972
O19   O     O_R   0.500010 0.028790 0.958070 -0.615656
O20   O     O_R   0.028790 0.499990 0.958070 -0.615969
O21   O     O_R   0.499990 0.028790 0.041930 -0.615972
O22   O     O_R   0.971210 0.499990 0.041930 -0.615656
O23   O     O_R   0.500010 0.971210 0.041930 -0.615969
O24   O     O_R   0.028790 0.500010 0.041930 -0.615483
O25   O     O_R   0.999990 0.471210 0.458070 -0.615511
O26   O     O_R   0.471210 0.000010 0.458070 -0.615896
O27   O     O_R   0.000010 0.528790 0.458070 -0.615678
O28   O     O_R   0.528790 0.999990 0.458070 -0.615710
O29   O     O_R   0.999990 0.528790 0.541930 -0.615897
O30   O     O_R   0.471210 0.999990 0.541930 -0.615678
O31   O     O_R   0.000010 0.471210 0.541930 -0.615710
O32   O     O_R   0.528790 0.000010 0.541930 -0.615512
O33   O     O_2   0.541592 0.043121 0.675215 -0.541606
O34   O     O_2   0.043649 0.459395 0.675394 -0.541573
O35   O     O_2   0.458896 0.954137 0.676083 -0.546161
O36   O     O_2   0.953364 0.540661 0.675859 -0.546006
O37   O     O_2   0.540604 0.956351 0.324606 -0.541573
O38   O     O_2   0.045862 0.541105 0.323917 -0.546160
O39   O     O_2   0.459339 0.046636 0.324140 -0.546005
O40   O     O_2   0.956880 0.458407 0.324785 -0.541605
O41   O     O_2   0.041592 0.543121 0.175215 -0.541604
O42   O     O_2   0.543526 0.958049 0.175887 -0.538636
O43   O     O_2   0.958896 0.454137 0.176083 -0.546168
O44   O     O_2   0.456161 0.042457 0.175458 -0.538647
O45   O     O_2   0.041950 0.456473 0.824113 -0.538636
O46   O     O_2   0.545862 0.041105 0.823917 -0.546169
O47   O     O_2   0.957543 0.543839 0.824542 -0.538647
O48   O     O_2   0.456880 0.958407 0.824785 -0.541604
O49   O     O_R   0.000030 0.050790 0.976310 -0.614291
O50   O     O_R   0.050790 0.999970 0.976310 -0.614290
O51   O     O_R   0.999970 0.949210 0.976310 -0.614296
O52   O     O_R   0.949210 0.000030 0.976310 -0.614296
O53   O     O_R   0.000030 0.949210 0.023690 -0.614290
O54   O     O_R   0.050790 0.000030 0.023690 -0.614296
O55   O     O_R   0.999970 0.050790 0.023690 -0.614296
O56   O     O_R   0.949210 0.999970 0.023690 -0.614291
O57   O     O_R   0.500030 0.550790 0.476310 -0.614289
O58   O     O_R   0.550790 0.499970 0.476310 -0.614291
O59   O     O_R   0.499970 0.449210 0.476310 -0.614293
O60   O     O_R   0.449210 0.500030 0.476310 -0.614295
O61   O     O_R   0.500030 0.449210 0.523690 -0.614291
O62   O     O_R   0.550790 0.500030 0.523690 -0.614293
O63   O     O_R   0.499970 0.550790 0.523690 -0.614294
O64   O     O_R   0.449210 0.499970 0.523690 -0.614287
Zn1   Zn    Zn3+2 0.500000 0.961570 0.000000 1.000764
Zn2   Zn    Zn3+2 0.961570 0.500000 0.000000 1.001089
Zn3   Zn    Zn3+2 0.500000 0.038430 0.000000 1.001089
Zn4   Zn    Zn3+2 0.038430 0.500000 0.000000 1.000763
Zn5   Zn    Zn3+2 1.000000 0.461570 0.500000 1.000849
Zn6   Zn    Zn3+2 0.461570 1.000000 0.500000 1.001492
Zn7   Zn    Zn3+2 1.000000 0.538430 0.500000 1.001493
Zn8   Zn    Zn3+2 0.538430 1.000000 0.500000 1.000849
Zn9   Zn    Zn3+2 1.000000 0.000000 0.968380 0.963579
Zn10  Zn    Zn3+2 0.000000 1.000000 0.031620 0.963580
Zn11  Zn    Zn3+2 0.500000 0.500000 0.468380 0.963599
Zn12  Zn    Zn3+2 0.500000 0.500000 0.531620 0.963599
C241  C     C_3   0.464988 0.054594 0.853141 -0.840353
H65   H     H_    0.451616 0.072533 0.867895 0.239742
H66   H     H_    0.483308 0.069913 0.840143 0.263493
H67   H     H_    0.445275 0.042830 0.839014 0.246549
C242  C     C_3   0.055251 0.536176 0.854271 -0.820381
H68   H     H_    0.056000 0.563207 0.862098 0.240425
H69   H     H_    0.080358 0.523626 0.859024 0.253963
H70   H     H_    0.051969 0.537129 0.830899 0.238618
C243  C     C_3   0.537818 0.944967 0.854583 -0.820145
H71   H     H_    0.564829 0.944468 0.862468 0.241198
H72   H     H_    0.525440 0.919789 0.859389 0.253105
H73   H     H_    0.538777 0.948148 0.831200 0.238613
C244  C     C_3   0.944473 0.463896 0.854352 -0.820733
H74   H     H_    0.943741 0.436854 0.862148 0.240500
H75   H     H_    0.919389 0.476450 0.859179 0.254066
H76   H     H_    0.947669 0.462970 0.830972 0.238444
C245  C     C_3   0.463824 0.944748 0.145729 -0.820382
H77   H     H_    0.436793 0.944000 0.137902 0.240425
H78   H     H_    0.476374 0.919641 0.140975 0.253963
H79   H     H_    0.462871 0.948031 0.169101 0.238617
C246  C     C_3   0.055034 0.462184 0.145417 -0.820145
H80   H     H_    0.055534 0.435173 0.137532 0.241199
H81   H     H_    0.080212 0.474562 0.140611 0.253106
H82   H     H_    0.051853 0.461225 0.168800 0.238613
C247  C     C_3   0.536104 0.055527 0.145648 -0.820731
H83   H     H_    0.563146 0.056259 0.137852 0.240500
H84   H     H_    0.523550 0.080611 0.140821 0.254066
H85   H     H_    0.537030 0.052331 0.169028 0.238443
C248  C     C_3   0.945406 0.535011 0.146859 -0.840351
H86   H     H_    0.927466 0.548382 0.132105 0.239742
H87   H     H_    0.930086 0.516691 0.159857 0.263492
H88   H     H_    0.957168 0.554724 0.160985 0.246548
C249  C     C_3   0.964988 0.554594 0.353141 -0.840331
H89   H     H_    0.951616 0.572533 0.367895 0.239749
H90   H     H_    0.983308 0.569913 0.340143 0.263496
H91   H     H_    0.945275 0.542830 0.339014 0.246544
C250  C     C_3   0.555337 0.037152 0.354530 -0.820205
H92   H     H_    0.556162 0.064164 0.362394 0.241286
H93   H     H_    0.580373 0.024487 0.359331 0.252941
H94   H     H_    0.552141 0.038116 0.331147 0.238712
C251  C     C_3   0.037818 0.444967 0.354583 -0.820139
H95   H     H_    0.064829 0.444468 0.362469 0.241198
H96   H     H_    0.025440 0.419789 0.359389 0.253107
H97   H     H_    0.038777 0.448147 0.331200 0.238613
C252  C     C_3   0.444803 0.965700 0.353192 -0.840532
H98   H     H_    0.426726 0.952542 0.367959 0.239800
H99   H     H_    0.429693 0.984234 0.340230 0.263226
H100  H     H_    0.456276 0.945857 0.339033 0.246686
C253  C     C_3   0.962848 0.444663 0.645470 -0.820203
H101  H     H_    0.935835 0.443837 0.637605 0.241286
H102  H     H_    0.975513 0.419627 0.640669 0.252940
H103  H     H_    0.961884 0.447858 0.668853 0.238711
C254  C     C_3   0.555034 0.962183 0.645417 -0.820138
H104  H     H_    0.555533 0.935172 0.637531 0.241198
H105  H     H_    0.580212 0.974562 0.640611 0.253107
H106  H     H_    0.551853 0.961224 0.668800 0.238613
C255  C     C_3   0.034299 0.555197 0.646808 -0.840534
H107  H     H_    0.047458 0.573274 0.632041 0.239800
H108  H     H_    0.015766 0.570307 0.659770 0.263227
H109  H     H_    0.054143 0.543724 0.660967 0.246687
C256  C     C_3   0.445406 0.035011 0.646859 -0.840333
H110  H     H_    0.427466 0.048382 0.632104 0.239749
H111  H     H_    0.430086 0.016691 0.659857 0.263497
H112  H     H_    0.457169 0.054724 0.660985 0.246545
Br1   Br    Br    0.682065 0.074952 0.992512 -0.445804
Br2   Br    Br    0.074937 0.317927 0.992556 -0.446109
Br3   Br    Br    0.317925 0.925048 0.992559 -0.445954
Br4   Br    Br    0.925055 0.682064 0.992522 -0.445843
Br5   Br    Br    0.682073 0.925063 0.007444 -0.446109
Br6   Br    Br    0.074952 0.682075 0.007441 -0.445954
Br7   Br    Br    0.317936 0.074944 0.007478 -0.445843
Br8   Br    Br    0.925048 0.317935 0.007487 -0.445804
Br9   Br    Br    0.182064 0.574952 0.492504 -0.445473
Br10  Br    Br    0.574937 0.817926 0.492572 -0.445899
Br11  Br    Br    0.817925 0.425050 0.492560 -0.445912
Br12  Br    Br    0.425057 0.182062 0.492506 -0.445527
Br13  Br    Br    0.182074 0.425063 0.507428 -0.445899
Br14  Br    Br    0.574951 0.182075 0.507440 -0.445911
Br15  Br    Br    0.817937 0.574943 0.507494 -0.445526
Br16  Br    Br    0.425047 0.817936 0.507495 -0.445473
C257  C     C_3   0.895035 0.049780 0.035824 -0.841465
H113  H     H_    0.876677 0.068351 0.045568 0.239967
H114  H     H_    0.908849 0.036525 0.053350 0.261428
H115  H     H_    0.913709 0.064828 0.022939 0.227649
C258  C     C_3   0.049772 0.104978 0.035839 -0.841494
H116  H     H_    0.068339 0.123342 0.045588 0.239968
H117  H     H_    0.036520 0.091159 0.053360 0.261429
H118  H     H_    0.064825 0.086310 0.022948 0.227641
C259  C     C_3   0.104972 0.950231 0.035831 -0.841492
H119  H     H_    0.123332 0.931664 0.045577 0.239960
H120  H     H_    0.091157 0.963488 0.053356 0.261429
H121  H     H_    0.086299 0.935178 0.022940 0.227648
C260  C     C_3   0.950226 0.895027 0.035816 -0.841458
H122  H     H_    0.931658 0.876666 0.045557 0.239970
H123  H     H_    0.963482 0.908844 0.053344 0.261431
H124  H     H_    0.935175 0.913698 0.022927 0.227641
C261  C     C_3   0.895021 0.950227 0.964161 -0.841493
H125  H     H_    0.876658 0.931661 0.954412 0.239968
H126  H     H_    0.908841 0.963480 0.946639 0.261429
H127  H     H_    0.913690 0.935175 0.977052 0.227642
C262  C     C_3   0.049769 0.895028 0.964169 -0.841489
H128  H     H_    0.068336 0.876668 0.954423 0.239959
H129  H     H_    0.036512 0.908843 0.946644 0.261428
H130  H     H_    0.064822 0.913701 0.977060 0.227648
C263  C     C_3   0.104973 0.049774 0.964184 -0.841459
H131  H     H_    0.123334 0.068342 0.954444 0.239970
H132  H     H_    0.091155 0.036518 0.946656 0.261432
H133  H     H_    0.086302 0.064825 0.977073 0.227641
C264  C     C_3   0.950220 0.104965 0.964175 -0.841464
H134  H     H_    0.931650 0.123323 0.954432 0.239968
H135  H     H_    0.963476 0.091151 0.946649 0.261428
H136  H     H_    0.935172 0.086291 0.977060 0.227650
C265  C     C_3   0.395033 0.549779 0.535824 -0.841408
H137  H     H_    0.376675 0.568349 0.545567 0.239987
H138  H     H_    0.408846 0.536524 0.553350 0.261430
H139  H     H_    0.413707 0.564827 0.522939 0.227643
C266  C     C_3   0.549775 0.604977 0.535838 -0.841453
H140  H     H_    0.568342 0.623339 0.545588 0.239976
H141  H     H_    0.536523 0.591156 0.553360 0.261430
H142  H     H_    0.564826 0.586309 0.522947 0.227639
C267  C     C_3   0.604970 0.450230 0.535832 -0.841458
H143  H     H_    0.623330 0.431663 0.545578 0.239965
H144  H     H_    0.591155 0.463487 0.553357 0.261433
H145  H     H_    0.586298 0.435178 0.522940 0.227641
C268  C     C_3   0.450228 0.395026 0.535816 -0.841435
H146  H     H_    0.431660 0.376664 0.545557 0.239976
H147  H     H_    0.463484 0.408842 0.553345 0.261430
H148  H     H_    0.435177 0.413696 0.522928 0.227642
C269  C     C_3   0.395023 0.450225 0.464162 -0.841452
H149  H     H_    0.376661 0.431658 0.454412 0.239975
H150  H     H_    0.408844 0.463477 0.446640 0.261430
H151  H     H_    0.413691 0.435174 0.477053 0.227639
C270  C     C_3   0.549770 0.395030 0.464168 -0.841458
H152  H     H_    0.568337 0.376670 0.454422 0.239965
H153  H     H_    0.536513 0.408845 0.446643 0.261433
H154  H     H_    0.564822 0.413702 0.477060 0.227641
C271  C     C_3   0.604974 0.549772 0.464184 -0.841436
H155  H     H_    0.623336 0.568340 0.454443 0.239975
H156  H     H_    0.591158 0.536516 0.446655 0.261431
H157  H     H_    0.586303 0.564823 0.477072 0.227642
C272  C     C_3   0.450221 0.604967 0.464176 -0.841406
H158  H     H_    0.431651 0.623325 0.454433 0.239986
H159  H     H_    0.463477 0.591154 0.446650 0.261428
H160  H     H_    0.435173 0.586292 0.477061 0.227643

loop_
_geom_bond_atom_site_label_1
_geom_bond_atom_site_label_2
_ccdc_geom_bond_type
C155  N5    A    
C127  O29   A    
C1    O5    A    
C225  C237  A    
C250  H92   S    
C108  C120  A    
C205  C245  S    
C270  H153  S    
C175  C199  A    
C89   H57   S    
N15   N31   A    
C271  H155  S    
C266  H142  S    
N16   N32   A    
C222  C236  A    
C249  H90   S    
C5    O9    A    
C30   C64   A    
C22   C60   A    
C90   C134  A    
C245  H79   S    
C22   C38   A    
C252  H100  S    
C191  H7    S    
C201  C241  S    
C242  H68   S    
C114  C137  S    
C13   C211  A    
C191  C196  A    
C256  H111  S    
C228  H28   S    
C85   C129  A    
C229  H29   S    
C189  C194  A    
C18   C58   A    
C179  C182  A    
C140  O56   A    
C272  H159  S    
C100  C116  A    
C152  N4    A    
C66   N32   A    
O55   Zn10  S    
C216  C256  S    
C243  H72   S    
C144  O64   A    
C206  C246  S    
C106  C118  A    
C82   C98   A    
C147  O35   S    
C94   H62   S    
N24   N40   A    
C153  N5    A    
C35   Br3   S    
C34   C50   A    
N20   N36   A    
C192  C195  A    
C91   C107  A    
O51   Zn9   S    
C79   N19   A    
C103  C115  A    
C171  C195  A    
C25   C41   A    
C259  H120  S    
C83   H51   S    
C246  H82   S    
C169  C193  A    
C17   H33   S    
C230  H30   S    
C74   N10   A    
C253  H101  S    
C28   C44   A    
C29   C45   A    
C254  H106  S    
O9    Zn5   S    
C249  H91   S    
C20   H36   S    
O3    Zn3   S    
C21   H37   S    
C259  H121  S    
C155  C169  A    
O1    Zn1   S    
O5    Zn3   S    
C48   Br16  S    
C244  H76   S    
C150  C168  A    
C211  C251  S    
C41   Br9   S    
C10   C202  A    
O64   Zn12  S    
C87   C103  A    
C6    O10   A    
C122  C234  S    
C253  H102  S    
C265  H138  S    
C35   C51   A    
C250  H94   S    
C49   C73   S    
C172  C196  A    
C161  C177  A    
C126  C238  S    
C213  C229  A    
C175  C183  A    
C271  H157  S    
C176  C184  A    
O56   Zn10  S    
C171  C181  A    
C73   N13   A    
C77   N21   A    
C164  C188  A    
C84   C100  A    
C157  O45   S    
C203  C243  S    
C177  C184  A    
C155  O43   S    
O58   Zn11  S    
C168  C192  A    
C187  C200  A    
C163  C187  A    
C153  O41   S    
C266  H140  S    
C32   C62   A    
C269  H150  S    
C19   C35   A    
C227  H27   S    
C261  H125  S    
C8    O14   A    
C146  O34   S    
C156  C170  A    
C242  H70   S    
O50   Zn9   S    
C247  H83   S    
O21   Zn3   S    
C246  H81   S    
C124  C236  S    
C149  N3    A    
O13   Zn7   S    
C255  H108  S    
O27   Zn7   S    
C70   C134  S    
C95   H63   S    
C202  C242  S    
C4    O4    A    
C75   N11   A    
C128  O32   A    
C39   C51   A    
C207  C223  A    
C241  H65   S    
C210  C250  S    
C13   N4    S    
C14   N3    S    
C15   C213  A    
C199  H15   S    
C268  H148  S    
C217  H17   S    
C34   Br2   S    
C243  H71   S    
C23   C59   A    
C78   N24   A    
C71   N39   A    
C93   C133  A    
C50   C74   S    
C33   Br1   S    
C148  O36   S    
C46   Br14  S    
C45   Br13  S    
C141  O63   A    
C159  O47   S    
C87   C131  A    
C160  O48   S    
C270  H152  S    
C1    O1    A    
C164  C178  A    
C92   C108  A    
C214  C254  S    
C38   Br6   S    
C72   N38   A    
C194  H10   S    
C186  C197  A    
C213  C253  S    
C229  C239  A    
C122  O18   A    
C36   C52   A    
C144  O60   A    
C142  O62   A    
C45   C53   A    
C263  H131  S    
C170  C182  A    
C186  H2    S    
C47   Br15  S    
C210  C226  A    
C196  H12   S    
C11   C207  A    
C226  H26   S    
C74   N16   A    
C225  H25   S    
C88   C104  A    
C264  H134  S    
C29   C61   A    
C190  H6    S    
C89   C133  A    
C173  C197  A    
C95   C111  A    
C13   C209  A    
C117  C144  S    
C23   H39   S    
C96   C134  A    
C145  C163  A    
C248  H87   S    
O52   Zn9   S    
C151  C165  A    
C146  C164  A    
C104  C264  S    
C84   C132  A    
C260  H123  S    
C68   C132  S    
C247  H85   S    
C16   C214  A    
C125  O25   A    
C267  H143  S    
O22   Zn2   S    
C1    C57   S    
N18   N34   A    
O23   Zn1   S    
O12   Zn8   S    
C156  N6    A    
C167  C191  A    
C84   H52   S    
O6    Zn2   S    
C7    C63   S    
C4    C60   S    
C256  H110  S    
C21   C37   A    
O4    Zn4   S    
C143  O59   A    
C262  H129  S    
C41   C53   A    
C200  H16   S    
C154  N6    A    
C43   C55   A    
C8    C64   S    
C241  H67   S    
C78   N18   A    
C165  C179  A    
C104  C114  A    
C40   Br8   S    
C79   N23   A    
N22   N38   A    
N11   N27   A    
C65   N25   A    
C26   C42   A    
O32   Zn8   S    
C207  C247  S    
C243  H73   S    
C145  N1    A    
C2    O2    A    
C29   H45   S    
O60   Zn11  S    
C30   C46   A    
C31   H47   S    
C32   H48   S    
C152  C166  A    
C22   H38   S    
C254  H105  S    
C98   C114  A    
C122  O20   A    
C56   C80   S    
C141  O57   A    
C80   N22   A    
C106  C266  S    
C263  H132  S    
C137  O55   A    
C77   N17   A    
O49   Zn9   S    
O8    Zn4   S    
O62   Zn12  S    
C206  C222  A    
C215  C255  S    
C252  H99   S    
C121  O17   A    
C26   H42   S    
C149  O37   S    
C100  C260  S    
C67   N31   A    
C16   N1    S    
C150  N4    A    
C272  H158  S    
C263  H133  S    
C89   C105  A    
C83   C99   A    
C11   C205  A    
O25   Zn5   S    
C111  C271  S    
C81   H49   S    
C255  H109  S    
O19   Zn3   S    
C93   C109  A    
C158  O46   S    
C86   C102  A    
C167  C179  A    
C127  C239  S    
O11   Zn7   S    
O29   Zn7   S    
C250  H93   S    
C108  C268  S    
C219  C233  A    
C149  C167  A    
C36   Br4   S    
C118  C141  S    
C251  H97   S    
C223  H23   S    
C109  C117  A    
C224  H24   S    
C43   Br11  S    
C204  C220  A    
C4    O6    A    
C47   C55   A    
C220  H20   S    
C68   N28   A    
C125  O27   A    
C267  H145  S    
C221  H21   S    
C99   C115  A    
C259  H119  S    
C15   N2    S    
C33   C49   A    
C264  H136  S    
C204  C244  S    
N9    N25   A    
C152  O40   S    
C212  C252  S    
C85   C101  A    
C161  C185  A    
C190  C193  A    
C230  C240  A    
C253  H103  S    
C244  H75   S    
C163  C177  A    
C165  C189  A    
C20   C60   A    
C178  C183  A    
C116  C139  S    
C2    O8    A    
C99   C259  S    
C31   C47   A    
C265  H137  S    
C221  C235  A    
C39   Br7   S    
C242  H69   S    
C105  C117  A    
C92   C136  A    
C120  C143  S    
C17   C33   A    
C176  C200  A    
C107  C119  A    
C222  H22   S    
C245  H78   S    
C70   N34   A    
C218  H18   S    
C173  C183  A    
C69   N33   A    
C90   C106  A    
C187  H3    S    
C147  C161  A    
C170  C194  A    
O15   Zn5   S    
C3    O7    A    
O57   Zn11  S    
C52   C76   S    
C251  H95   S    
C94   C110  A    
C121  O19   A    
C12   C206  A    
C198  H14   S    
C48   C54   A    
C269  H149  S    
C101  C261  S    
C55   C79   S    
C44   C56   A    
C76   N12   A    
C91   H59   S    
C248  H88   S    
C95   C135  A    
C42   Br10  S    
C109  C269  S    
C25   C61   A    
C169  C181  A    
C27   C63   A    
C123  C235  S    
C28   C64   A    
C15   C215  A    
C107  C267  S    
C121  C233  S    
C97   C257  S    
O30   Zn6   S    
C208  C224  A    
C217  C233  A    
C214  C230  A    
C110  C270  S    
C125  C237  S    
C180  C181  A    
C261  H126  S    
C93   H61   S    
C24   C40   A    
C138  O50   A    
C137  O49   A    
C160  C174  A    
N14   N30   A    
C112  C272  S    
C192  H8    S    
C261  H127  S    
C148  N2    A    
C2    C58   S    
C6    O16   A    
C128  C240  S    
C24   H40   S    
C86   H54   S    
C14   C212  A    
C154  O42   S    
C6    C62   S    
C228  C238  A    
C224  C236  A    
C166  C180  A    
C88   H56   S    
C209  C225  A    
C28   H44   S    
C266  H141  S    
C42   C54   A    
C27   H43   S    
C208  C248  S    
C202  C218  A    
C32   C48   A    
C40   C50   A    
C44   Br12  S    
C38   C52   A    
C145  O33   S    
C127  O31   A    
N12   N28   A    
C126  O28   A    
C101  C113  A    
C5    O13   A    
C65   N29   A    
C212  C228  A    
C27   C43   A    
C91   C135  A    
C146  N2    A    
C151  O39   S    
O63   Zn12  S    
O24   Zn4   S    
C265  H139  S    
C30   H46   S    
C119  C142  S    
C7    O11   A    
O59   Zn11  S    
O7    Zn1   S    
C17   C57   A    
C54   C78   S    
C140  O52   A    
N19   N35   A    
C226  C238  A    
C245  H77   S    
C53   C77   S    
C88   C130  A    
O14   Zn6   S    
C69   N37   A    
C9    N8    S    
C83   C131  A    
C10   N7    S    
C96   C112  A    
C258  H116  S    
C72   N36   A    
C11   N6    S    
C81   C97   A    
C92   H60   S    
C215  C231  A    
C12   C208  A    
C220  C234  A    
C51   C75   S    
O28   Zn8   S    
C269  H151  S    
C123  O23   A    
C209  C249  S    
C71   C135  S    
C72   C136  S    
C76   N14   A    
C227  C237  A    
C37   C49   A    
C231  C239  A    
C260  H122  S    
C247  H84   S    
C142  O58   A    
O26   Zn6   S    
C9    C203  A    
C268  H147  S    
C81   C129  A    
C174  C198  A    
C160  N8    A    
C19   H35   S    
O10   Zn6   S    
N13   N29   A    
C124  O22   A    
C156  O44   S    
C195  H11   S    
C98   C258  S    
C94   C136  A    
C264  H135  S    
C37   Br5   S    
C193  H9    S    
C185  C198  A    
C82   C130  A    
C82   H50   S    
C262  H128  S    
C159  N7    A    
C272  H160  S    
C16   C216  A    
C8    O12   A    
C70   N40   A    
O53   Zn10  S    
C241  H66   S    
C211  C227  A    
C139  O53   A    
O16   Zn8   S    
O17   Zn1   S    
C268  H146  S    
C271  H156  S    
C251  H96   S    
C85   H53   S    
C150  O38   S    
C162  C178  A    
C14   C210  A    
C189  H5    S    
C9    C201  A    
C24   C58   A    
C143  O61   A    
C102  C116  A    
C218  C234  A    
C255  H107  S    
C258  H117  S    
C110  C120  A    
C162  C186  A    
C20   C36   A    
C188  C199  A    
O18   Zn2   S    
C254  H104  S    
C256  H112  S    
C87   H55   S    
C231  H31   S    
C166  C190  A    
C126  O26   A    
C73   N9    A    
C19   C59   A    
C21   C57   A    
C168  C180  A    
C65   C129  S    
C105  C265  S    
N17   N33   A    
O20   Zn4   S    
C115  C138  S    
O31   Zn5   S    
C128  O30   A    
C153  C171  A    
C232  H32   S    
C252  H98   S    
C113  C140  S    
C154  C172  A    
O61   Zn12  S    
C18   C34   A    
C111  C119  A    
C223  C235  A    
C157  C175  A    
N23   N39   A    
C148  C162  A    
C67   N27   A    
C158  C176  A    
C248  H86   S    
C257  H114  S    
C159  C173  A    
C80   N20   A    
C257  H115  S    
C219  H19   S    
C97   C113  A    
C66   N26   A    
N21   N37   A    
N10   N26   A    
C3    O3    A    
C172  C182  A    
C174  C184  A    
C258  H118  S    
C69   C133  S    
C157  N7    A    
C158  N8    A    
C67   C131  S    
C123  O21   A    
C102  C262  S    
C46   C56   A    
O2    Zn2   S    
O54   Zn10  S    
C75   N15   A    
C31   C63   A    
C96   H64   S    
C147  N1    A    
C151  N3    A    
C12   N5    S    
C86   C132  A    
C203  C219  A    
C260  H124  S    
C26   C62   A    
C201  C217  A    
C267  H144  S    
C7    O15   A    
C112  C118  A    
C90   H58   S    
C246  H80   S    
C10   C204  A    
C23   C39   A    
C205  C221  A    
C270  H154  S    
C71   N35   A    
C68   N30   A    
C249  H89   S    
C124  O24   A    
C262  H130  S    
C103  C263  S    
C188  H4    S    
C197  H13   S    
C244  H74   S    
C138  O54   A    
C232  C240  A    
C139  O51   A    
C216  C232  A    
C18   H34   S    
C257  H113  S    
C25   H41   S    
C185  H1    S    
C5    C61   S    
C66   C130  S    
C3    C59   S    
