data_mof_unit_18570.cif
_audit_creation_date              2013-03-05T15:42:07-0500
_audit_creation_method            fapswitch 2.2
_symmetry_space_group_name_H-M    P1
_symmetry_Int_Tables_number       1
_space_group_crystal_system       triclinic
_cell_length_a                    21.966865
_cell_length_b                    7.209076
_cell_length_c                    14.934752
_cell_angle_alpha                 89.99855
_cell_angle_beta                  107.266263
_cell_angle_gamma                 90.000661
_cell_volume                      2258.4987036

loop_
_atom_site_label
_atom_site_type_symbol
_atom_site_description
_atom_site_fract_x
_atom_site_fract_y
_atom_site_fract_z
_atom_type_partial_charge
O1    O     O_R   0.584770 0.505770 0.002090 -0.541162
O2    O     O_R   0.415230 0.005770 0.997910 -0.541132
O3    O     O_R   0.467060 0.173340 0.861950 -0.537319
O4    O     O_R   0.532940 0.673340 0.138050 -0.537241
C1    C     C_R   0.455355 0.344992 0.825843 0.946338
C2    C     C_R   0.544642 0.844991 0.174158 0.946217
O5    O     O_R   0.587510 0.175890 0.993210 -0.570319
O6    O     O_R   0.412490 0.675890 0.006790 -0.570306
O7    O     O_R   0.536540 0.008150 0.130100 -0.555500
O8    O     O_R   0.463460 0.508150 0.869900 -0.555553
C3    C     C_R   0.612977 0.344937 0.997513 0.856351
C4    C     C_R   0.387023 0.844936 0.002487 0.856318
O9    O     O_3   0.483140 0.340040 0.044760 -0.286983
O10   O     O_3   0.516860 0.840040 0.955240 -0.287062
V1    V     V_3+5 0.503130 0.064190 0.991700 1.226588
V2    V     V_3+5 0.496870 0.564190 0.008300 1.226615
C5    C     C_2   0.213884 0.727629 0.002775 -0.059099
C6    C     C_2   0.786115 0.227628 0.997222 -0.059077
C7    C     C_2   0.180292 0.886755 0.996232 -0.146843
C8    C     C_2   0.819708 0.386753 0.003767 -0.146844
H1    H     H_    0.190718 0.596745 0.008048 0.109095
H2    H     H_    0.809280 0.096745 0.991947 0.109089
H3    H     H_    0.201915 0.019065 0.989770 0.080317
H4    H     H_    0.798086 0.519063 0.010230 0.080294
C9    C     C_2   0.281767 0.714703 0.002601 -0.078693
C10   C     C_2   0.718232 0.214704 0.997396 -0.078690
C11   C     C_2   0.319920 0.861461 0.003354 -0.152006
C12   C     C_2   0.680080 0.361463 0.996645 -0.151986
H5    H     H_    0.300850 0.575754 0.002538 0.112587
H6    H     H_    0.699147 0.075755 0.997457 0.112545
H7    H     H_    0.302080 0.001243 0.004230 0.086080
H8    H     H_    0.697921 0.501246 0.995771 0.086041
C13   C     C_R   0.929342 0.879301 0.722856 -0.170693
C14   C     C_R   0.070657 0.379294 0.277145 -0.170693
C15   C     C_R   0.573263 0.860772 0.275739 -0.202113
C16   C     C_R   0.426723 0.360765 0.724265 -0.202137
C17   C     C_R   0.933561 0.750218 0.573955 0.356429
C18   C     C_R   0.066447 0.250248 0.426066 0.356392
C19   C     C_R   0.962723 0.782350 0.670398 0.271150
C20   C     C_R   0.037293 0.282246 0.329605 0.271095
C21   C     C_R   0.866004 0.931513 0.681373 -0.128535
C22   C     C_R   0.133987 0.431617 0.318629 -0.128507
C23   C     C_R   0.834339 0.891972 0.586281 -0.052026
C24   C     C_R   0.165654 0.392099 0.413722 -0.052054
C25   C     C_R   0.870932 0.817203 0.530802 -0.141894
C26   C     C_R   0.129058 0.317382 0.469216 -0.141910
C27   C     C_R   0.767213 0.919656 0.544863 0.041470
C28   C     C_R   0.232782 0.419749 0.455130 0.041452
C29   C     C_R   0.739055 0.883098 0.447234 -0.029346
C30   C     C_R   0.260928 0.383336 0.552781 -0.029362
C31   C     C_R   0.780106 0.850897 0.392274 -0.066435
C32   C     C_R   0.219862 0.351331 0.607751 -0.066420
C33   C     C_R   0.844351 0.814937 0.432911 0.686651
C34   C     C_R   0.155620 0.315311 0.567113 0.686757
C35   C     C_R   0.727070 0.977847 0.597945 -0.041440
C36   C     C_R   0.272941 0.477688 0.402012 -0.041461
C37   C     C_R   0.661955 0.999940 0.557028 -0.035593
C38   C     C_R   0.338062 0.499668 0.442917 -0.035565
C39   C     C_R   0.633594 0.956227 0.462967 -0.077477
C40   C     C_R   0.366411 0.456078 0.537002 -0.077481
C41   C     C_R   0.671224 0.889645 0.407182 0.005018
C42   C     C_R   0.328761 0.389771 0.592830 0.004977
C43   C     C_R   0.567506 0.978209 0.424441 -0.113867
C44   C     C_R   0.432509 0.477870 0.575506 -0.113847
C45   C     C_R   0.537870 0.936402 0.330672 0.501191
C46   C     C_R   0.462139 0.436121 0.669289 0.501132
C47   C     C_R   0.638812 0.829885 0.314361 0.463920
C48   C     C_R   0.361156 0.330104 0.685678 0.463937
H9    H     H_    0.633222 0.048071 0.600202 0.095692
H10   H     H_    0.366810 0.547571 0.399710 0.095636
H11   H     H_    0.842289 0.997883 0.726404 0.071512
H12   H     H_    0.157697 0.498067 0.273608 0.071544
H13   H     H_    0.764243 0.858194 0.316910 0.195395
H14   H     H_    0.235715 0.358787 0.683115 0.195423
H15   H     H_    0.744251 0.007088 0.671859 0.060692
H16   H     H_    0.255767 0.506747 0.328072 0.060674
H17   H     H_    0.538921 0.032291 0.466520 0.123390
H18   H     H_    0.461111 0.531725 0.533392 0.123377
O11   O     O_R   0.036450 0.233070 0.130130 -0.557131
O12   O     O_R   0.963550 0.733070 0.869870 -0.557168
O13   O     O_R   0.912470 0.560570 0.006790 -0.557814
O14   O     O_R   0.087530 0.060570 0.993210 -0.557796
C49   C     C_R   0.886985 0.391907 0.002534 0.861035
C50   C     C_R   0.113014 0.891908 0.997465 0.861008
O15   O     O_R   0.032920 0.562940 0.138050 -0.543201
O16   O     O_R   0.967080 0.062940 0.861950 -0.543190
O17   O     O_R   0.084790 0.730500 0.002090 -0.559444
O18   O     O_R   0.915210 0.230500 0.997910 -0.559413
C51   C     C_R   0.044523 0.393747 0.174731 0.875754
C52   C     C_R   0.955477 0.893751 0.825269 0.875728
O19   O     O_3   0.016820 0.396170 0.955260 -0.272306
O20   O     O_3   0.983180 0.896170 0.044740 -0.272286
V3    V     V_3+5 0.996880 0.672090 0.008300 1.221140
V4    V     V_3+5 0.003120 0.172090 0.991700 1.221174
N1    N     N_R   0.024938 0.708912 0.716259 0.119984
O21   O     O_R   0.070018 0.817584 0.764701 -0.319962
O22   O     O_R   0.034990 0.531012 0.716632 -0.244574
N2    N     N_R   0.975114 0.208548 0.283736 0.120025
O23   O     O_R   0.929995 0.316988 0.235188 -0.320085
O24   O     O_R   0.965136 0.030618 0.283490 -0.244610
F1    F     F_    0.880943 0.788040 0.374980 -0.583369
F2    F     F_    0.119011 0.288558 0.625041 -0.583253
F3    F     F_    0.668708 0.736057 0.260759 -0.713211
F4    F     F_    0.331231 0.236561 0.739340 -0.713228
F5    F     F_    0.474545 0.969784 0.293265 -0.704944
F6    F     F_    0.525482 0.469280 0.706663 -0.704980
N3    N     N_R   0.964279 0.632147 0.522626 0.163193
O25   O     O_R   0.025007 0.645975 0.533006 -0.229162
O26   O     O_R   0.932449 0.496986 0.472288 -0.258327
N4    N     N_R   0.035742 0.132182 0.477425 0.163162
O27   O     O_R   0.974997 0.145821 0.466950 -0.229169
O28   O     O_R   0.067614 0.997243 0.527918 -0.258284

loop_
_geom_bond_atom_site_label_1
_geom_bond_atom_site_label_2
_geom_bond_distance
_ccdc_geom_bond_type
C43   C45   1.390919 A    
O14   V4    2.014995 S    
N3    O26   1.300571 A    
N1    O21   1.300968 A    
C14   C22   1.396358 A    
C50   O17   1.329868 A    
O2    C4    1.325929 A    
C2    O7    1.333634 A    
C47   F3    1.357116 S    
C27   C29   1.429211 A    
C16   C48   1.400956 A    
O5    C3    1.334510 A    
C13   C19   1.407496 A    
C14   C20   1.407595 A    
C17   N3    1.440348 S    
C32   H14   1.076260 S    
C20   N2    1.435870 S    
C16   C46   1.397726 A    
C37   C39   1.393301 A    
C15   C45   1.397653 A    
C38   C40   1.393384 A    
C1    C16   1.464087 S    
C2    C15   1.464101 S    
C40   C42   1.420207 A    
N4    O27   1.300314 A    
O16   V4    2.022450 S    
O15   V3    2.022421 S    
C8    H4    1.082559 S    
C24   C26   1.420831 A    
C29   C31   1.407205 A    
C6    C10   1.494856 S    
C30   C32   1.407324 A    
N3    O25   1.300298 A    
C18   N4    1.440412 S    
C21   H11   1.077307 S    
C35   H15   1.076168 S    
C28   C30   1.429259 A    
C49   O18   1.329876 A    
C25   C33   1.404213 A    
O6    V2    2.014912 S    
C21   C23   1.412651 A    
C22   C24   1.412622 A    
C46   F6    1.357863 S    
C45   F5    1.357849 S    
C10   C12   1.347689 D    
O13   C49   1.332188 A    
C32   C34   1.385218 A    
C9    H5    1.085984 S    
O18   V4    2.005350 S    
C39   C41   1.420083 A    
C29   C41   1.432183 A    
C4    C11   1.482735 S    
C11   H7    1.082708 S    
C31   H13   1.076208 S    
C12   H8    1.082708 S    
O11   V4    2.026084 S    
O4    C2    1.343833 A    
O16   C52   1.330363 A    
C33   F1    1.358349 S    
O15   C51   1.330366 A    
C38   H10   1.084576 S    
C5    H1    1.085923 S    
C31   C33   1.385183 A    
C44   C46   1.390966 A    
O4    V2    2.022522 S    
C7    H3    1.082553 S    
O13   V3    2.014981 S    
C41   C47   1.424198 A    
C15   C47   1.400938 A    
O6    C4    1.334513 A    
C26   C34   1.404257 A    
C22   H12   1.077362 S    
O1    V2    2.005150 S    
O2    V1    2.005142 S    
C23   C25   1.420788 A    
C19   N1    1.435791 S    
C10   H6    1.085983 S    
O14   C50   1.332193 A    
C36   H16   1.076253 S    
C35   C37   1.387754 A    
C30   C42   1.432198 A    
C8    C49   1.483907 S    
C17   C25   1.419481 A    
C7    C50   1.483909 S    
O3    V1    2.022490 S    
C27   C35   1.413190 A    
C43   H17   1.084199 S    
C28   C36   1.413308 A    
C6    H2    1.085928 S    
C44   H18   1.084260 S    
C34   F2    1.358437 S    
C48   F4    1.357166 S    
O3    C1    1.343819 A    
N1    O22   1.301098 A    
C9    C11   1.347681 D    
C39   C43   1.402817 A    
C42   C48   1.424245 A    
C40   C44   1.402834 A    
C13   C21   1.396289 A    
O7    V1    2.018331 S    
C14   C51   1.469231 S    
C5    C9    1.494857 S    
C1    O8    1.333646 A    
C17   C19   1.411004 A    
O8    V2    2.018347 S    
C13   C52   1.469225 S    
O19   V4    1.758825 S    
C18   C20   1.411033 A    
C3    C12   1.482734 S    
O17   V3    2.005339 S    
O5    V1    2.014891 S    
O20   V3    1.758857 S    
C5    C7    1.351750 D    
C36   C38   1.387769 A    
C6    C8    1.351745 D    
O12   C52   1.321657 A    
N2    O24   1.301120 A    
N4    O28   1.300666 A    
C18   C26   1.419507 A    
N2    O23   1.300992 A    
O9    V2    1.759569 S    
O10   V1    1.759600 S    
O11   C51   1.321664 A    
O1    C3    1.325938 A    
C37   H9    1.084502 S    
O12   V3    2.026063 S    
C23   C27   1.433619 A    
C24   C28   1.433617 A    
