data_mof_unit_63624.cif
_audit_creation_date              2012-12-10T20:37:27-0500
_audit_creation_method            fapswitch 2.2
_symmetry_space_group_name_H-M    P1
_symmetry_Int_Tables_number       1
_space_group_crystal_system       triclinic
_cell_length_a                    36.039641
_cell_length_b                    39.780181
_cell_length_c                    26.839927
_cell_angle_alpha                 89.998544
_cell_angle_beta                  132.177267
_cell_angle_gamma                 90.002012
_cell_volume                      28515.9858844

loop_
_atom_site_label
_atom_site_type_symbol
_atom_type_description
_atom_site_fract_x
_atom_site_fract_y
_atom_site_fract_z
_atom_type_partial_charge
C1    C     C_R   0.400176 0.749976 0.000038 0.507636
C2    C     C_3   0.746241 0.719337 0.017190 -0.099786
C3    C     C_R   0.205069 0.271408 0.362397 -0.116533
C4    C     C_R   0.705068 0.228593 0.362397 -0.116530
C5    C     C_R   0.294932 0.771407 0.637603 -0.116530
C6    C     C_R   0.294931 0.228592 0.637602 -0.116533
C7    C     C_R   0.705069 0.771408 0.362397 -0.116532
C8    C     C_R   0.198789 0.750005 0.397579 0.037734
C9    C     C_R   0.801211 0.249995 0.602420 0.037734
C10   C     C_R   0.801211 0.750005 0.602420 0.037735
C11   C     C_R   0.198788 0.249995 0.397580 0.037735
C12   C     C_R   0.698789 0.250005 0.397579 0.037734
C13   C     C_3   0.745879 0.280752 0.016492 -0.099771
C14   C     C_R   0.301211 0.749995 0.602420 0.037734
C15   C     C_R   0.301212 0.250005 0.602420 0.037735
C16   C     C_R   0.698788 0.749995 0.397580 0.037735
C17   C     C_1   0.234872 0.750001 0.469751 -0.030102
C18   C     C_1   0.765128 0.249999 0.530249 -0.030101
C19   C     C_1   0.765128 0.750001 0.530249 -0.030104
C20   C     C_1   0.234872 0.249999 0.469751 -0.030104
C21   C     C_1   0.734872 0.250001 0.469751 -0.030101
C22   C     C_1   0.265128 0.749999 0.530249 -0.030102
C23   C     C_1   0.265128 0.250001 0.530249 -0.030104
C24   C     C_3   0.254121 0.719248 0.983508 -0.099771
C25   C     C_1   0.734872 0.749999 0.469751 -0.030104
C26   C     C_R   0.497660 0.431214 0.042945 -0.116612
C27   C     C_R   0.502340 0.568786 0.957055 -0.116611
C28   C     C_R   0.502302 0.431216 0.957017 -0.116609
C29   C     C_R   0.497698 0.568784 0.042983 -0.116610
C30   C     C_R   0.997660 0.931214 0.042945 -0.116611
C31   C     C_R   0.002340 0.068786 0.957055 -0.116612
C32   C     C_R   0.002302 0.931216 0.957017 -0.116610
C33   C     C_R   0.997698 0.068784 0.042983 -0.116609
C34   C     C_R   0.497650 0.396107 0.042984 -0.127169
C35   C     C_3   0.753759 0.780663 0.982810 -0.099786
C36   C     C_R   0.502350 0.603893 0.957016 -0.127168
C37   C     C_R   0.502294 0.396109 0.956961 -0.127169
C38   C     C_R   0.497706 0.603891 0.043039 -0.127171
C39   C     C_R   0.997650 0.896107 0.042984 -0.127168
C40   C     C_R   0.002350 0.103893 0.957016 -0.127169
C41   C     C_R   0.002294 0.896109 0.956961 -0.127170
C42   C     C_R   0.997706 0.103891 0.043039 -0.127170
C43   C     C_R   0.499970 0.378211 0.999970 0.032154
C44   C     C_R   0.500029 0.621789 0.000030 0.032154
C45   C     C_R   0.999971 0.878211 0.999970 0.032154
C46   C     C_3   0.245492 0.219136 0.015690 -0.099772
C47   C     C_R   0.000029 0.121789 0.000030 0.032154
C48   C     C_R   0.499987 0.448797 0.999987 0.037748
C49   C     C_R   0.500013 0.551203 0.000013 0.037748
C50   C     C_R   0.999987 0.948797 0.999987 0.037748
C51   C     C_R   0.000013 0.051203 0.000013 0.037748
C52   C     C_1   0.499996 0.484878 0.999996 -0.030110
C53   C     C_1   0.500004 0.515122 0.000004 -0.030110
C54   C     C_1   0.999996 0.984878 0.999996 -0.030110
C55   C     C_1   0.000004 0.015122 0.000004 -0.030110
C56   C     C_R   0.500026 0.658893 0.000026 0.502113
C57   C     C_3   0.245879 0.780752 0.016492 -0.099771
C58   C     C_R   0.499973 0.341107 0.999973 0.502113
C59   C     C_R   0.000026 0.158893 0.000026 0.502113
C60   C     C_R   0.999973 0.841107 0.999973 0.502113
C61   C     C_R   0.500001 0.841047 0.000016 0.502146
C62   C     C_R   0.499999 0.158953 0.999984 0.502146
C63   C     C_R   0.000001 0.341047 0.000016 0.502146
C64   C     C_R   0.999999 0.658953 0.999984 0.502146
C65   C     C_R   0.454714 0.068811 0.957091 -0.116529
C66   C     C_R   0.545286 0.931189 0.042909 -0.116530
C67   C     C_R   0.545286 0.068813 0.042871 -0.116532
C68   C     C_3   0.754121 0.219248 0.983508 -0.099771
C69   C     C_R   0.454714 0.931187 0.957129 -0.116531
C70   C     C_R   0.954714 0.568811 0.957091 -0.116530
C71   C     C_R   0.045286 0.431189 0.042909 -0.116529
C72   C     C_R   0.045286 0.568813 0.042871 -0.116531
C73   C     C_R   0.954714 0.431187 0.957129 -0.116532
C74   C     C_R   0.454665 0.103924 0.957034 -0.127109
C75   C     C_R   0.545335 0.896076 0.042966 -0.127111
C76   C     C_R   0.545336 0.103926 0.042912 -0.127109
C77   C     C_R   0.454664 0.896074 0.957088 -0.127108
C78   C     C_R   0.954665 0.603924 0.957034 -0.127111
C79   C     C_3   0.706780 0.757883 0.938307 -0.099762
C80   C     C_R   0.045335 0.396076 0.042966 -0.127109
C81   C     C_R   0.045336 0.603926 0.042912 -0.127108
C82   C     C_R   0.954664 0.396074 0.957088 -0.127109
C83   C     C_R   0.500000 0.121833 0.999972 0.032071
C84   C     C_R   0.500000 0.878167 0.000028 0.032071
C85   C     C_R   1.000000 0.621833 0.999972 0.032071
C86   C     C_R   0.000000 0.378167 0.000028 0.032071
C87   C     C_R   0.500000 0.051221 0.999986 0.037732
C88   C     C_R   0.500000 0.948779 0.000013 0.037732
C89   C     C_R   0.000000 0.551221 0.999986 0.037732
C90   C     C_3   0.293019 0.241367 0.061290 -0.099776
C91   C     C_R   1.000000 0.448779 0.000013 0.037732
C92   C     C_1   0.500000 0.015126 0.999996 -0.030088
C93   C     C_1   0.500000 0.984873 0.000004 -0.030088
C94   C     C_1   1.000000 0.515126 0.999996 -0.030088
C95   C     C_1   0.000000 0.484874 0.000004 -0.030088
C96   C     C_3   0.293117 0.758233 0.061513 -0.099772
C97   C     C_R   0.599824 0.250024 0.999962 0.507637
C98   C     C_3   0.706882 0.241767 0.938487 -0.099772
C99   C     C_3   0.206981 0.258633 0.938710 -0.099776
C100  C     C_3   0.793220 0.742117 0.061693 -0.099762
C101  C     C_3   0.793117 0.258233 0.061513 -0.099772
C102  C     C_3   0.206882 0.741767 0.938487 -0.099772
C103  C     C_1   0.639586 0.749959 0.999992 -0.004054
C104  C     C_1   0.360414 0.250041 0.000007 -0.004055
C105  C     C_1   0.360440 0.749980 0.000058 -0.004051
C106  C     C_1   0.639560 0.250020 0.999942 -0.004050
C107  C     C_1   0.139586 0.249959 0.999993 -0.004055
C108  C     C_R   0.599852 0.749952 0.000014 0.507621
C109  C     C_1   0.860414 0.750041 0.000008 -0.004055
C110  C     C_1   0.860440 0.249980 0.000058 -0.004051
C111  C     C_1   0.139560 0.750020 0.999942 -0.004050
C112  C     C_3   0.759890 0.772770 0.044513 -0.099222
C113  C     C_3   0.239561 0.227779 0.954389 -0.099222
C114  C     C_3   0.239861 0.772521 0.954987 -0.099221
C115  C     C_3   0.760139 0.227479 0.045013 -0.099221
C116  C     C_3   0.260439 0.272220 0.045611 -0.099222
C117  C     C_3   0.740110 0.727230 0.955486 -0.099222
C118  C     C_3   0.739861 0.272521 0.954987 -0.099221
C119  C     C_R   0.400148 0.250048 0.999985 0.507620
C120  C     C_3   0.260139 0.727479 0.045013 -0.099221
C121  C     C_3   0.713553 0.749990 0.000003 0.049069
C122  C     C_3   0.286447 0.250010 0.999997 0.049069
C123  C     C_3   0.286457 0.750001 0.000016 0.049056
C124  C     C_3   0.713543 0.249998 0.999984 0.049056
C125  C     C_3   0.213553 0.249990 0.000003 0.049069
C126  C     C_3   0.786447 0.750010 0.999997 0.049069
C127  C     C_3   0.786457 0.250002 0.000016 0.049056
C128  C     C_3   0.213543 0.749998 0.999984 0.049056
C129  C     C_1   0.672973 0.749973 0.000017 -0.058705
C130  C     C_R   0.900176 0.249976 0.000038 0.507636
C131  C     C_1   0.327027 0.250028 0.999983 -0.058705
C132  C     C_1   0.327047 0.749992 0.000022 -0.058705
C133  C     C_1   0.672953 0.250008 0.999978 -0.058706
C134  C     C_1   0.172973 0.249972 0.000017 -0.058705
C135  C     C_1   0.827027 0.750027 0.999983 -0.058705
C136  C     C_1   0.827047 0.249992 0.000022 -0.058705
C137  C     C_1   0.172953 0.750008 0.999978 -0.058706
C138  C     C_R   0.157328 0.771427 0.362411 -0.116584
C139  C     C_R   0.842672 0.228573 0.637589 -0.116583
C140  C     C_R   0.842673 0.771428 0.637588 -0.116587
C141  C     C_R   0.099824 0.750024 0.999962 0.507637
C142  C     C_R   0.157327 0.228572 0.362412 -0.116586
C143  C     C_R   0.657328 0.271427 0.362411 -0.116583
C144  C     C_R   0.342672 0.728572 0.637589 -0.116584
C145  C     C_R   0.342673 0.271428 0.637588 -0.116586
C146  C     C_R   0.657327 0.728572 0.362412 -0.116587
C147  C     C_R   0.122193 0.771460 0.292189 -0.127098
C148  C     C_R   0.877806 0.228539 0.707811 -0.127097
C149  C     C_R   0.877808 0.771461 0.707810 -0.127104
C150  C     C_R   0.122192 0.228539 0.292190 -0.127104
C151  C     C_R   0.622194 0.271461 0.292189 -0.127097
C152  C     C_R   0.099852 0.249952 0.000014 0.507621
C153  C     C_R   0.377806 0.728539 0.707811 -0.127098
C154  C     C_R   0.377808 0.271461 0.707810 -0.127104
C155  C     C_R   0.622192 0.728539 0.292190 -0.127104
C156  C     C_R   0.128193 0.750026 0.256387 0.032097
C157  C     C_R   0.871807 0.249974 0.743613 0.032096
C158  C     C_R   0.871806 0.750025 0.743613 0.032099
C159  C     C_R   0.128193 0.249974 0.256387 0.032100
C160  C     C_R   0.628193 0.250026 0.256387 0.032096
C161  C     C_R   0.371806 0.749974 0.743613 0.032097
C162  C     C_R   0.371806 0.250025 0.743613 0.032100
C163  C     C_R   0.900148 0.750048 0.999986 0.507620
C164  C     C_R   0.628193 0.749974 0.256387 0.032099
C165  C     C_R   0.169984 0.728577 0.292176 -0.127144
C166  C     C_R   0.830016 0.271423 0.707824 -0.127145
C167  C     C_R   0.830015 0.728576 0.707823 -0.127149
C168  C     C_R   0.169985 0.271424 0.292177 -0.127151
C169  C     C_R   0.669984 0.228577 0.292176 -0.127145
C170  C     C_R   0.330016 0.771423 0.707824 -0.127144
C171  C     C_R   0.330015 0.228576 0.707823 -0.127150
C172  C     C_R   0.669985 0.771424 0.292177 -0.127149
C173  C     C_R   0.591096 0.749959 0.182180 0.502046
C174  C     C_3   0.254508 0.280864 0.984310 -0.099772
C175  C     C_R   0.408903 0.250041 0.817820 0.502046
C176  C     C_R   0.408904 0.749959 0.817821 0.502069
C177  C     C_R   0.591096 0.250041 0.182179 0.502069
C178  C     C_R   0.091096 0.249959 0.182180 0.502046
C179  C     C_R   0.908903 0.750041 0.817820 0.502045
C180  C     C_R   0.908904 0.249959 0.817821 0.502069
C181  C     C_R   0.091096 0.750041 0.182179 0.502069
C182  C     C_R   0.205068 0.728592 0.362397 -0.116530
C183  C     C_R   0.794932 0.271407 0.637603 -0.116530
C184  C     C_R   0.794931 0.728592 0.637602 -0.116533
H1    H     H_    0.419463 0.055392 0.923712 0.110121
H2    H     H_    0.504148 0.555367 0.923613 0.110127
H3    H     H_    0.504116 0.444637 0.923581 0.110126
H4    H     H_    0.495884 0.555363 0.076419 0.110126
H5    H     H_    0.995852 0.944633 0.076386 0.110127
H6    H     H_    0.004148 0.055367 0.923613 0.110125
H7    H     H_    0.004116 0.944637 0.923581 0.110126
H8    H     H_    0.995884 0.055363 0.076419 0.110127
H9    H     H_    0.495820 0.382992 0.076630 0.132582
H10   H     H_    0.504180 0.617008 0.923370 0.132586
H11   H     H_    0.504119 0.382995 0.923310 0.132580
H12   H     H_    0.580537 0.944608 0.076287 0.110119
H13   H     H_    0.495881 0.617005 0.076690 0.132581
H14   H     H_    0.995820 0.882992 0.076630 0.132586
H15   H     H_    0.004179 0.117008 0.923370 0.132583
H16   H     H_    0.004119 0.882995 0.923310 0.132581
H17   H     H_    0.995881 0.117005 0.076690 0.132581
H18   H     H_    0.419188 0.117034 0.923438 0.132491
H19   H     H_    0.580812 0.882966 0.076561 0.132488
H20   H     H_    0.580813 0.117037 0.076503 0.132493
H21   H     H_    0.419187 0.882963 0.923497 0.132493
H22   H     H_    0.919188 0.617034 0.923439 0.132488
H23   H     H_    0.580537 0.055395 0.076256 0.110120
H24   H     H_    0.080812 0.382966 0.076562 0.132492
H25   H     H_    0.080813 0.617037 0.076503 0.132494
H26   H     H_    0.919187 0.382963 0.923497 0.132493
H27   H     H_    0.670777 0.764377 0.887584 0.107853
H28   H     H_    0.328856 0.234256 0.111680 0.107840
H29   H     H_    0.329041 0.765007 0.112098 0.107839
H30   H     H_    0.670959 0.234993 0.887902 0.107839
H31   H     H_    0.171144 0.265744 0.888320 0.107840
H32   H     H_    0.829223 0.735623 0.112416 0.107853
H33   H     H_    0.829041 0.265007 0.112098 0.107839
H34   H     H_    0.419463 0.944605 0.923744 0.110120
H35   H     H_    0.170959 0.734993 0.887902 0.107839
H36   H     H_    0.258688 0.306239 0.971391 0.107841
H37   H     H_    0.742678 0.694127 0.031342 0.107828
H38   H     H_    0.742002 0.306032 0.030061 0.107854
H39   H     H_    0.257998 0.693968 0.969939 0.107854
H40   H     H_    0.757322 0.805873 0.968658 0.107828
H41   H     H_    0.241312 0.193761 0.028609 0.107841
H42   H     H_    0.242002 0.806032 0.030061 0.107854
H43   H     H_    0.757998 0.193968 0.969939 0.107854
H44   H     H_    0.231447 0.209502 0.916888 0.108260
H45   H     H_    0.919463 0.555392 0.923712 0.110119
H46   H     H_    0.767553 0.791500 0.081112 0.108260
H47   H     H_    0.768027 0.208959 0.082046 0.108258
H48   H     H_    0.231973 0.791041 0.917954 0.108258
H49   H     H_    0.732447 0.708500 0.918887 0.108260
H50   H     H_    0.268553 0.290498 0.083112 0.108260
H51   H     H_    0.268027 0.708959 0.082046 0.108258
H52   H     H_    0.731973 0.291041 0.917954 0.108258
H53   H     H_    0.152169 0.788093 0.389262 0.110117
H54   H     H_    0.847830 0.211907 0.610738 0.110119
H55   H     H_    0.847832 0.788094 0.610738 0.110117
H56   H     H_    0.080537 0.444608 0.076288 0.110121
H57   H     H_    0.152167 0.211906 0.389262 0.110116
H58   H     H_    0.652169 0.288093 0.389262 0.110119
H59   H     H_    0.347831 0.711907 0.610738 0.110118
H60   H     H_    0.347832 0.288094 0.610738 0.110116
H61   H     H_    0.652168 0.711906 0.389262 0.110117
H62   H     H_    0.090357 0.788238 0.265975 0.132508
H63   H     H_    0.909643 0.211762 0.734025 0.132512
H64   H     H_    0.909645 0.788239 0.734025 0.132503
H65   H     H_    0.090355 0.211761 0.265975 0.132503
H66   H     H_    0.590357 0.288238 0.265975 0.132512
H67   H     H_    0.080537 0.555395 0.076256 0.110120
H68   H     H_    0.409643 0.711762 0.734025 0.132508
H69   H     H_    0.409645 0.288239 0.734025 0.132503
H70   H     H_    0.590355 0.711760 0.265975 0.132503
H71   H     H_    0.175566 0.711805 0.265929 0.132497
H72   H     H_    0.824434 0.288195 0.734071 0.132497
H73   H     H_    0.824432 0.711804 0.734071 0.132493
H74   H     H_    0.175568 0.288196 0.265929 0.132490
H75   H     H_    0.675565 0.211805 0.265929 0.132498
H76   H     H_    0.324434 0.788195 0.734071 0.132497
H77   H     H_    0.324432 0.211804 0.734071 0.132490
H78   H     H_    0.919463 0.444605 0.923744 0.110120
H79   H     H_    0.675568 0.788196 0.265929 0.132493
H80   H     H_    0.237072 0.711920 0.389227 0.110106
H81   H     H_    0.762927 0.288080 0.610773 0.110107
H82   H     H_    0.762925 0.711918 0.610773 0.110106
H83   H     H_    0.237075 0.288082 0.389227 0.110104
H84   H     H_    0.737072 0.211920 0.389227 0.110107
H85   H     H_    0.262927 0.788080 0.610773 0.110106
H86   H     H_    0.262925 0.211918 0.610773 0.110104
H87   H     H_    0.737075 0.788082 0.389227 0.110105
H88   H     H_    0.495852 0.444633 0.076386 0.110125
O1    O     O_3   0.500000 0.749970 0.000000 -0.427717
O2    O     O_R   0.101800 0.730420 0.039220 -0.538035
O3    O     O_R   0.101800 0.269580 0.039220 -0.538032
O4    O     O_R   0.898200 0.730420 0.960780 -0.538032
O5    O     O_R   0.553280 0.730340 0.149660 -0.545764
O6    O     O_R   0.446720 0.269660 0.850340 -0.545764
O7    O     O_R   0.446720 0.730340 0.850340 -0.545733
O8    O     O_R   0.553280 0.269660 0.149660 -0.545732
O9    O     O_R   0.053280 0.230340 0.149660 -0.545764
O10   O     O_R   0.946720 0.769660 0.850340 -0.545764
O11   O     O_R   0.946720 0.230340 0.850340 -0.545732
O12   O     O_3   0.500000 0.250030 0.000000 -0.427716
O13   O     O_R   0.053280 0.769660 0.149660 -0.545733
O14   O     O_R   0.498080 0.675140 0.039250 -0.545871
O15   O     O_R   0.501920 0.324860 0.960750 -0.545870
O16   O     O_R   0.501920 0.675140 0.960750 -0.545873
O17   O     O_R   0.498080 0.324860 0.039250 -0.545875
O18   O     O_R   0.998080 0.175140 0.039250 -0.545870
O19   O     O_R   0.001920 0.824860 0.960750 -0.545871
O20   O     O_R   0.001920 0.175140 0.960750 -0.545875
O21   O     O_R   0.998080 0.824860 0.039250 -0.545873
O22   O     O_R   0.458830 0.824790 0.960760 -0.545824
O23   O     O_3   1.000000 0.249970 0.000000 -0.427716
O24   O     O_R   0.541170 0.175210 0.039240 -0.545824
O25   O     O_R   0.541170 0.824790 0.039240 -0.545821
O26   O     O_R   0.458830 0.175210 0.960760 -0.545820
O27   O     O_R   0.958830 0.324790 0.960760 -0.545824
O28   O     O_R   0.041170 0.675210 0.039240 -0.545824
O29   O     O_R   0.041170 0.324790 0.039240 -0.545820
O30   O     O_R   0.958830 0.675210 0.960760 -0.545821
O31   O     O_R   0.596370 0.769570 0.149640 -0.545844
O32   O     O_R   0.403630 0.230430 0.850360 -0.545845
O33   O     O_R   0.403630 0.769570 0.850360 -0.545819
O34   O     O_3   1.000000 0.750030 0.000000 -0.427717
O35   O     O_R   0.596370 0.230430 0.149640 -0.545820
O36   O     O_R   0.096370 0.269570 0.149640 -0.545845
O37   O     O_R   0.903630 0.730430 0.850360 -0.545844
O38   O     O_R   0.903630 0.269570 0.850360 -0.545820
O39   O     O_R   0.096370 0.730430 0.149640 -0.545820
O40   O     O_R   0.437440 0.730340 0.039250 -0.537920
O41   O     O_R   0.562560 0.269660 0.960750 -0.537920
O42   O     O_R   0.562560 0.730340 0.960750 -0.537918
O43   O     O_R   0.437440 0.269660 0.039250 -0.537917
O44   O     O_R   0.937440 0.230340 0.039250 -0.537920
O45   O     O_R   0.398200 0.769580 0.960780 -0.538035
O46   O     O_R   0.062560 0.769660 0.960750 -0.537920
O47   O     O_R   0.062560 0.230340 0.960750 -0.537917
O48   O     O_R   0.937440 0.769660 0.039250 -0.537917
O49   O     O_R   0.601800 0.230420 0.039220 -0.538035
O50   O     O_R   0.601800 0.769580 0.039220 -0.538032
O51   O     O_R   0.398200 0.230420 0.960780 -0.538032
O52   O     O_R   0.898200 0.269580 0.960780 -0.538034
Zn1   Zn    Zn3+2 0.558810 0.777990 0.056050 0.937249
Zn2   Zn    Zn3+2 0.502750 0.278070 0.943930 0.937269
Zn3   Zn    Zn3+2 0.502750 0.721930 0.943930 0.937292
Zn4   Zn    Zn3+2 0.497250 0.278070 0.056070 0.937292
Zn5   Zn    Zn3+2 0.997250 0.221930 0.056070 0.937268
Zn6   Zn    Zn3+2 0.002750 0.778070 0.943930 0.937268
Zn7   Zn    Zn3+2 0.002750 0.221930 0.943930 0.937292
Zn8   Zn    Zn3+2 0.997250 0.778070 0.056070 0.937292
Zn9   Zn    Zn3+2 0.441190 0.222010 0.943950 0.937249
Zn10  Zn    Zn3+2 0.441190 0.777990 0.943950 0.937276
Zn11  Zn    Zn3+2 0.558810 0.222010 0.056050 0.937276
Zn12  Zn    Zn3+2 0.058810 0.277990 0.056050 0.937249
Zn13  Zn    Zn3+2 0.941190 0.722010 0.943950 0.937249
Zn14  Zn    Zn3+2 0.941190 0.277990 0.943950 0.937276
Zn15  Zn    Zn3+2 0.058810 0.722010 0.056050 0.937277
Zn16  Zn    Zn3+2 0.497250 0.721930 0.056070 0.937268

loop_
_geom_bond_atom_site_label_1
_geom_bond_atom_site_label_2
_ccdc_geom_bond_type
C81   H25   S    
C62   C83   S    
O19   Zn6   S    
C6    H86   S    
C18   C21   T    
C10   C184  A    
C74   C83   A    
C57   C128  S    
C79   C121  S    
C124  C133  S    
O42   Zn3   S    
O50   Zn1   S    
O44   Zn5   S    
C8    C138  A    
C30   H5    S    
C89   C94   S    
O12   Zn11  S    
C80   C86   A    
C43   C58   S    
C106  C133  T    
C113  C122  S    
C1    O45   A    
C64   O28   A    
C62   O24   A    
C90   C116  S    
C4    C12   A    
C117  C126  S    
C13   H38   S    
O43   Zn4   S    
C58   O15   A    
C143  C151  A    
C98   H30   S    
C7    C172  A    
O12   Zn4   S    
C10   C140  A    
C41   H16   S    
C76   C83   A    
C2    C117  S    
C158  C167  A    
C65   C87   A    
C130  O52   A    
C163  O4    A    
C14   C144  A    
C11   C20   S    
C24   C120  S    
C150  C159  A    
C69   H34   S    
C127  C136  S    
C109  C163  S    
C176  O7    A    
C13   C124  S    
C2    H37   S    
C32   H7    S    
C153  C161  A    
C177  O35   A    
C178  O36   A    
C102  C114  S    
C77   H21   S    
O30   Zn13  S    
O2    Zn15  S    
O48   Zn8   S    
C143  H58   S    
C164  C173  S    
C180  O11   A    
C69   C88   A    
C39   H14   S    
C101  C115  S    
C36   C44   A    
C174  H36   S    
C64   C85   S    
C111  C137  T    
C2    C121  S    
C16   C25   S    
C100  H32   S    
C61   C84   S    
C40   H15   S    
C8    C17   S    
C183  H81   S    
C29   H4    S    
C71   H56   S    
C99   C174  S    
C49   C53   S    
C152  O47   A    
C51   C55   S    
C148  H63   S    
O14   Zn16  S    
C68   C98   S    
C3    C11   A    
C141  O46   A    
C47   C59   S    
C48   C52   S    
C60   O19   A    
C61   O22   A    
C41   C45   A    
C56   O14   A    
C167  H73   S    
O36   Zn12  S    
C1    C105  S    
C154  H69   S    
C179  O10   A    
C123  C132  S    
C109  C135  T    
C69   C77   A    
C175  O6    A    
C13   C118  S    
C29   C49   A    
C98   C124  S    
C31   H6    S    
C100  C126  S    
C33   C42   A    
C37   H11   S    
O37   Zn13  S    
C107  C134  T    
C102  C128  S    
C66   C88   A    
C75   C84   A    
O33   Zn10  S    
C171  H77   S    
C176  O33   A    
O17   Zn4   S    
C58   O17   A    
O15   Zn2   S    
C167  C184  A    
C104  C131  T    
C29   C38   A    
C32   C41   A    
C149  C158  A    
C39   C45   A    
C104  C119  S    
C94   C95   T    
C98   C118  S    
O16   Zn3   S    
C36   H10   S    
C130  O44   A    
C139  C148  A    
C61   O25   A    
C162  C171  A    
C161  C176  S    
C75   H19   S    
C162  C175  S    
O22   Zn10  S    
C77   C84   A    
C122  C174  S    
C24   C123  S    
C65   C74   A    
C60   O21   A    
C20   C23   T    
C117  H49   S    
O45   Zn10  S    
C56   O16   A    
C26   H88   S    
C145  C154  A    
C78   C85   A    
C80   H24   S    
C1    O40   A    
C149  H64   S    
C119  O51   A    
C116  C125  S    
C164  C172  A    
C70   C89   A    
C118  C127  S    
C114  C123  S    
C159  C178  S    
O39   Zn15  S    
C122  C131  S    
C52   C53   T    
O25   Zn1   S    
C24   H39   S    
C54   C55   T    
C28   C48   A    
C46   C113  S    
C154  C162  A    
C34   C43   A    
C31   C51   A    
C179  O37   A    
C63   O29   A    
C63   O27   A    
C12   C143  A    
O23   Zn12  S    
C14   C22   S    
C70   H45   S    
C112  C121  S    
C35   H40   S    
C28   C37   A    
C35   C79   S    
O10   Zn6   S    
C46   H41   S    
C30   C39   A    
C148  C157  A    
C72   H67   S    
C111  C141  S    
C91   C95   S    
C9    C18   S    
C116  H50   S    
O27   Zn14  S    
O4    Zn13  S    
C140  C149  A    
C81   C85   A    
C35   C112  S    
C27   C49   A    
C82   H26   S    
C125  C134  S    
O49   Zn11  S    
C46   C125  S    
C79   H27   S    
C50   C54   S    
C165  C182  A    
C92   C93   T    
C120  H51   S    
C155  H70   S    
C112  H46   S    
C31   C40   A    
C138  H53   S    
C168  H74   S    
O31   Zn1   S    
C177  O8    A    
C110  C136  T    
C146  C155  A    
C147  H62   S    
C57   C96   S    
C160  C169  A    
O23   Zn7   S    
C181  O13   A    
C72   C81   A    
C96   C123  S    
C26   C48   A    
C30   C50   A    
C87   C92   S    
C139  H54   S    
O11   Zn7   S    
O34   Zn15  S    
C105  C132  T    
C173  O5    A    
C153  H68   S    
C3    H83   S    
C64   O30   A    
C59   O18   A    
C59   O20   A    
C74   H18   S    
C82   C86   A    
C140  H55   S    
C96   H29   S    
C145  H60   S    
C165  H71   S    
C157  C180  S    
O32   Zn9   S    
C37   C43   A    
C158  C179  S    
C78   H22   S    
C38   C44   A    
C163  O48   A    
C9    C183  A    
O34   Zn8   S    
C44   C56   S    
C146  H61   S    
C10   C19   S    
O24   Zn11  S    
C147  C156  A    
C103  C129  T    
C68   C127  S    
C5    C14   A    
C97   C106  S    
C34   H9    S    
C7    C16   A    
C180  O38   A    
C126  C135  S    
C100  C112  S    
C181  O39   A    
C63   C86   S    
C119  O43   A    
C28   H3    S    
C161  C170  A    
C73   C82   A    
C8    C182  A    
C115  C124  S    
C166  C183  A    
O23   Zn14  S    
C121  C129  S    
C152  O3    A    
C99   C113  S    
C120  C128  S    
C46   C90   S    
C27   C36   A    
C33   C51   A    
C57   H42   S    
C5    H85   S    
C17   C22   T    
C116  C174  S    
C142  C150  A    
C172  H79   S    
C7    H87   S    
C90   H28   S    
C9    C139  A    
O47   Zn7   S    
C156  C165  A    
C66   C75   A    
C79   C117  S    
O1    Zn10  S    
C110  C130  S    
O29   Zn12  S    
C24   C102  S    
O23   Zn5   S    
O3    Zn12  S    
C160  C177  S    
O18   Zn5   S    
C118  H52   S    
C151  H66   S    
C71   C91   A    
O6    Zn2   S    
O34   Zn13  S    
C40   C47   A    
C45   C60   S    
O1    Zn1   S    
C70   C78   A    
C184  H82   S    
O51   Zn9   S    
O28   Zn15  S    
C68   H43   S    
C99   C125  S    
O13   Zn8   S    
C33   H8    S    
O34   Zn6   S    
C114  H48   S    
C178  O9    A    
C144  H59   S    
C159  C168  A    
C16   C146  A    
C108  O42   A    
C144  C153  A    
C101  C127  S    
C6    C15   A    
C26   C34   A    
C166  H72   S    
C103  C108  S    
O41   Zn2   S    
C115  H47   S    
C15   C23   S    
C2    C100  S    
C97   O41   A    
C90   C122  S    
C141  O2    A    
C71   C80   A    
C3    C168  A    
O40   Zn16  S    
C6    C171  A    
C65   H1    S    
C4    C169  A    
C108  O50   A    
O7    Zn3   S    
C73   C91   A    
C97   O49   A    
C15   C145  A    
C113  H44   S    
C12   C21   S    
C27   H2    S    
C35   C126  S    
C128  C137  S    
O20   Zn7   S    
O5    Zn16  S    
C138  C147  A    
C5    C170  A    
C182  H80   S    
C38   H13   S    
O12   Zn9   S    
C32   C50   A    
C102  H35   S    
C107  C152  S    
O21   Zn8   S    
O1    Zn3   S    
C173  O31   A    
C62   O26   A    
C68   C115  S    
C13   C101  S    
O38   Zn14  S    
C67   H23   S    
C73   H78   S    
O8    Zn4   S    
C150  H65   S    
C88   C93   S    
C96   C120  S    
O12   Zn2   S    
C4    H84   S    
C157  C166  A    
C66   H12   S    
C156  C181  S    
C76   H20   S    
C57   C114  S    
C155  C164  A    
C142  H57   S    
C67   C87   A    
C175  O32   A    
O1    Zn16  S    
O52   Zn14  S    
C151  C160  A    
C72   C89   A    
C99   H31   S    
O9    Zn5   S    
C42   C47   A    
C19   C25   T    
C11   C142  A    
O35   Zn11  S    
C101  H33   S    
O26   Zn9   S    
C169  H75   S    
O46   Zn6   S    
C42   H17   S    
C170  H76   S    
C67   C76   A    
