data_mof_unit_37422.cif
_audit_creation_date              2012-12-10T18:31:54-0500
_audit_creation_method            fapswitch 2.2
_symmetry_space_group_name_H-M    P1
_symmetry_Int_Tables_number       1
_space_group_crystal_system       triclinic
_cell_length_a                    10.650919
_cell_length_b                    14.966399
_cell_length_c                    15.534939
_cell_angle_alpha                 82.118934
_cell_angle_beta                  89.40492
_cell_angle_gamma                 104.392788
_cell_volume                      2373.4302072

loop_
_atom_site_label
_atom_site_type_symbol
_atom_type_description
_atom_site_fract_x
_atom_site_fract_y
_atom_site_fract_z
_atom_type_partial_charge
C1    C     C_R   0.480134 0.441496 0.662085 0.854867
C2    C     C_3   0.121353 0.500824 0.499385 0.098261
C3    C     C_3   0.066425 0.481737 0.408328 -0.080699
C4    C     C_3   0.104487 0.597440 0.517193 -0.389282
C5    C     C_R   0.453280 0.406124 0.754578 -0.066771
C6    C     C_R   0.517116 0.595946 0.244390 -0.123017
C7    C     C_R   0.364102 0.283862 0.874035 -0.210557
C8    C     C_R   0.398990 0.311679 0.785626 -0.196592
C9    C     C_R   0.472175 0.471395 0.811884 -0.273278
C10   C     C_R   0.427905 0.446467 0.898513 0.080517
C11   C     C_R   0.378759 0.350801 0.930876 0.169751
C12   C     C_R   0.742057 0.500806 0.499633 0.846573
C13   C     C_R   0.437516 0.514682 0.954168 0.070386
C14   C     C_R   0.421642 0.485831 0.044859 0.080076
C15   C     C_R   0.368560 0.389960 0.075932 -0.234830
C16   C     C_R   0.345369 0.323818 0.019247 -0.239167
C17   C     C_R   0.462330 0.610805 0.921867 -0.236265
C18   C     C_R   0.489417 0.677204 0.977487 -0.231758
C19   C     C_R   0.495477 0.649857 0.066313 0.133423
C20   C     C_R   0.461259 0.554144 0.100716 0.091668
C21   C     C_R   0.537574 0.717679 0.120452 -0.225155
C22   C     C_R   0.550607 0.692776 0.209983 0.086147
C23   C     C_R   0.518172 0.559019 0.337543 0.847976
C24   C     C_R   0.475271 0.529299 0.189010 -0.285308
C25   C     C_R   0.698573 0.844048 0.632486 -0.325088
C26   C     C_R   0.665161 0.754375 0.611531 0.009417
C27   C     C_R   0.511849 0.792991 0.512706 -0.073098
C28   C     C_R   0.541795 0.885498 0.530447 -0.004136
C29   C     C_R   0.637470 0.910101 0.591886 0.187015
C30   C     C_R   0.481414 0.953734 0.489263 0.071372
C31   C     C_R   0.517846 0.046062 0.510884 0.085170
C32   C     C_R   0.613923 0.067279 0.572357 -0.244656
C33   C     C_R   0.672125 0.000351 0.612000 -0.218287
C34   C     C_R   0.258101 0.499930 0.499535 0.813375
C35   C     C_R   0.386961 0.932961 0.426650 -0.255206
C36   C     C_R   0.330327 0.000325 0.385979 -0.210572
C37   C     C_R   0.364215 0.090383 0.406665 0.185846
C38   C     C_R   0.457497 0.114311 0.469739 -0.003643
C39   C     C_R   0.305016 0.156996 0.364857 -0.325080
C40   C     C_R   0.337861 0.246506 0.386295 0.009217
C41   C     C_R   0.485571 0.206295 0.488863 -0.071217
C42   C     C_3   0.898344 0.423830 0.570796 -0.427889
C43   C     C_3   0.043228 0.422954 0.572311 -0.081685
C44   C     C_3   0.921085 0.481552 0.409861 -0.421046
C45   C     C_3   0.961881 0.597288 0.517269 -0.404259
C46   C     C_3   0.878615 0.501279 0.499439 0.130532
H1    H     H_    0.840099 0.354368 0.558283 0.158063
H2    H     H_    0.900141 0.534411 0.358027 0.165316
H3    H     H_    0.304806 0.251105 0.045069 0.141891
H4    H     H_    0.457499 0.456804 0.215485 0.169588
H5    H     H_    0.510654 0.750348 0.950362 0.143216
H6    H     H_    0.382819 0.259902 0.741881 0.156394
H7    H     H_    0.523845 0.542224 0.788001 0.162084
H8    H     H_    0.861180 0.435344 0.634581 0.165205
H9    H     H_    0.340629 0.364293 0.143495 0.138212
H10   H     H_    0.459060 0.636481 0.853710 0.150272
H11   H     H_    0.561398 0.789975 0.091190 0.131539
H12   H     H_    0.745498 0.019640 0.658646 0.139170
H13   H     H_    0.292807 0.298907 0.354835 0.122485
H14   H     H_    0.258930 0.981576 0.337983 0.139230
H15   H     H_    0.771863 0.861758 0.679486 0.140892
H16   H     H_    0.712098 0.702513 0.641740 0.128326
H17   H     H_    0.647857 0.135396 0.591243 0.132205
H18   H     H_    0.051842 0.354366 0.556066 0.150553
H19   H     H_    0.863124 0.412373 0.396484 0.167530
H20   H     H_    0.074019 0.410770 0.398655 0.147349
H21   H     H_    0.932143 0.612588 0.581524 0.175994
N1    N     N_R   0.573860 0.731700 0.552730 -0.097656
N2    N     N_R   0.426060 0.268290 0.447230 -0.097974
O1    O     O_R   0.462770 0.383110 0.605620 -0.616429
O2    O     O_R   0.510160 0.531900 0.639510 -0.619943
O3    O     O_R   0.661510 0.425600 0.483070 -0.624345
O4    O     O_R   0.708900 0.574390 0.516960 -0.628556
O5    O     O_R   0.489840 0.468100 0.360490 -0.612431
O6    O     O_R   0.537230 0.616890 0.394380 -0.630375
O7    O     O_R   0.291100 0.425610 0.483040 -0.629779
O8    O     O_R   0.338490 0.574400 0.516930 -0.626834
Zn1   Zn    Zn3+2 0.468350 0.400660 0.477370 0.926783
Zn2   Zn    Zn3+2 0.531650 0.599340 0.522630 0.916722
H22   H     H_    0.159685 0.654541 0.467214 0.168833
C47   C     C_3   0.141539 0.551817 0.330290 -0.405792
C48   C     C_3   0.113606 0.514223 0.243347 -0.358542
C49   C     C_3   0.159436 0.591394 0.166464 -0.856807
H23   H     H_    0.098002 0.641729 0.163367 0.250884
H24   H     H_    0.261606 0.629283 0.173146 0.273981
H25   H     H_    0.152205 0.560816 0.104925 0.254970
H26   H     H_    0.164624 0.458406 0.239203 0.216313
H27   H     H_    0.008001 0.483742 0.238618 0.225786
H28   H     H_    0.115116 0.619484 0.327619 0.212077
H29   H     H_    0.247780 0.566294 0.338092 0.190532
C50   C     C_3   0.600847 0.767601 0.267828 -0.370578
C51   C     C_3   0.649388 0.868413 0.221626 -0.401870
C52   C     C_3   0.705027 0.934740 0.286081 -0.862337
H30   H     H_    0.629580 0.933511 0.336268 0.272297
H31   H     H_    0.788511 0.914580 0.318334 0.257683
H32   H     H_    0.738961 0.006891 0.251131 0.248646
H33   H     H_    0.726845 0.872446 0.171644 0.225879
H34   H     H_    0.567643 0.891778 0.189915 0.224051
H35   H     H_    0.521433 0.766229 0.315308 0.209715
H36   H     H_    0.683535 0.749894 0.303366 0.218117
H37   H     H_    0.324185 0.210554 0.897704 0.134528
H38   H     H_    0.552803 0.231329 0.536514 0.125868
H39   H     H_    0.440834 0.766919 0.467632 0.119653
C53   C     C_3   0.094254 0.431903 0.665095 -0.394940
C54   C     C_3   0.042747 0.341472 0.728702 -0.367888
C55   C     C_3   0.068046 0.357781 0.822485 -0.854064
H40   H     H_    0.171763 0.392111 0.828840 0.278570
H41   H     H_    0.008055 0.402962 0.842793 0.254083
H42   H     H_    0.042446 0.290107 0.866288 0.247265
H43   H     H_    0.936638 0.313893 0.723298 0.222652
H44   H     H_    0.091798 0.287965 0.712649 0.221258
H45   H     H_    0.201809 0.448076 0.663588 0.197267
H46   H     H_    0.065602 0.490332 0.690393 0.213982
H47   H     H_    0.354733 0.865277 0.406577 0.133609
H48   H     H_    0.233906 0.139925 0.316365 0.138550
H49   H     H_    0.947870 0.653746 0.466478 0.177267
H50   H     H_    0.143688 0.614181 0.580773 0.180754

loop_
_geom_bond_atom_site_label_1
_geom_bond_atom_site_label_2
_ccdc_geom_bond_type
C54   H43   S    
C33   H12   S    
O1    Zn1   S    
C19   C20   A    
O2    Zn2   S    
C47   C48   S    
N2    Zn1   S    
C51   H34   S    
C7    C8    A    
C45   C46   S    
C7    C11   A    
C52   H30   S    
C30   C35   A    
C1    C5    S    
C28   C29   A    
C19   C21   A    
O7    Zn1   S    
C4    H22   S    
C34   O8    A    
C30   C31   A    
C55   H40   S    
C48   H26   S    
C6    C22   A    
C29   C33   A    
C41   H38   S    
C35   H47   S    
C18   C19   A    
C42   C46   S    
C20   C24   A    
C43   C53   S    
O3    Zn1   S    
C27   N1    A    
C31   C32   A    
C51   H33   S    
C22   C50   S    
C50   H36   S    
C9    C10   A    
C8    H6    S    
C47   H28   S    
C2    C34   S    
N1    Zn2   S    
C12   O3    A    
C52   H31   S    
C40   H13   S    
C21   C22   A    
C25   C29   A    
C44   H19   S    
C12   O4    A    
C53   C54   S    
C44   C46   S    
C43   H18   S    
C4    C45   S    
O8    Zn2   S    
C24   H4    S    
C3    C44   S    
C40   N2    A    
C14   C20   A    
C16   H3    S    
C38   C41   A    
C12   C46   S    
C50   C51   S    
C53   H45   S    
C25   C26   A    
C15   C16   A    
C35   C36   A    
C15   H9    S    
C2    C4    S    
C5    C9    A    
C37   C38   A    
C11   C16   A    
C49   H23   S    
C2    C43   S    
C6    C24   A    
C17   C18   A    
O4    Zn2   S    
C25   H15   S    
C17   H10   S    
C47   H29   S    
C49   H24   S    
C52   H32   S    
C39   H48   S    
C7    H37   S    
C4    H50   S    
C3    H20   S    
C9    H7    S    
C42   C43   S    
C23   O5    A    
C39   C40   A    
C41   N2    A    
C54   C55   S    
C36   C37   A    
C3    C47   S    
C32   H17   S    
C23   O6    A    
C36   H14   S    
C10   C13   A    
C5    C8    A    
C45   H21   S    
C18   H5    S    
C21   H11   S    
C1    O1    A    
C31   C38   A    
C13   C17   A    
C26   N1    A    
C32   C33   A    
C28   C30   A    
C2    C3    S    
C26   H16   S    
C37   C39   A    
C42   H8    S    
C45   H49   S    
C55   H41   S    
C1    O2    A    
C48   H27   S    
C6    C23   S    
C27   H39   S    
C51   C52   S    
C42   H1    S    
C54   H44   S    
C10   C11   A    
C53   H46   S    
C49   H25   S    
C48   C49   S    
O5    Zn1   S    
C27   C28   A    
C14   C15   A    
C50   H35   S    
C13   C14   A    
O6    Zn2   S    
C44   H2    S    
C34   O7    A    
C55   H42   S    
