data_mof_unit_39554.cif
_audit_creation_date              2012-10-26T19:40:44-0400
_audit_creation_method            fapswitch 2.2
_symmetry_space_group_name_H-M    P1
_symmetry_Int_Tables_number       1
_space_group_crystal_system       triclinic
_cell_length_a                    9.708658
_cell_length_b                    10.932368
_cell_length_c                    13.433884
_cell_angle_alpha                 90.412474
_cell_angle_beta                  71.68003
_cell_angle_gamma                 90.422092
_cell_volume                      1353.5312874

loop_
_atom_site_label
_atom_site_type_symbol
_atom_type_description
_atom_site_fract_x
_atom_site_fract_y
_atom_site_fract_z
_atom_type_partial_charge
C1    C     C_R   0.502053 0.734763 0.497144 0.552435
C2    C     C_R   0.373358 0.493241 0.815992 -0.057492
C3    C     C_2   0.609908 0.068563 0.478407 -0.152193
C4    C     C_R   0.421629 0.494629 0.700360 0.532040
C5    C     C_2   0.490131 0.135323 0.520700 0.177769
C6    C     C_2   0.615807 0.936608 0.498023 0.268772
C7    C     C_2   0.509406 0.866496 0.483018 -0.039095
C8    C     C_2   0.088636 0.592353 0.473157 0.105191
C9    C     C_2   0.926669 0.597863 0.496127 0.095250
C10   C     C_R   0.497926 0.265699 0.503548 0.569857
C11   C     C_R   0.578765 0.496098 0.299384 0.530866
C12   C     C_R   0.434537 0.486108 0.979837 -0.005277
C13   C     C_R   0.786347 0.395900 0.020727 0.287691
C14   C     C_R   0.624637 0.478147 0.184485 -0.055627
C15   C     C_R   0.239800 0.546923 0.869806 -0.077920
C16   C     C_R   0.202442 0.571234 0.976624 0.306580
C17   C     C_R   0.297884 0.539846 0.031492 -0.089407
C18   C     C_3   0.839694 0.960354 0.533666 0.009291
C19   C     C_3   0.958327 0.960632 0.426573 -0.297727
C20   C     C_3   0.091192 0.033527 0.430324 -0.424077
C21   C     C_3   0.940437 0.233683 0.970794 0.014064
C22   C     C_3   0.096229 0.198908 0.908928 -0.220065
C23   C     C_R   0.466857 0.454558 0.872356 0.003242
C24   C     C_3   0.123239 0.062949 0.918868 -0.467448
C25   C     C_3   0.093833 0.748737 0.055660 0.012545
C26   C     C_3   0.025785 0.767216 0.174193 -0.243803
C27   C     C_3   0.860286 0.768388 0.207415 -0.382823
C28   C     C_R   0.541505 0.464817 0.030466 -0.013443
C29   C     C_R   0.675827 0.409926 0.973980 0.014298
C30   C     C_R   0.697482 0.368388 0.871713 -0.101667
C31   C     C_R   0.592446 0.385697 0.823591 -0.098473
C32   C     C_R   0.520346 0.499405 0.134796 -0.185451
C33   C     C_R   0.761389 0.431217 0.125686 0.240598
Cl1   Cl    Cl    0.904321 0.414472 0.179624 -0.524641
Cl2   Cl    Cl    0.329434 0.077364 0.612121 -0.668816
Cl3   Cl    Cl    0.051524 0.419808 0.611372 -0.455435
Cl4   Cl    Cl    0.931375 0.375548 0.427217 -0.429196
Cu1   Cu    Cu3+1 0.361370 0.499980 0.499980 1.081879
Cu2   Cu    Cu3+1 0.638630 0.500020 0.500020 1.098125
H1    H     H_    0.425645 0.906953 0.455946 0.091179
H2    H     H_    0.887239 0.921805 0.591788 0.162638
H3    H     H_    0.805008 0.054329 0.562599 0.161659
H4    H     H_    0.991845 0.865083 0.402841 0.142986
H5    H     H_    0.916481 0.000232 0.365974 0.167968
H6    H     H_    0.060858 0.129263 0.455408 0.236995
H7    H     H_    0.173410 0.034552 0.351238 0.146809
H8    H     H_    0.139947 0.990552 0.485896 0.190902
H9    H     H_    0.864568 0.181331 0.939036 0.107219
H10   H     H_    0.919347 0.207902 0.054336 0.171720
H11   H     H_    0.117688 0.221480 0.824811 0.228030
H12   H     H_    0.153597 0.668125 0.431354 0.053159
H13   H     H_    0.172816 0.252826 0.938677 0.192425
H14   H     H_    0.105853 0.039334 0.002237 0.128657
H15   H     H_    0.236960 0.040849 0.872748 0.191835
H16   H     H_    0.049135 0.007126 0.888320 0.162291
H17   H     H_    0.041747 0.811468 0.013720 0.144922
H18   H     H_    0.210282 0.777538 0.033407 0.085472
H19   H     H_    0.061842 0.693574 0.216795 0.184129
H20   H     H_    0.063831 0.856089 0.196950 0.098623
H21   H     H_    0.822353 0.847646 0.171994 0.117546
H22   H     H_    0.815621 0.776212 0.294102 0.147870
H23   H     H_    0.876232 0.686713 0.508748 0.119956
H24   H     H_    0.818663 0.682829 0.182315 0.217433
H25   H     H_    0.795817 0.321316 0.827946 0.178906
H26   H     H_    0.421773 0.542982 0.180537 0.137640
H27   H     H_    0.166896 0.576195 0.828018 0.177276
H28   H     H_    0.260631 0.559339 0.114177 0.130429
H29   H     H_    0.611753 0.343811 0.747371 0.163188
H30   H     H_    0.707625 0.112815 0.428747 0.123355
N1    N     N_2   0.152660 0.501340 0.501130 -0.014236
N2    N     N_2   0.846520 0.501370 0.501160 -0.019415
O1    O     O_R   0.382960 0.678040 0.499980 -0.535714
O2    O     O_3   0.924261 0.360764 0.960326 -0.523735
O3    O     O_3   0.071102 0.626770 0.027151 -0.504519
O4    O     O_R   0.617100 0.678080 0.500020 -0.478081
O5    O     O_R   0.325800 0.499940 0.650950 -0.457957
O6    O     O_R   0.559930 0.499980 0.650990 -0.504962
O7    O     O_R   0.382900 0.321920 0.499980 -0.430082
O8    O     O_R   0.617040 0.321960 0.500020 -0.481847
O9    O     O_R   0.440070 0.500020 0.349010 -0.526248
O10   O     O_R   0.674200 0.500060 0.349050 -0.435190
O11   O     O_3   0.723560 0.882308 0.531727 -0.561647

loop_
_geom_bond_atom_site_label_1
_geom_bond_atom_site_label_2
_ccdc_geom_bond_type
Cu1   N1    S    
C6    O11   S    
C30   H25   S    
C19   C20   S    
C25   H17   S    
C3    C6    S    
C14   C33   A    
C21   H10   S    
C10   O7    A    
Cu1   O5    S    
C11   O10   A    
C24   H16   S    
C12   C23   A    
C26   C27   S    
C12   C28   A    
C16   O3    S    
Cu2   O6    S    
C13   C29   A    
C28   C29   A    
C3    H30   S    
C18   C19   S    
C27   H21   S    
C18   H3    S    
C30   C31   A    
C11   C14   S    
C24   H15   S    
C15   C16   A    
C21   O2    S    
C25   O3    S    
C27   H22   S    
Cl3   N1    S    
C8    C9    S    
C12   C17   A    
C7    H1    S    
Cu2   O4    S    
C26   H20   S    
C20   H6    S    
C22   H11   S    
C21   H9    S    
C21   C22   S    
C25   H18   S    
C19   H4    S    
C31   H29   S    
Cu1   O1    S    
C17   H28   S    
C1    O1    A    
C9    H23   S    
C1    O4    A    
C28   C32   A    
Cu2   O10   S    
C18   H2    S    
C16   C17   A    
Cu1   O7    S    
C25   C26   S    
C15   H27   S    
C23   C31   A    
C2    C4    S    
C13   C33   A    
C29   C30   A    
C33   Cl1   S    
C2    C15   A    
C26   H19   S    
C8    H12   S    
C27   H24   S    
C13   O2    S    
Cl4   N2    S    
C22   C24   S    
C19   H5    S    
C22   H13   S    
C1    C7    S    
C9    N2    D    
C14   C32   A    
C3    C5    D    
C10   O8    A    
C6    C7    D    
C8    N1    D    
C24   H14   S    
C4    O6    A    
Cu1   Cu2   S    
Cu1   O9    S    
C5    Cl2   S    
C18   O11   S    
C4    O5    A    
C20   H8    S    
C11   O9    A    
C5    C10   S    
C2    C23   A    
Cu2   N2    S    
C20   H7    S    
Cu2   O8    S    
C32   H26   S    
