data_mof_unit_49032.cif
_audit_creation_date              2012-12-11T17:23:11-0500
_audit_creation_method            fapswitch 2.2
_symmetry_space_group_name_H-M    P1
_symmetry_Int_Tables_number       1
_space_group_crystal_system       triclinic
_cell_length_a                    22.441943
_cell_length_b                    7.093814
_cell_length_c                    19.389727
_cell_angle_alpha                 89.93609
_cell_angle_beta                  99.446821
_cell_angle_gamma                 89.915629
_cell_volume                      3044.95598633

loop_
_atom_site_label
_atom_site_type_symbol
_atom_type_description
_atom_site_fract_x
_atom_site_fract_y
_atom_site_fract_z
_atom_type_partial_charge
O1    O     O_R   0.443980 0.494320 0.557430 -0.529920
O2    O     O_R   0.556020 0.994320 0.442570 -0.539802
O3    O     O_R   0.441210 0.822520 0.414610 -0.540207
O4    O     O_R   0.558790 0.322520 0.585390 -0.526440
C1    C     C_R   0.426358 0.655575 0.389063 0.748306
C2    C     C_R   0.573508 0.154872 0.610976 0.749794
O5    O     O_R   0.436920 0.823940 0.555180 -0.540002
O6    O     O_R   0.563080 0.323940 0.444820 -0.531374
O7    O     O_R   0.551700 0.995760 0.584140 -0.541738
O8    O     O_R   0.448300 0.495760 0.415860 -0.523472
C3    C     C_R   0.421545 0.655401 0.574809 0.738784
C4    C     C_R   0.578443 0.155353 0.425186 0.743336
O9    O     O_3   0.537660 0.661290 0.509340 -0.370307
O10   O     O_3   0.462340 0.161290 0.490660 -0.362303
V1    V     V_3+5 0.493010 0.935560 0.498270 1.487289
V2    V     V_3+5 0.506990 0.435560 0.501730 1.519292
H1    H     H_    0.707509 0.817420 0.293559 0.116837
H2    H     H_    0.292381 0.317476 0.706158 0.117479
C5    C     C_R   0.769182 0.931945 0.230257 -0.139096
C6    C     C_R   0.230769 0.431907 0.769597 -0.141341
H3    H     H_    0.783180 0.794029 0.214986 0.121440
H4    H     H_    0.216717 0.293970 0.784729 0.120925
C7    C     C_R   0.793945 0.095342 0.205394 0.128781
C8    C     C_R   0.206078 0.595273 0.794630 0.129356
C9    C     C_R   0.774986 0.272269 0.226168 -0.133996
C10   C     C_R   0.225108 0.772236 0.774034 -0.132614
H5    H     H_    0.793534 0.400141 0.207692 0.126477
H6    H     H_    0.206616 0.900080 0.792645 0.126090
C11   C     C_R   0.731864 0.285622 0.271010 -0.142412
C12   C     C_R   0.268230 0.785656 0.729197 -0.147608
H7    H     H_    0.717851 0.423541 0.286257 0.116633
H8    H     H_    0.282298 0.923595 0.714088 0.115993
C13   C     C_R   0.707054 0.122224 0.295820 0.132811
C14   C     C_R   0.292964 0.622288 0.704210 0.132545
C15   C     C_R   0.726064 0.945298 0.275101 -0.144832
C16   C     C_R   0.273885 0.445327 0.724753 -0.141299
C17   C     C_1   0.838770 0.081773 0.159013 -0.022305
C18   C     C_1   0.161249 0.581646 0.841002 -0.022355
C19   C     C_1   0.662013 0.135769 0.341945 -0.037877
C20   C     C_1   0.337995 0.635888 0.658076 -0.039919
C21   C     C_1   0.624149 0.145766 0.380124 -0.147738
C22   C     C_1   0.375849 0.645897 0.619885 -0.150785
C23   C     C_1   0.876410 0.071725 0.120561 -0.131317
C24   C     C_1   0.123604 0.571590 0.879446 -0.131154
C25   C     C_R   0.633248 0.107007 0.802556 -0.158084
C26   C     C_R   0.363142 0.710669 0.198633 -0.158151
H9    H     H_    0.546152 0.105320 0.738311 0.115045
H10   H     H_    0.448485 0.756826 0.263510 0.115859
H11   H     H_    0.714431 0.107778 0.917997 0.119338
H12   H     H_    0.282880 0.685870 0.082863 0.119340
H13   H     H_    0.614083 0.094794 0.850162 0.120022
H14   H     H_    0.380529 0.750176 0.151713 0.120052
C27   C     C_R   0.617088 0.142927 0.676884 -0.072176
C28   C     C_R   0.382617 0.650575 0.323081 -0.072547
C29   C     C_R   0.911800 0.038998 0.759520 0.249927
C30   C     C_R   0.087300 0.566802 0.240765 0.249987
C31   C     C_R   0.874417 0.021899 0.695101 -0.111756
C32   C     C_R   0.123208 0.592340 0.305714 -0.114870
C33   C     C_R   0.812121 0.043022 0.689409 -0.145081
C34   C     C_R   0.185451 0.614661 0.311411 -0.147594
C35   C     C_R   0.785109 0.092234 0.747599 0.092571
C36   C     C_R   0.214544 0.602549 0.252420 0.093701
C37   C     C_R   0.822922 0.093443 0.814758 0.022928
C38   C     C_R   0.177071 0.594140 0.185139 0.022319
C39   C     C_R   0.721023 0.119928 0.742298 0.042893
C40   C     C_R   0.279002 0.618584 0.257550 0.043281
C41   C     C_R   0.695974 0.111439 0.805026 0.108142
C42   C     C_R   0.302244 0.662639 0.195492 0.108453
C43   C     C_R   0.733556 0.108068 0.870161 -0.179026
C44   C     C_R   0.264704 0.658371 0.130345 -0.177991
C45   C     C_R   0.795994 0.106638 0.875025 -0.167534
C46   C     C_R   0.203634 0.617290 0.124981 -0.168305
C47   C     C_R   0.680290 0.156025 0.678294 0.172368
C48   C     C_R   0.321817 0.593226 0.320727 0.172448
C49   C     C_R   0.594435 0.114473 0.738926 -0.221485
C50   C     C_R   0.402083 0.712877 0.262201 -0.214395
C51   C     C_R   0.886655 0.070589 0.820291 -0.150186
C52   C     C_R   0.113353 0.571893 0.179647 -0.150162
H15   H     H_    0.785577 0.007634 0.639730 0.186448
H16   H     H_    0.209459 0.653693 0.362047 0.184851
H17   H     H_    0.893649 0.986698 0.649059 0.173517
H18   H     H_    0.102521 0.599602 0.352312 0.172707
H19   H     H_    0.822935 0.106429 0.926748 0.094510
H20   H     H_    0.176827 0.613203 0.073210 0.094651
O11   O     O_R   0.051730 0.724670 0.084120 -0.531349
O12   O     O_R   0.948270 0.224670 0.915880 -0.531542
O13   O     O_R   0.063080 0.393540 0.944820 -0.535471
O14   O     O_R   0.936920 0.893540 0.055180 -0.534157
C53   C     C_R   0.078148 0.562091 0.924811 0.724088
C54   C     C_R   0.921859 0.062138 0.075188 0.723324
O15   O     O_R   0.058800 0.395030 0.085390 -0.532907
O16   O     O_R   0.941200 0.895030 0.914610 -0.532362
O17   O     O_R   0.943980 0.223310 0.057440 -0.528040
O18   O     O_R   0.056020 0.723310 0.942560 -0.527022
C55   C     C_R   0.072746 0.563438 0.111321 0.743564
C56   C     C_R   0.927320 0.063677 0.888634 0.743578
O19   O     O_3   0.962360 0.556290 0.990650 -0.372936
O20   O     O_3   0.037640 0.056290 0.009350 -0.373437
V3    V     V_3+5 0.006980 0.281990 0.001730 1.506854
V4    V     V_3+5 0.993020 0.781990 0.998270 1.508086
Br1   Br    Br    0.706056 0.266633 0.596736 -0.570055
Br2   Br    Br    0.304628 0.444798 0.398973 -0.567548
Br3   Br    Br    0.997229 0.005623 0.762780 -0.528873
Br4   Br    Br    0.001747 0.538038 0.237559 -0.529763

loop_
_geom_bond_atom_site_label_1
_geom_bond_atom_site_label_2
_ccdc_geom_bond_type
C40   C42   A    
C17   C23   T    
C29   Br3   S    
H10   C50   S    
O1    C3    A    
O2    C4    A    
C2    O7    A    
C26   C50   A    
C39   C47   A    
C19   C21   T    
O5    C3    A    
C13   C19   S    
C14   C20   S    
C5    H3    S    
C8    C10   A    
C32   H18   S    
C29   C51   A    
C31   C33   A    
C25   H13   S    
C32   C34   A    
C40   C48   A    
C11   C13   A    
O16   C56   A    
C30   C52   A    
C3    C22   S    
C34   C36   A    
C53   O18   A    
C35   C37   A    
C36   C38   A    
C28   C48   A    
C6    C8    A    
C39   C41   A    
C25   C41   A    
C8    C18   S    
O17   V3    S    
C45   H19   S    
C48   Br2   S    
C47   Br1   S    
O6    V2    S    
H11   C43   S    
C27   C49   A    
O19   V3    S    
C18   C24   T    
O13   V3    S    
C9    C11   A    
C33   C35   A    
C23   C54   S    
C43   C45   A    
C12   C14   A    
C1    C28   S    
C30   Br4   S    
O4    C2    A    
C33   H15   S    
C36   C40   A    
C7    C17   S    
C41   C43   A    
O4    V2    S    
C5    C7    A    
C26   C42   A    
C4    C21   S    
O12   V3    S    
O18   V4    S    
C52   C55   S    
O6    C4    A    
O1    V2    S    
C46   H20   S    
O2    V1    S    
O14   V4    S    
O12   C56   A    
C28   C50   A    
C6    H4    S    
C10   C12   A    
O20   V4    S    
C29   C31   A    
C31   H17   S    
C2    C27   S    
O19   V4    S    
O3    V1    S    
O16   V4    S    
C54   O17   A    
C37   C51   A    
C34   H16   S    
O14   C54   A    
C38   C52   A    
C27   C47   A    
C37   C45   A    
C20   C22   T    
O3    C1    A    
C44   C46   A    
C9    H5    S    
C51   C56   S    
C10   H6    S    
C25   C49   A    
O13   C53   A    
H12   C44   S    
H9    C49   S    
C1    O8    A    
C11   H7    S    
O11   V4    S    
C5    C15   A    
C26   H14   S    
C12   H8    S    
O11   C55   A    
O5    V1    S    
C13   C15   A    
C30   C32   A    
C14   C16   A    
C38   C46   A    
O7    V1    S    
O15   C55   A    
C6    C16   A    
C35   C39   A    
C7    C9    A    
C42   C44   A    
O20   V3    S    
O9    V2    S    
O10   V1    S    
O8    V2    S    
H1    C15   S    
O15   V3    S    
H2    C16   S    
C24   C53   S    
