data_mof_unit_42171.cif
_audit_creation_date              2012-12-11T17:36:14-0500
_audit_creation_method            fapswitch 2.2
_symmetry_space_group_name_H-M    P1
_symmetry_Int_Tables_number       1
_space_group_crystal_system       triclinic
_cell_length_a                    25.930236
_cell_length_b                    6.903343
_cell_length_c                    21.680979
_cell_angle_alpha                 89.938097
_cell_angle_beta                  95.885738
_cell_angle_gamma                 89.93262
_cell_volume                      3860.54571431

loop_
_atom_site_label
_atom_site_type_symbol
_atom_type_description
_atom_site_fract_x
_atom_site_fract_y
_atom_site_fract_z
_atom_type_partial_charge
O1    O     O_R   0.208650 0.594520 0.175450 -0.541487
O2    O     O_R   0.791350 0.405480 0.824550 -0.526360
O3    O     O_R   0.291350 0.094520 0.324550 -0.528197
O4    O     O_R   0.708650 0.905480 0.675450 -0.528125
O5    O     O_R   0.192980 0.260780 0.300160 -0.542774
O6    O     O_R   0.807020 0.739220 0.699840 -0.546083
O7    O     O_R   0.307020 0.760780 0.199840 -0.544986
O8    O     O_R   0.692980 0.239220 0.800160 -0.545618
C1    C     C_R   0.178794 0.432902 0.318421 0.707132
C2    C     C_R   0.821203 0.567097 0.681576 0.700006
C3    C     C_R   0.321212 0.932877 0.181581 0.704644
C4    C     C_R   0.678790 0.067121 0.818422 0.703755
O9    O     O_R   0.202550 0.264660 0.174420 -0.535888
O10   O     O_R   0.797450 0.735340 0.825580 -0.545332
O11   O     O_R   0.297450 0.764660 0.325580 -0.544287
O12   O     O_R   0.702550 0.235340 0.674420 -0.545077
O13   O     O_R   0.300990 0.096480 0.197920 -0.539597
O14   O     O_R   0.699010 0.903520 0.802080 -0.539699
O15   O     O_R   0.199010 0.596480 0.302080 -0.543237
O16   O     O_R   0.800990 0.403520 0.697920 -0.539669
C5    C     C_R   0.191051 0.433800 0.151250 0.785938
C6    C     C_R   0.808884 0.566535 0.848847 0.778879
C7    C     C_R   0.308713 0.933184 0.348907 0.784993
C8    C     C_R   0.691286 0.066815 0.651092 0.783668
O17   O     O_3   0.282290 0.427760 0.257860 -0.365001
O18   O     O_3   0.717710 0.572240 0.742140 -0.365853
O19   O     O_3   0.217710 0.927760 0.242140 -0.369864
O20   O     O_3   0.782290 0.072240 0.757860 -0.365372
V1    V     V_3+5 0.244010 0.152080 0.248540 1.479742
V2    V     V_3+5 0.755990 0.847920 0.751460 1.474308
V3    V     V_3+5 0.255990 0.652080 0.251460 1.459637
V4    V     V_3+5 0.744010 0.347920 0.748540 1.476313
C9    C     C_R   0.657314 0.061301 0.592321 -0.127903
C10   C     C_R   0.342685 0.938699 0.407679 -0.128084
C11   C     C_R   0.842681 0.561733 0.907894 -0.129610
C12   C     C_R   0.157193 0.443908 0.092382 -0.129723
C13   C     C_R   0.646721 0.112170 0.481728 -0.148853
C14   C     C_R   0.353279 0.887823 0.518272 -0.149142
C15   C     C_R   0.854199 0.637518 0.017096 -0.148362
C16   C     C_R   0.148831 0.444564 0.980498 -0.148645
C17   C     C_R   0.677833 0.113567 0.537775 -0.276221
C18   C     C_R   0.322167 0.886426 0.462225 -0.276554
C19   C     C_R   0.822706 0.627454 0.961397 -0.271696
C20   C     C_R   0.179723 0.437949 0.036755 -0.278618
C21   C     C_R   0.604398 0.013667 0.591110 0.537523
C22   C     C_R   0.395602 0.986338 0.408890 0.537717
C23   C     C_R   0.895362 0.508538 0.910049 0.536690
C24   C     C_R   0.102918 0.459214 0.091678 0.535308
C25   C     C_R   0.570435 0.027454 0.534683 -0.028630
C26   C     C_R   0.429564 0.972549 0.465317 -0.028633
C27   C     C_R   0.929685 0.534128 0.965669 -0.028066
C28   C     C_R   0.070532 0.479745 0.034355 -0.028399
C29   C     C_R   0.593759 0.068332 0.479582 0.077635
C30   C     C_R   0.406240 0.931667 0.520418 0.077880
C31   C     C_R   0.907125 0.592311 0.019753 0.076286
C32   C     C_R   0.094830 0.464207 0.978741 0.076994
C33   C     C_R   0.514923 0.000579 0.529950 0.065600
C34   C     C_R   0.485077 0.999425 0.470051 0.065510
C35   C     C_R   0.985146 0.507712 0.970092 0.066626
C36   C     C_R   0.015433 0.514829 0.029554 0.064957
C37   C     C_R   0.512082 0.019942 0.417183 -0.119562
C38   C     C_R   0.487917 0.980060 0.582818 -0.119682
C39   C     C_R   0.990266 0.571970 0.081243 -0.112809
C40   C     C_R   0.011914 0.490624 0.916919 -0.116008
C41   C     C_R   0.564620 0.060762 0.422062 -0.196266
C42   C     C_R   0.435380 0.939238 0.577939 -0.196527
C43   C     C_R   0.937536 0.610556 0.076234 -0.193535
C44   C     C_R   0.065398 0.470939 0.921296 -0.197343
H1    H     H_    0.583005 0.082224 0.379844 0.129554
H2    H     H_    0.416994 0.917773 0.620156 0.129290
H3    H     H_    0.920415 0.658174 0.117229 0.130904
H4    H     H_    0.084063 0.462206 0.878847 0.128939
H5    H     H_    0.281567 0.848510 0.461542 0.130592
H6    H     H_    0.718433 0.151478 0.538458 0.130876
H7    H     H_    0.221397 0.425150 0.036935 0.129687
H8    H     H_    0.782354 0.669903 0.960066 0.131104
H9    H     H_    0.664157 0.146628 0.439708 0.130816
H10   H     H_    0.335842 0.853361 0.560292 0.130399
H11   H     H_    0.837285 0.685513 0.058164 0.130990
H12   H     H_    0.167357 0.435746 0.937976 0.130154
H13   H     H_    0.494309 0.001474 0.370695 0.213073
H14   H     H_    0.505690 0.998529 0.629305 0.212996
H15   H     H_    0.010753 0.602146 0.125799 0.209470
H16   H     H_    0.993204 0.505276 0.870606 0.208329
C45   C     C_R   0.427142 0.793569 0.079113 -0.130393
C46   C     C_R   0.572735 0.206374 0.920720 -0.130222
C47   C     C_R   0.072719 0.293710 0.420660 -0.130092
C48   C     C_R   0.927231 0.706292 0.579268 -0.130314
H17   H     H_    0.445177 0.662964 0.063805 0.106238
H18   H     H_    0.554600 0.336952 0.935893 0.106247
H19   H     H_    0.054569 0.163160 0.435785 0.106044
H20   H     H_    0.945350 0.836849 0.564098 0.106308
C49   C     C_R   0.387895 0.778617 0.119081 -0.162059
C50   C     C_R   0.611986 0.221333 0.880758 -0.161324
C51   C     C_R   0.111971 0.278763 0.380699 -0.153801
C52   C     C_R   0.887983 0.721243 0.619234 -0.162539
H21   H     H_    0.376551 0.636174 0.133618 0.119965
H22   H     H_    0.623230 0.363753 0.866085 0.119929
H23   H     H_    0.123199 0.136376 0.365980 0.119049
H24   H     H_    0.876725 0.863641 0.633910 0.120040
C53   C     C_R   0.363572 0.945819 0.139726 -0.047162
C54   C     C_R   0.636434 0.054168 0.860282 -0.047396
C55   C     C_R   0.136438 0.445889 0.360281 -0.045273
C56   C     C_R   0.863556 0.554108 0.639710 -0.047942
C57   C     C_R   0.379828 0.127890 0.119270 -0.149405
C58   C     C_R   0.620301 0.872126 0.880905 -0.150248
C59   C     C_R   0.120324 0.627886 0.380962 -0.155952
C60   C     C_R   0.879706 0.372097 0.619081 -0.150394
H25   H     H_    0.362206 0.260177 0.133850 0.120978
H26   H     H_    0.638026 0.739870 0.866464 0.120908
H27   H     H_    0.138065 0.760107 0.366568 0.120272
H28   H     H_    0.861997 0.239868 0.633522 0.120960
C61   C     C_R   0.418955 0.142341 0.079435 -0.135633
C62   C     C_R   0.581170 0.857668 0.920734 -0.135434
C63   C     C_R   0.081190 0.642331 0.420790 -0.134088
C64   C     C_R   0.918836 0.357647 0.579247 -0.135482
H29   H     H_    0.430495 0.284161 0.064444 0.105234
H30   H     H_    0.569727 0.715872 0.935856 0.105357
H31   H     H_    0.069759 0.784088 0.435959 0.105402
H32   H     H_    0.930296 0.215879 0.564120 0.105409
C65   C     C_R   0.442838 0.975587 0.059001 0.128641
C66   C     C_R   0.557160 0.024386 0.940996 0.128548
C67   C     C_R   0.057161 0.475645 0.440993 0.128628
C68   C     C_R   0.942825 0.524341 0.558987 0.128614
C69   C     C_1   0.483178 0.992323 0.017387 -0.055957
C70   C     C_1   0.516817 0.007647 0.982605 -0.055949
C71   C     C_1   0.016814 0.492349 0.482599 -0.055475
C72   C     C_1   0.983170 0.507632 0.517379 -0.055789
F1    F     F_    0.411435 0.053944 0.355260 -0.722946
F2    F     F_    0.588564 0.946070 0.644742 -0.723109
F3    F     F_    0.083127 0.439265 0.146850 -0.722133
F4    F     F_    0.910952 0.425761 0.858393 -0.719797

loop_
_geom_bond_atom_site_label_1
_geom_bond_atom_site_label_2
_ccdc_geom_bond_type
O17   V3    S    
C48   C52   A    
O1    C5    A    
C47   H19   S    
O19   V1    S    
C9    C21   A    
O3    C7    A    
C10   C18   A    
C48   C68   A    
C11   C23   A    
C22   F1    S    
C25   C33   A    
C33   C38   A    
C5    C12   S    
O7    C3    A    
C6    C11   S    
O5    C1    A    
C26   C30   A    
C58   C62   A    
C36   C39   A    
C40   C44   A    
C57   C61   A    
C14   C18   A    
C21   F2    S    
C58   H26   S    
O4    C8    A    
C51   H23   S    
C50   H22   S    
O1    V3    S    
O13   V1    S    
C31   C43   A    
O2    V4    S    
O3    V1    S    
C40   H16   S    
C46   C50   A    
C17   H6    S    
C45   C49   A    
C1    O15   A    
C15   C31   A    
C48   H20   S    
C2    O16   A    
C16   C32   A    
C47   C51   A    
O2    C6    A    
C16   H12   S    
C24   F3    S    
C45   C65   A    
C10   C22   A    
C21   C25   A    
C11   C19   A    
C43   H3    S    
C1    C55   S    
C68   C72   S    
C13   C29   A    
C34   C37   A    
O11   C7    A    
C38   H14   S    
O15   V3    S    
C35   C36   A    
O12   C8    A    
C53   C57   A    
O10   V2    S    
C51   C55   A    
O5    V1    S    
O17   V1    S    
C39   C43   A    
C63   C67   A    
C38   C42   A    
O19   V3    S    
O8    V4    S    
O20   V4    S    
O7    V3    S    
C46   H18   S    
C49   C53   A    
C45   H17   S    
O18   V4    S    
C15   C19   A    
C14   H10   S    
C32   C44   A    
C13   H9    S    
C60   H28   S    
C39   H15   S    
C44   H4    S    
C26   C34   A    
C66   C70   S    
C20   H7    S    
C4    C54   S    
C37   C41   A    
C67   C71   S    
C14   C30   A    
C24   C28   A    
O8    C4    A    
C7    C10   S    
C35   C40   A    
O9    C5    A    
C3    C53   S    
C59   C63   A    
C62   H30   S    
C61   H29   S    
O6    V2    S    
C65   C69   S    
O18   V2    S    
C63   H31   S    
C52   C56   A    
C69   C70   T    
C12   C20   A    
C27   C35   A    
C71   C72   T    
C49   H21   S    
C56   C60   A    
C29   C41   A    
O16   V4    S    
O9    V1    S    
C19   H8    S    
C57   H25   S    
C3    O13   A    
C18   H5    S    
C64   C68   A    
C59   H27   S    
O6    C2    A    
C23   C27   A    
O11   V3    S    
C30   C42   A    
O12   V4    S    
C22   C26   A    
C8    C9    S    
C23   F4    S    
C9    C17   A    
O10   C6    A    
C2    C56   S    
C37   H13   S    
C47   C67   A    
C60   C64   A    
C33   C34   A    
C42   H2    S    
C41   H1    S    
C52   H24   S    
O20   V2    S    
C12   C24   A    
C27   C31   A    
C13   C17   A    
C46   C66   A    
C25   C29   A    
O14   V2    S    
C62   C66   A    
C64   H32   S    
C16   C20   A    
C61   C65   A    
C50   C54   A    
C28   C36   A    
C54   C58   A    
C4    O14   A    
C55   C59   A    
O4    V2    S    
C28   C32   A    
C15   H11   S    
