data_mof_unit_65569.cif
_audit_creation_date              2012-12-11T16:58:03-0500
_audit_creation_method            fapswitch 2.2
_symmetry_space_group_name_H-M    P1
_symmetry_Int_Tables_number       1
_space_group_crystal_system       triclinic
_cell_length_a                    8.195875
_cell_length_b                    14.245459
_cell_length_c                    16.440189
_cell_angle_alpha                 92.871082
_cell_angle_beta                  93.028909
_cell_angle_gamma                 90.856989
_cell_volume                      1914.07214796

loop_
_atom_site_label
_atom_site_type_symbol
_atom_type_description
_atom_site_fract_x
_atom_site_fract_y
_atom_site_fract_z
_atom_type_partial_charge
Ba1   Ba    Ba6+2 0.152520 0.545410 0.458840 1.635693
Ba2   Ba    Ba6+2 0.657660 0.454590 0.541090 1.633695
C1    C     C_3   0.361488 0.781810 0.140415 -0.326409
C2    C     C_3   0.378467 0.751192 0.227652 0.325179
C3    C     C_3   0.495010 0.741046 0.642911 0.305722
C4    C     C_3   0.507303 0.847052 0.659174 -0.383735
C5    C     C_3   0.907795 0.196732 0.729361 0.354488
C6    C     C_3   0.894883 0.097503 0.758741 -0.353030
C7    C     C_3   0.428043 0.248263 0.773142 0.348213
C8    C     C_3   0.446838 0.217723 0.860358 -0.351355
C9    C     C_R   0.006224 0.938937 0.543099 -0.036438
C10   C     C_R   0.817589 0.804158 0.499566 0.043162
C11   C     C_R   0.670678 0.773964 0.459379 -0.295300
C12   C     C_3   0.897797 0.801130 0.269443 0.380533
C13   C     C_R   0.564677 0.837291 0.423581 0.021932
C14   C     C_R   0.609423 0.932161 0.422238 -0.136136
C15   C     C_R   0.758886 0.965207 0.459984 -0.010855
C16   C     C_R   0.862544 0.901963 0.501552 -0.029078
C17   C     C_R   0.946338 0.098236 0.499651 -0.027002
C18   C     C_R   0.049820 0.035017 0.541382 -0.005340
C19   C     C_R   0.990767 0.196155 0.502041 0.042601
C20   C     C_R   0.135482 0.226720 0.544270 -0.293203
C21   C     C_R   0.242400 0.163296 0.579307 0.016836
C22   C     C_R   0.198755 0.068176 0.579627 -0.144115
C23   C     C_3   0.907635 0.899982 0.238877 0.520456
C24   C     C_R   0.802980 0.061176 0.457845 -0.032146
C25   C     C_R   0.618298 0.538419 0.265128 -0.299245
C26   C     C_R   0.474193 0.489113 0.241868 0.033923
C27   C     C_R   0.420426 0.480694 0.159225 -0.123901
C28   C     C_R   0.513386 0.521182 0.099313 0.241796
C29   C     C_R   0.663284 0.566267 0.123967 -0.159018
C30   C     C_R   0.716383 0.573513 0.206562 -0.007169
C31   C     C_R   0.377980 0.517768 0.852403 -0.117734
C32   C     C_R   0.328512 0.511599 0.769529 0.001938
C33   C     C_R   0.282507 0.474832 0.910166 0.253803
C34   C     C_3   0.806266 0.340742 0.300402 0.305715
C35   C     C_R   0.187205 0.461442 0.743061 -0.285391
C36   C     C_R   0.085902 0.423861 0.798955 -0.004270
C37   C     C_R   0.134051 0.429350 0.882494 -0.166901
C38   C     C_3   0.786046 0.315004 0.209457 -0.374473
C39   C     C_3   0.998673 0.657891 0.699668 0.303074
C40   C     C_3   0.019116 0.683433 0.790662 -0.382511
C41   C     C_3   0.312430 0.261884 0.372324 0.309632
C42   C     C_3   0.304626 0.155897 0.355064 -0.384695
H1    H     H_    0.305387 0.685454 0.231559 0.088759
H2    H     H_    0.690107 0.259364 0.197731 0.136812
H3    H     H_    0.750165 0.377251 0.175455 0.056737
H4    H     H_    0.903268 0.288930 0.186836 0.132418
H5    H     H_    0.115429 0.632356 0.677461 0.006509
H6    H     H_    0.903913 0.601652 0.689626 0.076197
H7    H     H_    0.120871 0.735440 0.802875 0.133622
H8    H     H_    0.046359 0.620152 0.825030 0.063057
H9    H     H_    0.904547 0.714104 0.812524 0.132434
H10   H     H_    0.190499 0.286465 0.388208 0.006045
H11   H     H_    0.402210 0.277900 0.424240 0.068341
H12   H     H_    0.231415 0.795625 0.123451 0.148566
H13   H     H_    0.208618 0.137417 0.306444 0.130483
H14   H     H_    0.275658 0.119658 0.410720 0.060272
H15   H     H_    0.424430 0.130969 0.334876 0.125097
H16   H     H_    0.509307 0.737202 0.242293 -0.027273
H17   H     H_    0.405321 0.725534 0.098201 0.084859
H18   H     H_    0.616893 0.715085 0.627257 0.014762
H19   H     H_    0.405696 0.726072 0.590529 0.060897
H20   H     H_    0.601028 0.864705 0.709087 0.131929
H21   H     H_    0.542454 0.881446 0.603451 0.061582
H22   H     H_    0.387420 0.874415 0.676982 0.119183
H23   H     H_    0.435468 0.846786 0.134293 0.164087
H24   H     H_    0.868233 0.951450 0.286565 -0.061865
H25   H     H_    0.834961 0.199449 0.670686 0.093216
H26   H     H_    0.038042 0.212127 0.719302 -0.063152
H27   H     H_    0.765548 0.079297 0.768810 0.153070
H28   H     H_    0.940799 0.046618 0.712335 0.068760
H29   H     H_    0.969171 0.092161 0.816754 0.118130
H30   H     H_    0.296298 0.259191 0.758283 -0.064094
H31   H     H_    0.496115 0.315732 0.769424 0.093554
H32   H     H_    0.398793 0.272696 0.902524 0.081284
H33   H     H_    0.577793 0.206935 0.877610 0.155103
H34   H     H_    0.975158 0.799398 0.326822 0.003598
H35   H     H_    0.377458 0.151053 0.866238 0.115892
H36   H     H_    0.634776 0.700549 0.459188 0.073020
H37   H     H_    0.526712 0.980100 0.392773 0.076217
H38   H     H_    0.282104 0.020095 0.608481 0.071158
H39   H     H_    0.170351 0.300353 0.545495 0.069681
H40   H     H_    0.086230 0.893754 0.577133 0.099143
H41   H     H_    0.723064 0.106309 0.423723 0.101342
H42   H     H_    0.488580 0.557243 0.871278 0.107581
H43   H     H_    0.739120 0.594679 0.078801 0.101821
H44   H     H_    0.308450 0.441696 0.142155 0.114262
H45   H     H_    0.768852 0.785683 0.282404 -0.085395
H46   H     H_    0.055898 0.399272 0.925844 0.092544
H47   H     H_    0.659577 0.543978 0.328819 0.078011
H48   H     H_    0.150185 0.457352 0.678795 0.070896
H49   H     H_    0.035266 0.917427 0.224781 0.045388
H50   H     H_    0.687618 0.363153 0.322685 0.009446
H51   H     H_    0.897260 0.399187 0.310196 0.068503
N1    N     N_2   0.464744 0.516398 0.014293 -0.232218
N2    N     N_2   0.328341 0.478294 0.995664 -0.230680
O1    O     O_2   0.106830 0.727750 0.529310 -0.464625
O2    O     O_3   0.359212 0.304238 0.302059 -0.630891
O3    O     O_3   0.954511 0.736673 0.210224 -0.589363
O4    O     O_2   0.703470 0.272190 0.470670 -0.469486
O5    O     O_3   0.946880 0.388430 0.463740 -0.493781
O6    O     O_3   0.457930 0.329380 0.613970 -0.481923
O7    O     O_3   0.858568 0.261402 0.340348 -0.635965
O8    O     O_3   0.367050 0.547540 0.594170 -0.478097
O9    O     O_3   0.869040 0.376330 0.652460 -0.488462
O10   O     O_2   0.745949 0.433492 0.793223 -0.484183
O11   O     O_3   0.847081 0.260365 0.788021 -0.595968
O12   O     O_3   0.863420 0.611560 0.536200 -0.491762
O13   O     O_3   0.443250 0.452450 0.405760 -0.490033
O14   O     O_2   0.617170 0.545280 0.694550 -0.457301
O15   O     O_3   0.443676 0.699513 0.713086 -0.637829
O16   O     O_2   0.580618 0.163791 0.570267 -0.494747
O17   O     O_3   0.491434 0.178808 0.720499 -0.597482
O18   O     O_3   0.352370 0.670610 0.385960 -0.487664
O19   O     O_2   0.225862 0.835546 0.429476 -0.495970
O20   O     O_3   0.952883 0.738338 0.659604 -0.640929
O21   O     O_3   0.320611 0.822418 0.280342 -0.605840
O22   O     O_2   0.193140 0.454660 0.305430 -0.462755
O23   O     O_3   0.941260 0.623660 0.347470 -0.489717
O24   O     O_2   0.056165 0.563164 0.205913 -0.487180
P1    P     P_3+3 0.934880 0.713230 0.554140 0.974018
P2    P     P_3+3 0.367500 0.426600 0.319160 0.987043
P3    P     P_3+3 0.917819 0.622815 0.241168 0.965486
P4    P     P_3+3 0.875420 0.286760 0.445790 0.973058
P5    P     P_3+3 0.886645 0.374777 0.759186 0.955148
P6    P     P_3+3 0.365433 0.792683 0.380980 0.945426
P7    P     P_3+3 0.435529 0.577332 0.694947 0.949886
P8    P     P_3+3 0.443399 0.207529 0.619923 0.945315
F1    F     F_    0.806647 0.906294 0.169328 -0.691961

loop_
_geom_bond_atom_site_label_1
_geom_bond_atom_site_label_2
_ccdc_geom_bond_type
C38   H3    S    
C9    C16   A    
C23   H49   S    
C32   C35   A    
C39   C40   S    
C30   P3    S    
C17   C18   A    
O20   P1    S    
O5    P4    S    
C5    H26   S    
C26   P2    S    
C5    C6    S    
Ba2   O12   S    
C38   H2    S    
C3    H19   S    
C27   C28   A    
O16   P8    D    
C15   C24   A    
C26   C27   A    
C17   C19   A    
C41   O2    S    
C40   H9    S    
C28   C29   A    
O13   P2    S    
O12   P1    S    
Ba2   O5    S    
C42   H15   S    
C13   C14   A    
O18   P6    S    
C21   P8    S    
O1    P1    D    
Ba1   Ba2   S    
Ba1   O22   S    
C4    H20   S    
C17   C24   A    
C22   H38   S    
Ba1   P1    S    
C14   H37   S    
O24   P3    D    
C28   N1    S    
Ba1   O12   S    
C8    H32   S    
C4    H21   S    
O7    P4    S    
C18   C22   A    
C42   H14   S    
C14   C15   A    
C27   H44   S    
O19   P6    D    
O4    P4    D    
C21   C22   A    
C25   H47   S    
C7    C8    S    
C37   H46   S    
O8    P7    S    
C40   H7    S    
C11   H36   S    
C13   P6    S    
C19   C20   A    
C2    O21   S    
C23   H24   S    
C23   F1    S    
C39   H5    S    
C36   P5    S    
C8    H33   S    
C31   C32   A    
C2    H1    S    
C1    H17   S    
C36   C37   A    
Ba2   O14   S    
C9    C18   A    
C6    H28   S    
C29   H43   S    
C34   C38   S    
Ba2   O4    S    
Ba2   O9    S    
O3    P3    S    
Ba1   O23   S    
C40   H8    S    
C33   C37   A    
C41   C42   S    
Ba1   P2    S    
C12   H45   S    
C35   C36   A    
Ba1   O13   S    
C1    H12   S    
C41   H10   S    
C29   C30   A    
C42   H13   S    
N1    N2    D    
C2    H16   S    
C15   C16   A    
O6    P8    S    
C41   H11   S    
C11   C13   A    
O17   P8    S    
C7    H30   S    
C7    O17   S    
C19   P4    S    
C1    C2    S    
C39   H6    S    
O14   P7    D    
O2    P2    S    
C38   H4    S    
Ba2   O13   S    
C6    H27   S    
C35   H48   S    
C25   C30   A    
C5    O11   S    
C1    H23   S    
O10   P5    D    
Ba1   O1    S    
C5    H25   S    
C8    H35   S    
C12   O3    S    
C3    O15   S    
O22   P2    D    
C9    H40   S    
C7    H31   S    
O9    P5    S    
Ba2   O8    S    
C34   O7    S    
O11   P5    S    
C20   H39   S    
C34   H51   S    
C3    C4    S    
Ba2   O6    S    
C24   H41   S    
C6    H29   S    
C31   C33   A    
C3    H18   S    
C12   H34   S    
C12   C23   S    
O15   P7    S    
Ba2   P4    S    
C34   H50   S    
C4    H22   S    
C10   P1    S    
C10   C11   A    
C32   P7    S    
O21   P6    S    
C10   C16   A    
C25   C26   A    
C20   C21   A    
Ba1   O18   S    
C39   O20   S    
C33   N2    S    
Ba1   O5    S    
C31   H42   S    
O23   P3    S    
Ba1   O8    S    
