data_mof_unit_56070.cif
_audit_creation_date              2012-12-11T14:06:55-0500
_audit_creation_method            fapswitch 2.2
_symmetry_space_group_name_H-M    P1
_symmetry_Int_Tables_number       1
_space_group_crystal_system       triclinic
_cell_length_a                    6.924737
_cell_length_b                    17.286363
_cell_length_c                    24.100131
_cell_angle_alpha                 104.507068
_cell_angle_beta                  90.434692
_cell_angle_gamma                 89.97423
_cell_volume                      2792.80788085

loop_
_atom_site_label
_atom_site_type_symbol
_atom_type_description
_atom_site_fract_x
_atom_site_fract_y
_atom_site_fract_z
_atom_type_partial_charge
O1    O     O_R   0.494290 0.391990 0.999150 -0.535304
O2    O     O_R   0.827170 0.534410 0.082350 -0.542974
O3    O     O_R   0.994360 0.608010 0.000850 -0.535309
C1    C     C_R   0.658681 0.550706 0.106084 0.706938
O4    O     O_R   0.824210 0.388010 0.004470 -0.545886
O5    O     O_R   0.991370 0.460560 0.922410 -0.540576
C2    C     C_R   0.654546 0.354870 0.001468 0.775925
O6    O     O_R   0.497270 0.539440 0.077590 -0.540895
O7    O     O_3   0.659770 0.523970 0.973170 -0.371418
V1    V     V_3+5 0.935840 0.495550 0.004980 1.413474
O8    O     O_R   0.320910 0.465590 0.917650 -0.543261
C3    C     C_R   0.151422 0.449685 0.893904 0.706991
O9    O     O_R   0.323870 0.611990 0.995530 -0.545565
C4    C     C_R   0.154398 0.645128 0.998536 0.776429
V2    V     V_3+5 0.435470 0.504450 0.995020 1.414389
O10   O     O_3   0.161670 0.476030 0.026830 -0.371640
C5    C     C_2   0.142779 0.730284 0.998128 -0.338413
H1    H     H_    0.277192 0.761137 0.994760 0.150988
C6    C     C_2   0.972783 0.769775 0.002051 -0.336448
H2    H     H_    0.838372 0.738924 0.005425 0.150957
C7    C     C_R   0.995870 0.250830 0.627509 0.583200
N1    N     N_R   0.100342 0.319578 0.648876 -0.557242
C8    C     C_R   0.190758 0.357622 0.612567 0.576183
C9    C     C_R   0.178253 0.326873 0.552676 -0.026211
C10   C     C_R   0.070284 0.256824 0.530278 -0.014445
C11   C     C_R   0.978067 0.218332 0.567867 -0.029482
C12   C     C_R   0.269947 0.364781 0.514733 -0.146977
C13   C     C_R   0.254204 0.333708 0.455454 -0.139455
C14   C     C_R   0.146264 0.263970 0.432599 -0.017149
C15   C     C_R   0.054187 0.225313 0.470147 -0.008709
C16   C     C_R   0.945733 0.155354 0.447696 -0.025475
C17   C     C_R   0.854583 0.117310 0.485648 -0.114967
C18   C     C_R   0.870612 0.148383 0.544971 -0.130779
C19   C     C_R   0.127839 0.231814 0.373020 0.551218
N2    N     N_R   0.022627 0.163428 0.351722 -0.574466
C20   C     C_R   0.931667 0.125227 0.387742 0.596400
O11   O     O_2   0.910663 0.213500 0.663791 -0.517678
O12   O     O_2   0.290579 0.425633 0.634228 -0.519404
H3    H     H_    0.354072 0.418690 0.530691 0.169958
H4    H     H_    0.326767 0.364622 0.427617 0.176015
O13   O     O_2   0.214475 0.268582 0.336636 -0.523339
O14   O     O_2   0.828847 0.058164 0.365684 -0.490988
H5    H     H_    0.770506 0.063389 0.469661 0.191170
H6    H     H_    0.798184 0.117428 0.572807 0.179821
C21   C     C_R   0.162395 0.088609 0.258757 -0.011421
C22   C     C_R   0.146515 0.062649 0.198572 -0.170225
H7    H     H_    0.265208 0.030493 0.174140 0.168201
C23   C     C_R   0.977736 0.076551 0.169635 -0.101878
C24   C     C_R   0.823219 0.116764 0.201843 -0.149278
H8    H     H_    0.691308 0.128190 0.180814 0.133862
C25   C     C_R   0.839170 0.144553 0.261465 -0.018735
H9    H     H_    0.720018 0.177019 0.285388 0.134120
C26   C     C_R   0.007968 0.131397 0.290369 0.289915
C27   C     C_R   0.946705 0.376899 0.742656 -0.082372
H10   H     H_    0.806613 0.371182 0.721745 0.129113
C28   C     C_R   0.959092 0.408680 0.802037 -0.195535
H11   H     H_    0.827115 0.426384 0.825621 0.132240
C29   C     C_R   0.139299 0.417594 0.830496 -0.058502
C30   C     C_R   0.306734 0.393889 0.797813 -0.196331
H12   H     H_    0.447712 0.399391 0.818175 0.128983
C31   C     C_R   0.293932 0.361624 0.738423 -0.074081
H13   H     H_    0.424425 0.342997 0.714285 0.133101
C32   C     C_R   0.113784 0.352746 0.710276 0.370718
C33   C     C_R   0.458581 0.880706 0.612126 0.582430
N3    N     N_R   0.507230 0.833068 0.647851 -0.558712
C34   C     C_R   0.572638 0.756664 0.625925 0.576821
C35   C     C_R   0.592239 0.725803 0.566297 -0.025337
C36   C     C_R   0.543154 0.774088 0.529014 -0.013327
C37   C     C_R   0.475541 0.852054 0.552067 -0.065177
C38   C     C_R   0.659513 0.647831 0.543261 -0.139717
C39   C     C_R   0.678631 0.618207 0.484186 -0.153077
C40   C     C_R   0.631175 0.665757 0.446515 -0.019318
C41   C     C_R   0.562139 0.744221 0.468769 -0.008346
C42   C     C_R   0.512503 0.792440 0.431055 -0.107534
C43   C     C_R   0.437045 0.870647 0.454958 -0.034000
C44   C     C_R   0.424098 0.899460 0.514867 -0.135972
C45   C     C_R   0.649903 0.636053 0.386951 0.574577
N4    N     N_R   0.607046 0.683233 0.350644 -0.551840
C46   C     C_R   0.545088 0.760504 0.371334 0.555124
O15   O     O_2   0.395805 0.955858 0.634563 -0.515632
O16   O     O_2   0.617544 0.710351 0.661665 -0.515346
H14   H     H_    0.697943 0.609330 0.570812 0.177883
H15   H     H_    0.731253 0.557764 0.468149 0.171520
O17   O     O_2   0.709510 0.560189 0.365416 -0.520241
O18   O     O_2   0.521516 0.806442 0.334157 -0.519979
H16   H     H_    0.367015 0.958875 0.532514 0.195439
C47   C     C_R   0.455589 0.638952 0.254841 -0.090601
H17   H     H_    0.315656 0.655320 0.273970 0.114120
C48   C     C_R   0.467930 0.606138 0.195699 -0.189029
H18   H     H_    0.335925 0.598570 0.170536 0.130647
C49   C     C_R   0.647738 0.583904 0.169431 -0.058377
C50   C     C_R   0.814958 0.595414 0.204235 -0.195982
H19   H     H_    0.955703 0.579290 0.185638 0.128915
C51   C     C_R   0.802130 0.628106 0.263624 -0.074635
H20   H     H_    0.932305 0.636493 0.289627 0.119630
C52   C     C_R   0.622212 0.650264 0.289362 0.385647
C53   C     C_R   0.660410 0.874268 0.743675 -0.083534
C54   C     C_R   0.648083 0.902427 0.803265 -0.192512
H21   H     H_    0.780382 0.909364 0.828267 0.130339
C55   C     C_R   0.467865 0.920952 0.830153 -0.058263
C56   C     C_R   0.300323 0.910866 0.795507 -0.195507
H22   H     H_    0.159297 0.924495 0.814544 0.128972
C57   C     C_R   0.313089 0.882738 0.735712 -0.077948
H23   H     H_    0.182515 0.874842 0.709898 0.123045
C58   C     C_R   0.493289 0.863942 0.709345 0.376456
C59   C     C_2   0.642890 0.269697 0.001882 -0.341090
C60   C     C_2   0.472623 0.230253 0.997959 -0.339921
H24   H     H_    0.338042 0.261155 0.994588 0.150535
O19   O     O_R   0.618210 0.960470 0.922400 -0.541670
O20   O     O_R   0.291310 0.111960 0.995450 -0.546004
O21   O     O_R   0.124210 0.039530 0.077580 -0.541469
C61   C     C_R   0.460971 0.145095 0.998416 0.774082
O22   O     O_R   0.288310 0.965490 0.917650 -0.543494
O23   O     O_R   0.121180 0.892010 0.999220 -0.536002
C62   C     C_R   0.456896 0.950352 0.893809 0.704213
O24   O     O_R   0.621230 0.107990 0.000760 -0.536359
O25   O     O_3   0.455770 0.976060 0.026840 -0.368907
V3    V     V_3+5 0.179680 0.004440 0.995020 1.415919
O26   O     O_R   0.791670 0.888040 0.004570 -0.545081
C63   C     C_R   0.961151 0.854911 0.001591 0.775863
O27   O     O_R   0.794680 0.034510 0.082370 -0.538049
C64   C     C_R   0.964405 0.049063 0.106104 0.712603
V4    V     V_3+5 0.680070 0.995560 0.005010 1.426723
O28   O     O_3   0.953840 0.023940 0.973160 -0.373200
C65   C     C_2   0.357412 0.922570 0.419644 0.458650
H25   H     H_    0.283675 0.897046 0.379431 0.111410
O29   O     O_2   0.367493 0.995280 0.436264 -0.535591
H26   H     H_    0.800573 0.860297 0.724101 0.119349
H27   H     H_    0.777470 0.238794 0.005252 0.150021
C66   C     C_2   0.338374 0.069820 0.288397 0.433805
H28   H     H_    0.353164 0.090539 0.334587 0.093893
O30   O     O_2   0.468704 0.029962 0.261626 -0.509349

loop_
_geom_bond_atom_site_label_1
_geom_bond_atom_site_label_2
_ccdc_geom_bond_type
C59   H27   S    
C47   H17   S    
C56   H22   S    
O24   V4    S    
N2    C26   S    
C41   C42   A    
C20   O14   S    
N2    C20   A    
C9    C12   A    
C46   O18   S    
C1    O6    A    
O20   V3    S    
C53   C54   A    
V4    O28   S    
C21   C22   A    
C19   O13   S    
C40   C45   A    
O21   V3    S    
C13   C14   A    
C23   C64   S    
C15   C16   A    
C59   C60   D    
C13   H4    S    
V2    O10   S    
C54   H21   S    
C28   H11   S    
C37   C44   A    
C19   N2    A    
C60   C61   S    
C31   C32   A    
C50   H19   S    
N1    C32   S    
C27   H10   S    
O8    V2    S    
C6    H2    S    
N4    C52   S    
C36   C37   A    
C24   C25   A    
C60   H24   S    
C38   C39   A    
O1    V2    S    
C48   C49   A    
O7    V1    S    
C1    C49   S    
C3    C29   S    
C34   C35   A    
C21   C26   A    
C30   H12   S    
C56   C57   A    
O9    C4    A    
O21   C64   A    
C33   O15   S    
C4    C5    S    
C51   H20   S    
C55   C62   S    
C53   H26   S    
N3    C58   S    
C7    C11   A    
C39   H15   S    
N1    C8    A    
C22   C23   A    
C30   C31   A    
C42   C43   A    
C35   C36   A    
O8    C3    A    
C9    C10   A    
C12   H3    S    
C49   C50   A    
O4    C2    A    
N4    C46   A    
O19   V4    S    
C45   O17   S    
C36   C41   A    
C45   N4    A    
C14   C19   A    
C25   H9    S    
O22   C62   A    
C43   C65   S    
O2    C1    A    
C43   C44   A    
C14   C15   A    
C11   C18   A    
C16   C17   A    
C8    C9    A    
C47   C52   A    
C50   C51   A    
C5    H1    S    
C2    C59   S    
C7    O11   S    
C57   C58   A    
V3    O28   S    
C33   C37   A    
C51   C52   A    
O27   C64   A    
O23   V3    S    
O3    C4    A    
C23   C24   A    
C6    C63   S    
C24   H8    S    
O6    V2    S    
C54   C55   A    
C42   C46   A    
C47   C48   A    
C65   H25   S    
C29   C30   A    
O2    V1    S    
C44   H16   S    
C61   O24   A    
C10   C15   A    
C22   H7    S    
O1    C2    A    
C18   H6    S    
C40   C41   A    
O5    V1    S    
O26   C63   A    
C27   C28   A    
O26   V4    S    
C8    O12   S    
C66   O30   D    
C17   C18   A    
C35   C38   A    
O9    V2    S    
C66   H28   S    
C10   C11   A    
C53   C58   A    
O4    V1    S    
O3    V1    S    
V1    O10   S    
O25   V3    S    
C33   N3    A    
C34   O16   S    
O5    C3    A    
C55   C56   A    
C5    C6    D    
C17   H5    S    
C28   C29   A    
O25   V4    S    
C31   H13   S    
C38   H14   S    
O20   C61   A    
O27   V4    S    
O19   C62   A    
O22   V3    S    
C21   C66   S    
C39   C40   A    
N3    C34   A    
C27   C32   A    
C57   H23   S    
C65   O29   D    
C16   C20   A    
C25   C26   A    
C48   H18   S    
C7    N1    A    
O23   C63   A    
O7    V2    S    
C12   C13   A    
