data_mof_unit_22590.cif
_audit_creation_date              2012-12-10T19:35:02-0500
_audit_creation_method            fapswitch 2.2
_symmetry_space_group_name_H-M    P1
_symmetry_Int_Tables_number       1
_space_group_crystal_system       triclinic
_cell_length_a                    10.890153
_cell_length_b                    15.852314
_cell_length_c                    16.94159
_cell_angle_alpha                 96.436435
_cell_angle_beta                  93.140033
_cell_angle_gamma                 91.9488
_cell_volume                      2899.52190843

loop_
_atom_site_label
_atom_site_type_symbol
_atom_type_description
_atom_site_fract_x
_atom_site_fract_y
_atom_site_fract_z
_atom_type_partial_charge
C1    C     C_R   0.500813 0.489563 0.348704 0.872463
C2    C     C_R   0.485345 0.510375 0.650964 0.832727
C3    C     C_R   0.506917 0.484021 0.262320 -0.093487
C4    C     C_R   0.454813 0.515887 0.736823 -0.107190
C5    C     C_R   0.397404 0.471819 0.212947 0.089917
C6    C     C_R   0.438646 0.441332 0.775611 0.024424
C7    C     C_R   0.405259 0.468728 0.130836 -0.220569
C8    C     C_R   0.439852 0.449335 0.858199 -0.230238
C9    C     C_R   0.518656 0.478046 0.097027 0.301806
C10   C     C_R   0.447742 0.528378 0.904115 0.345193
C11   C     C_R   0.629040 0.485398 0.145042 0.005659
C12   C     C_R   0.439985 0.603734 0.866535 -0.006537
C13   C     C_R   0.623160 0.490198 0.228721 -0.075555
C14   C     C_R   0.438482 0.596270 0.781779 -0.073644
C15   C     C_R   0.440916 0.735597 0.448600 0.002983
C16   C     C_R   0.561912 0.263848 0.549736 -0.031944
C17   C     C_R   0.430479 0.820576 0.433571 -0.046401
C18   C     C_R   0.574672 0.178437 0.562975 -0.050059
C19   C     C_R   0.492026 0.885514 0.485481 0.348034
C20   C     C_R   0.509702 0.114079 0.512207 0.355673
C21   C     C_R   0.567908 0.861532 0.548357 -0.391515
C22   C     C_R   0.431353 0.138627 0.450925 -0.396919
C23   C     C_R   0.261204 0.500818 0.493159 0.770672
C24   C     C_R   0.738127 0.499294 0.509345 0.848586
C25   C     C_R   0.579325 0.775193 0.560022 0.195832
C26   C     C_R   0.421105 0.225038 0.439294 0.177573
C27   C     C_R   0.098542 0.356254 0.422151 -0.185768
C28   C     C_R   0.900996 0.635135 0.597104 -0.172593
C29   C     C_R   0.037361 0.276796 0.416317 -0.157546
C30   C     C_R   0.967748 0.711642 0.617337 -0.161110
C31   C     C_R   0.931736 0.266014 0.458070 0.138811
C32   C     C_R   0.075420 0.727652 0.579746 0.157608
C33   C     C_R   0.881045 0.338279 0.496338 -0.184538
C34   C     C_R   0.122250 0.661947 0.529062 -0.108006
C35   C     C_R   0.934172 0.420566 0.494029 0.066090
C36   C     C_R   0.065801 0.578912 0.518964 0.071746
C37   C     C_R   0.053763 0.427336 0.467726 0.072082
C38   C     C_R   0.945170 0.570522 0.543744 0.070535
C39   C     C_R   0.874062 0.495512 0.520178 -0.201831
C40   C     C_R   0.124746 0.504278 0.487185 -0.208306
Cu1   Cu    Cu3+1 0.493970 0.415220 0.496180 0.960214
Cu2   Cu    Cu3+1 0.506030 0.584780 0.503820 1.015544
H1    H     H_    0.618017 0.909977 0.589102 0.157810
H2    H     H_    0.380186 0.090428 0.410495 0.160350
H3    H     H_    0.179841 0.362411 0.389708 0.174902
H4    H     H_    0.818504 0.623545 0.627052 0.185892
H5    H     H_    0.074777 0.224006 0.381121 0.119830
H6    H     H_    0.934917 0.758825 0.661478 0.132175
H7    H     H_    0.804071 0.328369 0.531909 0.141298
H8    H     H_    0.200191 0.678287 0.496716 0.138845
H9    H     H_    0.431264 0.392742 0.888302 0.157035
H10   H     H_    0.322196 0.458603 0.092179 0.152515
H11   H     H_    0.615096 0.312054 0.588272 0.141183
H12   H     H_    0.388160 0.687438 0.410027 0.146215
N1    N     N_2   0.521939 0.478852 0.013844 -0.262426
N2    N     N_2   0.449763 0.529987 0.987771 -0.270699
N3    N     N_R   0.515100 0.712130 0.509560 -0.169791
N4    N     N_R   0.484900 0.287870 0.490440 -0.174722
N5    N     N_2   0.474690 0.972641 0.472826 -0.251179
N6    N     N_2   0.527204 0.026810 0.524142 -0.247591
O1    O     O_R   0.494360 0.420530 0.382500 -0.521112
O2    O     O_R   0.505640 0.579470 0.617500 -0.489095
O3    O     O_R   0.504550 0.563720 0.388950 -0.580298
O4    O     O_R   0.495450 0.436280 0.611050 -0.624794
O5    O     O_R   0.314560 0.428400 0.496770 -0.578046
O6    O     O_R   0.685440 0.571600 0.503230 -0.524619
O7    O     O_R   0.324750 0.571590 0.503220 -0.591490
O8    O     O_R   0.675250 0.428410 0.496780 -0.607918
C41   C     C_3   0.144630 0.812452 0.598140 -0.386808
C42   C     C_3   0.068759 0.885460 0.572107 -0.388487
C43   C     C_3   0.139835 0.970664 0.591747 -0.849442
H13   H     H_    0.228670 0.969822 0.562523 0.263872
H14   H     H_    0.084552 0.022084 0.570515 0.246829
H15   H     H_    0.158538 0.984731 0.657094 0.253005
H16   H     H_    0.045226 0.874308 0.507062 0.225295
H17   H     H_    0.981367 0.888741 0.603036 0.215665
H18   H     H_    0.167791 0.823735 0.663299 0.213223
H19   H     H_    0.232952 0.811731 0.568063 0.203824
C44   C     C_3   0.868663 0.180401 0.464212 -0.413642
C45   C     C_3   0.930898 0.102793 0.423910 -0.368788
C46   C     C_3   0.862301 0.020536 0.437713 -0.822198
H20   H     H_    0.861251 0.014514 0.502379 0.248549
H21   H     H_    0.766008 0.019430 0.412172 0.268331
H22   H     H_    0.909066 0.965313 0.408525 0.237294
H23   H     H_    0.931268 0.106392 0.358776 0.220290
H24   H     H_    0.027374 0.101232 0.448679 0.216845
H25   H     H_    0.864704 0.173023 0.528465 0.188420
H26   H     H_    0.772592 0.181148 0.438448 0.213770
C47   C     C_3   0.659353 0.157116 0.631097 -0.423621
C48   C     C_3   0.585814 0.130300 0.699481 -0.317957
C49   C     C_3   0.671259 0.109107 0.768260 -0.864047
H27   H     H_    0.729675 0.055676 0.748093 0.251802
H28   H     H_    0.731093 0.165436 0.791912 0.254090
H29   H     H_    0.615664 0.090047 0.816834 0.241407
H30   H     H_    0.526871 0.182644 0.721439 0.209813
H31   H     H_    0.525119 0.073554 0.678590 0.234632
H32   H     H_    0.719486 0.105201 0.609442 0.210884
H33   H     H_    0.720927 0.212954 0.653981 0.178657
C50   C     C_3   0.355313 0.839987 0.360551 -0.408341
C51   C     C_3   0.221075 0.853740 0.379039 -0.352360
C52   C     C_3   0.144635 0.872326 0.305268 -0.850005
H34   H     H_    0.179487 0.932058 0.284206 0.252060
H35   H     H_    0.148466 0.819284 0.256847 0.253992
H36   H     H_    0.047265 0.879768 0.320005 0.241117
H37   H     H_    0.181042 0.796065 0.401279 0.215519
H38   H     H_    0.216801 0.908470 0.425626 0.238719
H39   H     H_    0.394996 0.897178 0.337291 0.217652
H40   H     H_    0.359783 0.786765 0.312289 0.191146
C53   C     C_2   0.662323 0.759786 0.628070 0.332176
H41   H     H_    0.737032 0.805638 0.647594 0.024042
O9    O     O_2   0.644287 0.701806 0.667555 -0.572199
C54   C     C_2   0.342794 0.240262 0.368887 0.344560
H42   H     H_    0.267551 0.195299 0.348315 0.020652
O10   O     O_2   0.366862 0.295813 0.327759 -0.554787
C55   C     C_3   0.408308 0.352681 0.733097 -0.376638
C56   C     C_3   0.280917 0.348117 0.688564 -0.293595
C57   C     C_3   0.248896 0.259346 0.646167 -0.840711
H43   H     H_    0.317206 0.241154 0.601851 0.265958
H44   H     H_    0.247208 0.212018 0.689770 0.240853
H45   H     H_    0.156647 0.258556 0.614610 0.244602
H46   H     H_    0.209974 0.364777 0.731827 0.206687
H47   H     H_    0.276853 0.394379 0.644134 0.243083
H48   H     H_    0.481716 0.331163 0.694205 0.211474
H49   H     H_    0.405614 0.305113 0.776574 0.172591
C58   C     C_3   0.271142 0.458889 0.245025 -0.354482
C59   C     C_3   0.183595 0.529884 0.229212 -0.385513
C60   C     C_3   0.219384 0.612752 0.281217 -0.804223
H50   H     H_    0.215606 0.603434 0.345020 0.236202
H51   H     H_    0.313512 0.635082 0.269184 0.250719
H52   H     H_    0.153790 0.662013 0.267834 0.243082
H53   H     H_    0.181402 0.541133 0.165672 0.214840
H54   H     H_    0.088894 0.509558 0.242443 0.213549
H55   H     H_    0.229498 0.397526 0.215703 0.184096
H56   H     H_    0.276432 0.453330 0.309659 0.191993
C61   C     C_3   0.751198 0.494735 0.106654 -0.400672
C62   C     C_3   0.793833 0.588498 0.111638 -0.316687
C63   C     C_3   0.912366 0.598949 0.069112 -0.857977
H57   H     H_    0.986149 0.562367 0.095410 0.245954
H58   H     H_    0.896981 0.576225 0.004766 0.257930
H59   H     H_    0.942703 0.667081 0.075503 0.244590
H60   H     H_    0.721266 0.624980 0.083617 0.223596
H61   H     H_    0.810106 0.615556 0.174880 0.233784
H62   H     H_    0.822447 0.457599 0.134864 0.169592
H63   H     H_    0.743365 0.467316 0.043214 0.220651
C64   C     C_3   0.431843 0.693158 0.911538 -0.427875
C65   C     C_3   0.431696 0.703539 0.002866 -0.291757
C66   C     C_3   0.422328 0.796673 0.035727 -0.886583
H64   H     H_    0.501970 0.835072 0.018901 0.256680
H65   H     H_    0.335599 0.822295 0.012421 0.256006
H66   H     H_    0.422408 0.802185 0.101669 0.245993
H67   H     H_    0.351199 0.667728 0.022078 0.236211
H68   H     H_    0.518769 0.680648 0.028590 0.234925
H69   H     H_    0.511085 0.732555 0.895421 0.193701
H70   H     H_    0.345889 0.720782 0.889215 0.193925
C67   C     C_2   0.738689 0.501080 0.280492 0.328569
H71   H     H_    0.816074 0.461739 0.267200 0.064594
O11   O     O_2   0.749836 0.556200 0.337019 -0.535162
C68   C     C_2   0.405613 0.671491 0.740907 0.442342
H72   H     H_    0.447662 0.733725 0.760997 0.066673
O12   O     O_2   0.326249 0.665010 0.686547 -0.553713

loop_
_geom_bond_atom_site_label_1
_geom_bond_atom_site_label_2
_ccdc_geom_bond_type
C58   H56   S    
N1    N2    D    
C59   C60   S    
C27   C29   A    
Cu1   Cu2   S    
C41   H18   S    
C66   H64   S    
Cu1   O1    S    
C54   O10   D    
C64   C65   S    
C61   C62   S    
C50   H40   S    
C63   H58   S    
C28   H4    S    
C51   H37   S    
C52   H34   S    
C56   H47   S    
C14   C68   S    
C30   H6    S    
C66   H65   S    
C7    H10   S    
C37   C40   A    
C57   H44   S    
C38   C39   A    
C67   O11   D    
C33   H7    S    
C55   C56   S    
C24   C39   S    
C56   C57   S    
C15   C17   A    
C23   O7    A    
C16   H11   S    
C54   H42   S    
C45   H24   S    
C17   C19   A    
C21   H1    S    
C13   C67   S    
C28   C30   A    
C62   H61   S    
C31   C33   A    
C42   C43   S    
C9    N1    S    
C59   H54   S    
C20   N6    S    
C10   N2    S    
Cu2   O2    S    
C18   C20   A    
C3    C13   A    
C25   C53   S    
C64   H69   S    
C27   H3    S    
C61   H62   S    
C58   C59   S    
N5    N6    D    
C52   H35   S    
C68   O12   D    
C15   N3    A    
C41   H19   S    
C25   N3    A    
C1    O3    A    
Cu2   N3    S    
C44   H25   S    
C44   H26   S    
C46   H21   S    
C2    O4    A    
C46   H20   S    
Cu1   O8    S    
C63   H59   S    
C22   H2    S    
C34   H8    S    
C55   H48   S    
C56   H46   S    
C15   H12   S    
C36   C40   A    
C66   H66   S    
C4    C6    A    
C57   H45   S    
C49   H27   S    
C5    C7    A    
C62   C63   S    
Cu1   O5    S    
C19   N5    S    
C65   H67   S    
C47   H32   S    
C1    C3    S    
C32   C34   A    
C12   C64   S    
C2    C4    S    
C60   H51   S    
C45   H23   S    
C11   C61   S    
C49   H28   S    
C26   N4    A    
C50   C51   S    
C28   C38   A    
C16   N4    A    
C31   C44   S    
C17   C50   S    
C8    H9    S    
C10   C12   A    
C65   H68   S    
C64   H70   S    
C16   C18   A    
C61   H63   S    
C29   H5    S    
C52   H36   S    
C9    C11   A    
C42   H17   S    
Cu2   O7    S    
C20   C22   A    
C60   H50   S    
C26   C54   S    
C67   H71   S    
C46   H22   S    
C43   H14   S    
C65   C66   S    
C58   H55   S    
C7    C9    A    
C21   C25   A    
C55   H49   S    
C35   C37   A    
C18   C47   S    
C12   C14   A    
C45   C46   S    
C3    C5    A    
C1    O1    A    
Cu1   N4    S    
C43   H15   S    
C6    C8    A    
C48   H31   S    
C32   C41   S    
C24   O6    A    
C50   H39   S    
C63   H57   S    
C51   H38   S    
C47   H33   S    
C23   O5    A    
C53   O9    D    
C60   H52   S    
C43   H13   S    
C29   C31   A    
C53   H41   S    
C49   H29   S    
C30   C32   A    
C11   C13   A    
C48   C49   S    
C68   H72   S    
C59   H53   S    
C27   C37   A    
C35   C39   A    
C36   C38   A    
C51   C52   S    
C33   C35   A    
C62   H60   S    
C34   C36   A    
C4    C14   A    
C41   C42   S    
C6    C55   S    
C24   O8    A    
C44   C45   S    
C2    O2    A    
C8    C10   A    
C22   C26   A    
C5    C58   S    
C42   H16   S    
Cu2   O6    S    
Cu1   O4    S    
C47   C48   S    
C57   H43   S    
Cu2   O3    S    
C48   H30   S    
C23   C40   S    
C19   C21   A    
