data_mof_unit_10245.cif
_audit_creation_date              2012-12-11T17:02:11-0500
_audit_creation_method            fapswitch 2.2
_symmetry_space_group_name_H-M    P1
_symmetry_Int_Tables_number       1
_space_group_crystal_system       triclinic
_cell_length_a                    21.670818
_cell_length_b                    7.050683
_cell_length_c                    14.922865
_cell_angle_alpha                 89.998077
_cell_angle_beta                  106.653985
_cell_angle_gamma                 89.998524
_cell_volume                      2184.48076323

loop_
_atom_site_label
_atom_site_type_symbol
_atom_type_description
_atom_site_fract_x
_atom_site_fract_y
_atom_site_fract_z
_atom_type_partial_charge
O1    O     O_R   0.585850 0.505770 0.002130 -0.538073
O2    O     O_R   0.414150 0.005770 0.997870 -0.538081
O3    O     O_R   0.467530 0.173560 0.861970 -0.538737
O4    O     O_R   0.532470 0.673560 0.138030 -0.538748
C1    C     C_R   0.455406 0.344062 0.825273 0.686594
C2    C     C_R   0.544592 0.844051 0.174729 0.686583
O5    O     O_R   0.588690 0.175900 0.993250 -0.544787
O6    O     O_R   0.411310 0.675900 0.006750 -0.544786
O7    O     O_R   0.536170 0.007950 0.130090 -0.538067
O8    O     O_R   0.463830 0.507950 0.869910 -0.538053
C3    C     C_R   0.615204 0.344725 0.998804 0.707415
C4    C     C_R   0.384796 0.844728 0.001195 0.707423
O9    O     O_3   0.482630 0.339970 0.044740 -0.373767
O10   O     O_3   0.517370 0.839970 0.955260 -0.373748
V1    V     V_3+5 0.503220 0.064200 0.991700 1.423495
V2    V     V_3+5 0.496780 0.564200 0.008300 1.423487
C5    C     C_R   0.273157 0.984575 0.943647 0.076607
C6    C     C_R   0.726845 0.484524 0.056367 0.076604
C7    C     C_R   0.315966 0.852219 0.998388 -0.126133
C8    C     C_R   0.684034 0.352209 0.001611 -0.126130
C9    C     C_R   0.290516 0.720192 0.048837 -0.193673
C10   C     C_R   0.709485 0.220200 0.951154 -0.193724
H1    H     H_    0.321833 0.614013 0.091107 0.146005
H2    H     H_    0.678169 0.114034 0.908881 0.146033
C11   C     C_R   0.226354 0.733981 0.052534 0.149328
C12   C     C_R   0.773648 0.233988 0.947459 0.149286
C13   C     C_R   0.184305 0.875944 0.000816 -0.146723
C14   C     C_R   0.815694 0.375945 0.999180 -0.146732
C15   C     C_R   0.209020 0.994725 0.943977 0.071527
C16   C     C_R   0.790980 0.494677 0.056036 0.071512
C17   C     C_3   0.208566 0.205971 0.936602 0.016759
C18   C     C_3   0.791445 0.705917 0.063486 0.016746
C19   C     C_3   0.278581 0.194453 0.935732 -0.415333
C20   C     C_3   0.721428 0.694393 0.064353 -0.415337
H3    H     H_    0.202341 0.275805 0.000018 0.160895
H4    H     H_    0.797674 0.775865 0.000095 0.160893
H5    H     H_    0.312624 0.258750 0.998763 0.169134
H6    H     H_    0.687388 0.758789 0.001343 0.169144
H7    H     H_    0.286553 0.236759 0.868172 0.184910
H8    H     H_    0.713458 0.736589 0.131929 0.184951
C21   C     C_R   0.930555 0.888360 0.722587 -0.041433
C22   C     C_R   0.069445 0.388303 0.277410 -0.041397
C23   C     C_R   0.573082 0.846920 0.276088 -0.033898
C24   C     C_R   0.426904 0.347003 0.723921 -0.033783
C25   C     C_R   0.936838 0.994470 0.571605 -0.153699
C26   C     C_R   0.063119 0.494065 0.428423 -0.153712
C27   C     C_R   0.965401 0.970195 0.667026 -0.156078
C28   C     C_R   0.034573 0.469931 0.332988 -0.156072
C29   C     C_R   0.867137 0.828684 0.682131 -0.177916
C30   C     C_R   0.132875 0.328720 0.317856 -0.177919
C31   C     C_R   0.835056 0.867115 0.586951 0.087562
C32   C     C_R   0.164943 0.367089 0.413043 0.087579
C33   C     C_R   0.871782 0.947776 0.531615 0.121491
C34   C     C_R   0.128186 0.447473 0.468407 0.121477
C35   C     C_R   0.767504 0.836227 0.546153 0.059393
C36   C     C_R   0.232509 0.336399 0.453824 0.059381
C37   C     C_R   0.738428 0.880725 0.449583 0.046543
C38   C     C_R   0.261556 0.380642 0.550430 0.046512
C39   C     C_R   0.777834 0.954749 0.397116 -0.160492
C40   C     C_R   0.222118 0.454344 0.602932 -0.160490
C41   C     C_R   0.842998 0.987499 0.437549 -0.163220
C42   C     C_R   0.156948 0.487018 0.562499 -0.163278
C43   C     C_R   0.727667 0.768988 0.599517 -0.155938
C44   C     C_R   0.272390 0.269687 0.400404 -0.155929
C45   C     C_R   0.661867 0.746834 0.560566 -0.192005
C46   C     C_R   0.338204 0.247798 0.439340 -0.191993
C47   C     C_R   0.632997 0.786659 0.466556 0.134407
C48   C     C_R   0.367043 0.287324 0.533393 0.134426
C49   C     C_R   0.670691 0.852458 0.409154 0.085774
C50   C     C_R   0.329302 0.352539 0.590850 0.085781
C51   C     C_R   0.566538 0.757001 0.429087 -0.162621
C52   C     C_R   0.433523 0.257983 0.570843 -0.162615
C53   C     C_R   0.536962 0.784916 0.334250 -0.169808
C54   C     C_R   0.463077 0.285636 0.665709 -0.169884
C55   C     C_R   0.639006 0.882823 0.313048 -0.208797
C56   C     C_R   0.360954 0.382547 0.686992 -0.208728
H9    H     H_    0.870929 0.048702 0.395007 0.154457
H10   H     H_    0.128994 0.548015 0.605062 0.154523
H11   H     H_    0.664436 0.923834 0.263780 0.099747
H12   H     H_    0.335484 0.423021 0.736296 0.099660
H13   H     H_    0.486165 0.753370 0.305629 0.111721
H14   H     H_    0.513900 0.254404 0.694303 0.111677
H15   H     H_    0.633299 0.695923 0.604557 0.128877
H16   H     H_    0.366810 0.197345 0.395301 0.128860
H17   H     H_    0.964841 0.057815 0.529743 0.130338
H18   H     H_    0.035093 0.557215 0.470304 0.130345
H19   H     H_    0.014436 0.017819 0.697926 0.146988
H20   H     H_    0.985526 0.517467 0.302095 0.146991
H21   H     H_    0.843504 0.762230 0.728238 0.128117
H22   H     H_    0.156522 0.262332 0.271749 0.128125
H23   H     H_    0.759611 0.994324 0.324675 0.145437
H24   H     H_    0.240327 0.493786 0.675393 0.145506
H25   H     H_    0.745461 0.734223 0.672581 0.147350
H26   H     H_    0.254624 0.235231 0.327296 0.147449
H27   H     H_    0.537710 0.706669 0.472793 0.119689
H28   H     H_    0.462391 0.208148 0.527090 0.119676
O11   O     O_R   0.036080 0.231270 0.130120 -0.542277
O12   O     O_R   0.963920 0.731270 0.869880 -0.542272
O13   O     O_R   0.911300 0.558970 0.006750 -0.539537
O14   O     O_R   0.088700 0.058970 0.993250 -0.539535
C57   C     C_R   0.884297 0.389946 0.999437 0.737901
C58   C     C_R   0.115702 0.889943 0.000561 0.737940
O15   O     O_R   0.032450 0.561140 0.138040 -0.527223
O16   O     O_R   0.967550 0.061140 0.861960 -0.527242
O17   O     O_R   0.085870 0.728910 0.002130 -0.520247
O18   O     O_R   0.914130 0.228910 0.997870 -0.520264
C59   C     C_R   0.043319 0.392449 0.175398 0.730530
C60   C     C_R   0.956680 0.892460 0.824601 0.730529
O19   O     O_3   0.017320 0.394650 0.955270 -0.361177
O20   O     O_3   0.982680 0.894650 0.044730 -0.361189
V3    V     V_3+5 0.996780 0.670490 0.008300 1.538882
V4    V     V_3+5 0.003220 0.170490 0.991700 1.538857
I1    I     I_    0.202614 0.558751 0.152899 -0.501069
I2    I     I_    0.797395 0.058721 0.847112 -0.500926
I3    I     I_    0.144128 0.302370 0.807588 -0.465300
I4    I     I_    0.855887 0.802096 0.192545 -0.465235

loop_
_geom_bond_atom_site_label_1
_geom_bond_atom_site_label_2
_ccdc_geom_bond_type
C23   C53   A    
C46   C48   A    
C43   C45   A    
C21   C60   S    
C13   C15   A    
C5    C15   A    
O1    C3    A    
O2    C4    A    
C2    O7    A    
O18   V4    S    
O5    C3    A    
C19   H7    S    
C20   H8    S    
C18   H4    S    
C10   H2    S    
O15   V3    S    
C7    C9    A    
O19   V3    S    
C52   H28   S    
C37   C39   A    
C51   H27   S    
C38   C40   A    
O12   C60   A    
C58   O17   A    
C40   C42   A    
C21   C29   A    
C24   C56   A    
O20   V3    S    
C18   C20   S    
C33   C41   A    
C14   C57   S    
C30   H22   S    
C41   H9    S    
C45   C47   A    
C35   C43   A    
C30   C32   A    
C28   H20   S    
C6    C16   A    
C22   C59   S    
C47   C51   A    
C48   C52   A    
O5    V1    S    
O17   V3    S    
C25   C33   A    
O6    V2    S    
C5    C19   S    
C54   H14   S    
C53   H13   S    
C32   C34   A    
C25   C27   A    
C23   C55   A    
C26   C28   A    
C3    C8    S    
C39   C41   A    
C52   C54   A    
O19   V4    S    
C51   C53   A    
O11   V4    S    
C38   C50   A    
C22   C28   A    
C34   C42   A    
C31   C35   A    
C29   C31   A    
C19   H5    S    
C31   C33   A    
C44   C46   A    
O4    V2    S    
C25   H17   S    
C12   I2    S    
C11   I1    S    
O6    C4    A    
O13   V3    S    
C26   C34   A    
C17   C19   S    
C21   C27   A    
O1    V2    S    
C39   H23   S    
C18   I4    S    
C24   C54   A    
O2    V1    S    
C6    C20   S    
C22   C30   A    
O4    C2    A    
O13   C57   A    
C1    C24   S    
C8    C10   A    
O14   V4    S    
C2    C23   S    
C9    H1    S    
C50   C56   A    
C17   H3    S    
O16   C60   A    
O3    V1    S    
O16   V4    S    
O14   C58   A    
C57   O18   A    
C9    C11   A    
O12   V3    S    
C20   H6    S    
C42   H10   S    
C56   H12   S    
C29   H21   S    
O3    C1    A    
C11   C13   A    
C43   H25   S    
C13   C58   S    
C12   C14   A    
C37   C49   A    
C35   C37   A    
O7    V1    S    
C44   H26   S    
C1    O8    A    
C15   C17   S    
O8    V2    S    
C16   C18   S    
C36   C44   A    
C4    C7    S    
C14   C16   A    
C5    C7    A    
C36   C38   A    
C49   C55   A    
C6    C8    A    
C17   I3    S    
O20   V4    S    
C45   H15   S    
C46   H16   S    
O11   C59   A    
C48   C50   A    
C10   C12   A    
O9    V2    S    
O10   V1    S    
O15   C59   A    
C47   C49   A    
C40   H24   S    
C55   H11   S    
C32   C36   A    
C27   H19   S    
C26   H18   S    
