data_mof_unit_29687.cif
_audit_creation_date              2012-12-10T17:42:41-0500
_audit_creation_method            fapswitch 2.2
_symmetry_space_group_name_H-M    P1
_symmetry_Int_Tables_number       1
_space_group_crystal_system       triclinic
_cell_length_a                    9.950053
_cell_length_b                    10.702006
_cell_length_c                    13.178523
_cell_angle_alpha                 92.297395
_cell_angle_beta                  70.285498
_cell_angle_gamma                 88.533922
_cell_volume                      1318.86332163

loop_
_atom_site_label
_atom_site_type_symbol
_atom_type_description
_atom_site_fract_x
_atom_site_fract_y
_atom_site_fract_z
_atom_type_partial_charge
C1    C     C_R   0.498448 0.739043 0.498842 0.883111
C2    C     C_R   0.441204 0.491948 0.982059 0.073526
C3    C     C_R   0.474450 0.455947 0.872363 0.041212
C4    C     C_R   0.553107 0.489564 0.026083 0.036150
C5    C     C_R   0.693101 0.441579 0.963299 0.165073
C6    C     C_R   0.719837 0.394170 0.857222 0.131492
C7    C     C_R   0.608350 0.395450 0.816030 -0.191642
C8    C     C_R   0.529199 0.533533 0.131698 -0.269305
C9    C     C_R   0.768778 0.468950 0.119134 -0.208580
C10   C     C_R   0.373876 0.483850 0.820775 -0.083111
C11   C     C_R   0.438905 0.858348 0.324844 -0.170038
C12   C     C_R   0.421482 0.493069 0.703459 0.868117
C13   C     C_R   0.426392 0.915141 0.235665 -0.197882
C14   C     C_R   0.463971 0.037995 0.218764 -0.127584
C15   C     C_R   0.510488 0.106454 0.292782 0.198315
C16   C     C_R   0.499995 0.056319 0.394066 0.011375
C17   C     C_R   0.476122 0.927694 0.404709 0.072050
C18   C     C_R   0.496483 0.870642 0.492856 -0.146840
C19   C     C_R   0.528748 0.937142 0.573117 -0.331215
C20   C     C_R   0.541440 0.065662 0.569664 0.543394
C21   C     C_R   0.517721 0.125437 0.483502 -0.238290
C22   C     C_R   0.793174 0.664326 0.645109 -0.176825
C23   C     C_R   0.505022 0.259780 0.493597 0.961543
C24   C     C_R   0.829326 0.742442 0.718039 -0.208328
C25   C     C_R   0.968764 0.740862 0.719021 0.225850
C26   C     C_R   0.072211 0.660391 0.645903 -0.179853
C27   C     C_R   0.038569 0.579209 0.572141 0.067448
C28   C     C_R   0.894449 0.580115 0.571771 0.168899
C29   C     C_R   0.959283 0.424215 0.431249 -0.133971
C30   C     C_R   0.102613 0.424023 0.429558 0.238427
C31   C     C_R   0.579130 0.509598 0.297324 0.847955
C32   C     C_R   0.801298 0.437522 0.010130 -0.202889
C33   C     C_R   0.630067 0.510833 0.180606 -0.041881
C34   C     C_R   0.232870 0.520666 0.882563 -0.211384
C35   C     C_R   0.194007 0.538387 0.993718 -0.154005
C36   C     C_R   0.296905 0.527285 0.043220 -0.178939
H1    H     H_    0.849196 0.453126 0.156320 0.157012
H2    H     H_    0.419231 0.759852 0.329222 0.161723
H3    H     H_    0.395983 0.861367 0.176056 0.147559
H4    H     H_    0.466370 0.077385 0.143672 0.144966
H5    H     H_    0.929300 0.363616 0.375333 0.146640
H6    H     H_    0.685034 0.673759 0.648342 0.204617
H7    H     H_    0.747846 0.805081 0.773463 0.138475
H8    H     H_    0.178262 0.663975 0.648047 0.212012
H9    H     H_    0.908853 0.402459 0.965390 0.157717
H10   H     H_    0.429120 0.578851 0.180553 0.143665
H11   H     H_    0.153756 0.539542 0.844745 0.153932
H12   H     H_    0.258965 0.544624 0.129511 0.127278
H13   H     H_    0.084786 0.566178 0.041378 0.145739
H14   H     H_    0.627924 0.347858 0.738500 0.226143
H15   H     H_    0.540368 0.887277 0.639791 0.140340
N1    N     N_R   0.856860 0.501200 0.500990 -0.133084
N2    N     N_R   0.142450 0.501280 0.501020 -0.115802
O1    O     O_R   0.385310 0.683220 0.500000 -0.644108
O2    O     O_R   0.614640 0.683250 0.500010 -0.626389
O3    O     O_R   0.328400 0.499950 0.653610 -0.630914
O4    O     O_R   0.557730 0.499970 0.653620 -0.636439
O5    O     O_R   0.385360 0.316750 0.499990 -0.611424
O6    O     O_R   0.614690 0.316780 0.500000 -0.591196
O7    O     O_R   0.442270 0.500030 0.346380 -0.626135
O8    O     O_R   0.671600 0.500050 0.346390 -0.618691
Zn1   Zn    Zn3+2 0.346880 0.499980 0.499990 0.925173
Zn2   Zn    Zn3+2 0.653120 0.500020 0.500010 0.936736
C37   C     C_3   0.591682 0.219192 0.249399 -0.921537
H16   H     H_    0.654431 0.255053 0.298293 0.239426
H17   H     H_    0.671253 0.194912 0.168172 0.240450
H18   H     H_    0.515192 0.290030 0.239756 0.251931
O9    O     O_3   0.566174 0.137474 0.652121 -0.616518
C38   C     C_3   0.657134 0.073930 0.697513 -0.338230
H19   H     H_    0.748232 0.021949 0.635140 0.175028
H20   H     H_    0.703889 0.142688 0.739279 0.195433
H21   H     H_    0.595026 0.011058 0.759892 0.164829
C39   C     C_3   0.009145 0.825501 0.796797 -0.929316
H22   H     H_    0.916252 0.884650 0.848979 0.242529
H23   H     H_    0.050371 0.768454 0.849326 0.240410
H24   H     H_    0.093732 0.887901 0.751384 0.247194
C40   C     C_3   0.865722 0.342939 0.786090 -0.927158
H25   H     H_    0.868236 0.315333 0.703283 0.247168
H26   H     H_    0.945733 0.415730 0.778092 0.250480
H27   H     H_    0.896884 0.259325 0.821570 0.238263
C41   C     C_3   0.207869 0.338796 0.344647 -0.828201
H28   H     H_    0.281054 0.394037 0.281886 0.243198
H29   H     H_    0.265228 0.274667 0.380468 0.273895
H30   H     H_    0.153879 0.277540 0.301586 0.193807

loop_
_geom_bond_atom_site_label_1
_geom_bond_atom_site_label_2
_ccdc_geom_bond_type
O5    Zn1   S    
C23   O5    A    
C16   C21   A    
C38   H21   S    
C11   C13   A    
C39   H22   S    
C31   O8    A    
C35   C36   A    
C4    C8    A    
C41   H28   S    
C26   H8    S    
C40   H25   S    
C23   O6    A    
C26   C27   A    
C18   C19   A    
C3    C7    A    
C5    C6    A    
C15   C16   A    
O7    Zn1   S    
C34   C35   A    
C32   H9    S    
C38   H20   S    
C9    C32   A    
C19   C20   A    
O9    C38   S    
O2    Zn2   S    
C35   H13   S    
C15   C37   S    
C31   C33   S    
C5    C32   A    
C22   C28   A    
C13   C14   A    
C9    C33   A    
C39   H23   S    
C41   H29   S    
O4    Zn2   S    
C40   H26   S    
C30   N2    A    
C37   H18   S    
C24   C25   A    
C16   C17   A    
C6    C40   S    
O1    Zn1   S    
C25   C26   A    
C37   H17   S    
C31   O7    A    
C11   H2    S    
C2    C4    A    
C1    O1    A    
C29   C30   A    
N2    Zn1   S    
C9    H1    S    
C17   C18   A    
C1    C18   S    
C10   C34   A    
C12   O3    A    
C10   C12   S    
C12   O4    A    
C21   C23   S    
C39   H24   S    
C22   C24   A    
C41   H30   S    
C40   H27   S    
C2    C36   A    
C11   C17   A    
C29   H5    S    
C20   O9    S    
O8    Zn2   S    
C7    H14   S    
C4    C5    A    
N1    Zn2   S    
C27   N2    A    
C6    C7    A    
O6    Zn2   S    
C37   H16   S    
C30   C41   S    
C2    C3    A    
C1    O2    A    
C3    C10   A    
O3    Zn1   S    
C28   N1    A    
C22   H6    S    
C36   H12   S    
C25   C39   S    
C8    C33   A    
C38   H19   S    
C8    H10   S    
C13   H3    S    
C14   H4    S    
C19   H15   S    
C20   C21   A    
C27   C28   A    
C24   H7    S    
C14   C15   A    
C34   H11   S    
C29   N1    A    
