data_mof_unit_15656.cif
_audit_creation_date              2013-03-05T15:45:12-0500
_audit_creation_method            fapswitch 2.2
_symmetry_space_group_name_H-M    P1
_symmetry_Int_Tables_number       1
_space_group_crystal_system       triclinic
_cell_length_a                    11.500816
_cell_length_b                    11.540437
_cell_length_c                    19.513295
_cell_angle_alpha                 90.537015
_cell_angle_beta                  90.210862
_cell_angle_gamma                 59.965575
_cell_volume                      2242.03311547

loop_
_atom_site_label
_atom_site_type_symbol
_atom_site_description
_atom_site_fract_x
_atom_site_fract_y
_atom_site_fract_z
_atom_type_partial_charge
O1    O     O_R   0.267740 0.231990 0.575440 -0.491509
O2    O     O_R   0.527280 0.186680 0.570530 -0.491041
C1    C     C_R   0.640903 0.117503 0.599120 0.546740
O3    O     O_R   0.728090 0.003480 0.576380 -0.494826
O4    O     O_R   0.682970 0.789220 0.570490 -0.489888
C2    C     C_R   0.613064 0.745312 0.598482 0.549093
O5    O     O_R   0.499290 0.771920 0.575530 -0.495534
O6    O     O_R   0.285330 0.030900 0.569730 -0.489757
C3    C     C_R   0.240691 0.145427 0.598080 0.551125
O7    O     O_R   0.270980 0.227040 0.423900 -0.479809
O8    O     O_R   0.530280 0.182090 0.430050 -0.459474
C4    C     C_R   0.647888 0.116852 0.405021 0.578123
O9    O     O_R   0.731330 0.998530 0.424830 -0.445416
O10   O     O_R   0.685970 0.784630 0.430010 -0.442937
C5    C     C_R   0.618548 0.733708 0.403529 0.559620
O11   O     O_R   0.502530 0.766960 0.423990 -0.519734
O12   O     O_R   0.288330 0.026310 0.429250 -0.487231
C6    C     C_R   0.245137 0.140154 0.400404 0.571511
Cr1   Cr    Cr6+3 0.404720 0.198220 0.499960 1.133559
Cr2   Cr    Cr6+3 0.698290 0.897110 0.500380 1.148206
Cr3   Cr    Cr6+3 0.396970 0.904720 0.499610 1.096986
O13   O     O_3   0.499990 0.000020 0.499980 -0.304171
C7    C     C_1   0.669861 0.647165 0.860208 0.009980
C8    C     C_1   0.655368 0.683427 0.728387 -0.025544
C9    C     C_1   0.663360 0.667015 0.799704 -0.026665
C10   C     C_1   0.642116 0.703305 0.667869 0.013454
C11   C     C_1   0.126946 0.198789 0.859358 0.012247
C12   C     C_1   0.171258 0.170374 0.727657 -0.025030
C13   C     C_1   0.150229 0.182274 0.798943 -0.025553
C14   C     C_1   0.194901 0.161073 0.667269 0.012946
C15   C     C_1   0.677724 0.191623 0.860853 0.010506
C16   C     C_1   0.658747 0.167439 0.728964 -0.025428
C17   C     C_1   0.665133 0.181258 0.800321 -0.025879
C18   C     C_1   0.653625 0.149735 0.668506 0.013244
C19   C     C_R   0.567662 0.626467 0.304842 -0.056902
C20   C     C_R   0.596288 0.575672 0.239577 -0.134606
H1    H     H_    0.521776 0.561456 0.212441 0.174519
C21   C     C_R   0.708761 0.561240 0.205705 -0.048104
C22   C     C_R   0.809272 0.569727 0.242140 -0.121870
H2    H     H_    0.901572 0.548109 0.216834 0.197140
C23   C     C_R   0.788967 0.609151 0.311118 0.180257
C24   C     C_R   0.662050 0.650275 0.341096 -0.002104
C25   C     C_R   0.185867 0.273712 0.295937 -0.107822
H3    H     H_    0.190414 0.352342 0.324167 0.249069
C26   C     C_R   0.184161 0.279854 0.225359 0.141107
C27   C     C_R   0.165487 0.186345 0.187394 0.002811
C28   C     C_R   0.185010 0.067998 0.219396 0.149867
C29   C     C_R   0.199125 0.057635 0.290827 -0.118093
H4    H     H_    0.217943 0.966586 0.315749 0.205914
C30   C     C_R   0.197262 0.161305 0.329490 -0.056581
C31   C     C_R   0.798617 0.088005 0.308447 0.159527
C32   C     C_R   0.803738 0.099071 0.238178 -0.120755
H5    H     H_    0.898621 0.034619 0.212902 0.216650
C33   C     C_R   0.692119 0.195988 0.201400 -0.061047
C34   C     C_R   0.577023 0.287938 0.236774 -0.132048
H6    H     H_    0.495110 0.369333 0.209563 0.202995
C35   C     C_R   0.569938 0.278294 0.307855 0.148339
C36   C     C_R   0.676017 0.168041 0.342386 0.004697
O14   O     O_R   0.821500 0.119550 0.952820 -0.495074
O15   O     O_R   0.037130 0.162750 0.957360 -0.484302
C37   C     C_R   0.081972 0.231239 0.928660 0.554284
O16   O     O_R   0.056440 0.344950 0.951330 -0.494565
O17   O     O_R   0.797900 0.560570 0.957460 -0.490476
C38   C     C_R   0.683466 0.605202 0.929591 0.559769
O18   O     O_R   0.596140 0.579600 0.952720 -0.488255
O19   O     O_R   0.639070 0.321380 0.958660 -0.488195
C39   C     C_R   0.707762 0.206786 0.930247 0.552222
O20   O     O_R   0.821240 0.124490 0.104360 -0.497905
O21   O     O_R   0.036900 0.167320 0.097830 -0.468888
C40   C     C_R   0.090052 0.232414 0.123033 0.567740
O22   O     O_R   0.056190 0.349890 0.102870 -0.473957
O23   O     O_R   0.797670 0.565150 0.097930 -0.482248
C41   C     C_R   0.713155 0.543262 0.131919 0.556330
O24   O     O_R   0.595880 0.584540 0.104260 -0.470673
O25   O     O_R   0.638830 0.325960 0.099140 -0.508302
C42   C     C_R   0.712105 0.213894 0.129225 0.554540
Cr4   Cr    Cr6+3 0.926180 0.152240 0.028110 1.103859
Cr5   Cr    Cr6+3 0.921340 0.452070 0.027460 1.094708
Cr6   Cr    Cr6+3 0.626260 0.447120 0.028700 1.089500
O26   O     O_3   0.824590 0.350480 0.028090 -0.318410
C43   C     C_1   0.432087 0.668499 0.327384 0.327837
N1    N     N_1   0.323466 0.703456 0.345198 -0.087787
N2    N     N_R   0.457985 0.382728 0.344668 0.077975
O27   O     O_R   0.476993 0.424049 0.403731 -0.318747
O28   O     O_R   0.342014 0.451043 0.314950 -0.272342
N3    N     N_R   0.895485 0.610080 0.349184 0.085790
O29   O     O_R   0.927188 0.556099 0.409588 -0.314510
O30   O     O_R   0.971562 0.649422 0.320527 -0.215973
N4    N     N_R   0.207079 0.377671 0.192419 0.100688
O31   O     O_R   0.152059 0.499661 0.215844 -0.236607
O32   O     O_R   0.289226 0.342658 0.140628 -0.316720
N5    N     N_R   0.201000 0.955093 0.179711 0.084533
O33   O     O_R   0.260108 0.928721 0.120222 -0.299380
O34   O     O_R   0.177929 0.866264 0.207152 -0.278899
N6    N     N_R   0.918796 0.997543 0.344887 0.098328
O35   O     O_R   0.947138 0.034251 0.402914 -0.319684
O36   O     O_R   0.007011 0.884605 0.317006 -0.221075

loop_
_geom_bond_atom_site_label_1
_geom_bond_atom_site_label_2
_geom_bond_distance
_ccdc_geom_bond_type
C34   H6    1.082416 S    
O11   Cr3   2.053257 S    
O18   Cr6   2.040628 S    
C11   C13   1.202008 T    
C23   C24   1.416207 A    
O21   Cr4   1.925427 S    
N6    O35   1.301663 A    
C25   H3    1.080520 S    
O14   Cr4   2.044844 S    
C43   N1    1.157679 T    
C19   C43   1.450482 S    
C22   C23   1.399173 A    
O4    Cr2   1.925163 S    
C2    C10   1.423615 S    
C26   C27   1.405465 A    
C15   C39   1.426949 S    
O19   Cr6   1.935350 S    
O8    Cr1   1.929128 S    
C12   C13   1.406406 S    
C8    C10   1.199660 T    
C21   C22   1.399029 A    
N3    O30   1.300153 A    
C5    O11   1.255198 A    
C41   O24   1.301407 A    
C19   C24   1.429550 A    
O23   Cr5   1.933802 S    
C11   C37   1.427690 S    
O14   C39   1.266652 A    
C27   C28   1.419040 A    
C19   C20   1.367411 A    
O6    C3    1.274991 A    
C15   C17   1.201628 T    
C40   O22   1.274674 A    
N4    O32   1.301691 A    
C26   N4    1.438619 S    
C4    C36   1.468052 S    
C29   C30   1.399486 A    
O19   C39   1.274382 A    
Cr3   O13   1.979296 S    
C37   O16   1.268186 A    
C28   N5    1.439972 S    
C32   C33   1.408866 A    
O12   C6    1.283812 A    
O15   Cr4   1.928711 S    
O1    Cr1   2.048111 S    
C31   C32   1.382511 A    
C28   C29   1.401953 A    
O10   Cr2   1.933875 S    
Cr1   O13   1.980798 S    
O1    C3    1.268965 A    
C8    C9    1.402672 S    
C35   N2    1.436501 S    
C22   H2    1.081370 S    
N3    O29   1.301362 A    
C1    C18   1.427067 S    
O5    Cr3   2.037798 S    
O12   Cr3   1.919255 S    
Cr6   O26   1.974881 S    
O15   C37   1.273887 A    
C16   C18   1.201670 T    
O25   C42   1.283351 A    
C23   N3    1.434888 S    
N2    O27   1.302185 A    
O7    Cr1   2.039502 S    
N5    O34   1.300622 A    
O6    Cr3   1.935232 S    
C31   C36   1.404108 A    
C25   C26   1.379260 A    
C3    C14   1.427650 S    
C33   C42   1.460960 S    
C29   H4    1.081003 S    
N2    O28   1.298850 A    
Cr2   O13   1.974947 S    
O24   Cr6   2.053371 S    
C34   C35   1.398451 A    
C1    O3    1.267041 A    
C32   H5    1.082533 S    
C6    C30   1.464153 S    
Cr4   O26   1.980724 S    
O20   Cr4   2.045001 S    
C33   C34   1.393406 A    
C7    C38   1.423695 S    
O9    Cr2   2.041894 S    
O2    Cr1   1.924071 S    
O16   Cr5   2.051592 S    
C5    C24   1.470342 S    
O23   C41   1.304658 A    
O8    C4    1.270210 A    
N6    O36   1.300424 A    
C25   C30   1.404894 A    
C2    O5    1.266129 A    
O20   C42   1.254623 A    
C38   O18   1.265907 A    
C12   C14   1.201994 T    
O2    C1    1.270769 A    
C16   C17   1.405859 S    
C35   C36   1.420369 A    
O4    C2    1.271905 A    
O7    C6    1.262009 A    
C20   C21   1.387934 A    
N5    O33   1.301679 A    
Cr5   O26   1.979652 S    
C7    C9    1.199681 T    
O21   C40   1.276878 A    
C27   C40   1.468117 S    
O17   C38   1.270637 A    
O3    Cr2   2.051086 S    
C4    O9    1.276835 A    
C20   H1    1.085098 S    
O10   C5    1.288837 A    
N4    O31   1.299841 A    
O25   Cr6   1.922884 S    
C21   C41   1.450203 S    
O22   Cr5   2.036192 S    
C31   N6    1.438090 S    
O17   Cr5   1.920256 S    
