data_mof_unit_29172.cif
_audit_creation_date              2012-12-10T20:33:59-0500
_audit_creation_method            fapswitch 2.2
_symmetry_space_group_name_H-M    P1
_symmetry_Int_Tables_number       1
_space_group_crystal_system       triclinic
_cell_length_a                    21.709664
_cell_length_b                    21.703992
_cell_length_c                    21.206738
_cell_angle_alpha                 121.608124
_cell_angle_beta                  120.985812
_cell_angle_gamma                 89.008533
_cell_volume                      6845.32655198

loop_
_atom_site_label
_atom_site_type_symbol
_atom_type_description
_atom_site_fract_x
_atom_site_fract_y
_atom_site_fract_z
_atom_type_partial_charge
C1    C     C_R   0.085106 0.585819 0.671421 0.837396
C2    C     C_R   0.488303 0.630883 0.816743 0.439563
C3    C     C_3   0.560144 0.679609 0.352295 -0.194552
C4    C     C_3   0.343763 0.463012 0.222746 -0.074761
C5    C     C_3   0.195650 0.342604 0.537097 -0.162719
C6    C     C_3   0.743490 0.851038 0.546010 -0.287796
C7    C     C_3   0.871912 0.113177 0.941220 -0.165556
C8    C     C_3   0.590696 0.977120 0.796313 -0.121529
C9    C     C_3   0.457160 0.226215 0.102738 -0.269906
C10   C     C_3   0.319007 0.158083 0.206228 -0.205632
C11   C     C_3   0.262140 0.621151 0.705838 -0.271691
C12   C     C_3   0.465622 0.597221 0.890597 -0.149270
C13   C     C_R   0.530815 0.701755 0.848400 0.277614
C14   C     C_R   0.118054 0.497624 0.496614 0.954956
C15   C     C_R   0.504352 0.722344 0.787535 0.202708
C16   C     C_R   0.433416 0.675442 0.700276 -0.230645
C17   C     C_R   0.391486 0.605991 0.670055 0.081931
C18   C     C_1   0.136089 0.636756 0.773032 -0.264600
C19   C     C_1   0.179150 0.679167 0.857667 0.017213
C20   C     C_1   0.230106 0.729264 0.957562 0.109944
C21   C     C_1   0.272703 0.771611 0.042247 0.099841
C22   C     C_R   0.995176 0.214163 0.249205 0.397023
C23   C     C_1   0.322386 0.821430 0.142198 0.060517
C24   C     C_1   0.364303 0.863624 0.226893 -0.150185
C25   C     C_R   0.979385 0.476560 0.734502 0.282334
C26   C     C_R   0.913882 0.414179 0.328569 0.904040
C27   C     C_R   0.911655 0.459530 0.653752 0.286257
C28   C     C_R   0.888099 0.520690 0.653948 -0.291781
C29   C     C_R   0.927734 0.596248 0.736586 0.325184
C30   C     C_R   0.984933 0.610068 0.820987 0.220189
C31   C     C_R   0.013611 0.550272 0.819784 0.145925
C32   C     C_R   0.752859 0.509032 0.569778 -0.083496
C33   C     C_R   0.245162 0.425094 0.426853 0.494528
C34   C     C_R   0.686377 0.502414 0.497775 -0.189430
C35   C     C_R   0.683524 0.496359 0.426536 -0.068039
C36   C     C_R   0.750061 0.499153 0.431053 0.443086
C37   C     C_R   0.815398 0.502452 0.501913 -0.224921
C38   C     C_R   0.881257 0.501518 0.502196 0.925335
C39   C     C_R   0.817483 0.507755 0.571967 0.143014
C40   C     C_R   0.581361 0.426607 0.258084 -0.153843
C41   C     C_R   0.523386 0.425500 0.184756 -0.345814
C42   C     C_R   0.497302 0.488004 0.201033 0.409171
C43   C     C_R   0.529831 0.552313 0.292137 0.465139
C44   C     C_R   0.312619 0.491894 0.500910 -0.305545
C45   C     C_R   0.586974 0.552086 0.365501 -0.351065
C46   C     C_R   0.614117 0.490196 0.349114 0.106946
C47   C     C_1   0.862240 0.363256 0.226938 -0.171464
C48   C     C_1   0.819524 0.320881 0.142251 0.009727
C49   C     C_1   0.769583 0.270786 0.042304 0.035224
C50   C     C_R   0.063311 0.229957 0.327796 -0.247249
C51   C     C_1   0.727428 0.228439 0.957623 0.015748
C52   C     C_1   0.677809 0.178598 0.857702 0.000806
C53   C     C_1   0.635800 0.136403 0.773031 -0.188826
C54   C     C_R   0.500591 0.621885 0.500628 0.953481
C55   C     C_R   0.317519 0.554166 0.577546 -0.088446
C56   C     C_R   0.378543 0.497024 0.500234 1.029710
C57   C     C_R   0.496957 0.378705 0.500096 1.000449
C58   C     C_R   0.621119 0.501265 0.499236 0.968254
C59   C     C_R   0.500093 0.120673 0.501588 0.879455
C60   C     C_R   0.414548 0.914304 0.328559 0.866631
C61   C     C_R   0.501048 0.880512 0.500731 0.866473
C62   C     C_R   0.124345 0.299515 0.388185 0.547625
C63   C     C_R   0.585463 0.085676 0.671423 0.843913
C64   C     C_R   0.246997 0.521100 0.271042 -0.313696
C65   C     C_R   0.321586 0.566977 0.315101 0.477833
C66   C     C_R   0.251219 0.558367 0.571407 0.495764
C67   C     C_R   0.356088 0.641687 0.399608 -0.164814
C68   C     C_R   0.314872 0.668511 0.437889 0.314495
C69   C     C_R   0.242710 0.620015 0.393948 -0.291254
C70   C     C_R   0.208779 0.546863 0.311190 0.434123
C71   C     C_R   0.435527 0.754541 0.441588 -0.121347
C72   C     C_R   0.504002 0.815537 0.502209 -0.182585
C73   C     C_R   0.573214 0.816243 0.566438 0.022967
C74   C     C_R   0.117051 0.353185 0.368375 0.120127
C75   C     C_R   0.574105 0.750625 0.564377 0.394348
C76   C     C_R   0.503005 0.688895 0.502527 -0.194349
C77   C     C_R   0.183680 0.494863 0.496433 -0.264036
C78   C     C_R   0.433053 0.693134 0.445157 0.161479
C79   C     C_R   0.692503 0.907803 0.627512 0.529539
C80   C     C_R   0.754767 0.978234 0.699054 -0.304478
C81   C     C_R   0.770457 0.026042 0.785948 0.501329
C82   C     C_R   0.719736 0.005804 0.800002 -0.376041
C83   C     C_R   0.654082 0.938295 0.727962 0.454639
C84   C     C_R   0.641359 0.888924 0.642002 -0.024898
C85   C     C_R   0.452812 0.185569 0.208908 -0.366121
C86   C     C_R   0.048314 0.337441 0.290342 -0.210042
C87   C     C_R   0.447340 0.190672 0.274641 0.510775
C88   C     C_R   0.182067 0.425568 0.429594 -0.130553
C89   C     C_R   0.507843 0.243884 0.368883 0.023188
C90   C     C_R   0.571694 0.292948 0.396204 -0.260574
C91   C     C_R   0.575340 0.289292 0.330492 -0.142568
C92   C     C_R   0.515967 0.236561 0.236591 0.544148
C93   C     C_R   0.505749 0.187084 0.442019 -0.130192
C94   C     C_R   0.498791 0.187516 0.503650 -0.165550
C95   C     C_R   0.488078 0.249444 0.563814 -0.060498
C96   C     C_R   0.487493 0.314107 0.563964 0.451213
C97   C     C_R   0.495765 0.313050 0.501022 -0.239233
C98   C     C_R   0.988326 0.267763 0.230354 -0.272892
C99   C     C_R   0.420547 0.582735 0.726872 -0.299852
C100  C     C_R   0.503322 0.248885 0.438915 0.022988
C101  C     C_R   0.414514 0.214563 0.610425 0.393325
C102  C     C_R   0.418530 0.208876 0.676394 0.302117
C103  C     C_R   0.489260 0.241378 0.761757 -0.240808
C104  C     C_R   0.556062 0.276802 0.781994 -0.167361
C105  C     C_R   0.553887 0.279017 0.716675 -0.159756
C106  C     C_R   0.484280 0.248202 0.631108 0.016583
C107  C     C_3   0.059688 0.417398 0.709697 -0.078011
C108  C     C_3   0.950995 0.694259 0.731309 -0.170056
C109  C     C_3   0.761884 0.566788 0.381532 -0.206228
H1    H     H_    0.411704 0.691483 0.654296 0.226349
H2    H     H_    0.792307 0.996271 0.688191 0.176695
H3    H     H_    0.731007 0.042954 0.866623 0.181577
H4    H     H_    0.408281 0.141207 0.136735 0.168302
H5    H     H_    0.041646 0.378348 0.274963 0.213805
H6    H     H_    0.618436 0.334390 0.468506 0.187182
H7    H     H_    0.624528 0.327955 0.352515 0.172000
H8    H     H_    0.512093 0.137616 0.395050 0.174843
H9    H     H_    0.493113 0.239190 0.813446 0.201953
H10   H     H_    0.610114 0.301386 0.848134 0.181901
H11   H     H_    0.606895 0.304868 0.732708 0.172982
H12   H     H_    0.754246 0.514097 0.624243 0.179445
H13   H     H_    0.936807 0.255294 0.168660 0.175277
H14   H     H_    0.389225 0.527268 0.701416 0.188481
H15   H     H_    0.828223 0.173010 0.151615 0.358584
H16   H     H_    0.664574 0.777346 0.090942 0.391640
H17   H     H_    0.485229 0.871325 0.829619 0.361515
H18   H     H_    0.105732 0.458846 0.905758 0.398383
H19   H     H_    0.106789 0.474070 0.760168 0.155237
H20   H     H_    0.030265 0.400898 0.639304 0.169995
H21   H     H_    0.086040 0.373737 0.712131 0.193156
H22   H     H_    0.762397 0.338380 0.429880 0.369001
H23   H     H_    0.069868 0.187597 0.341152 0.214939
H24   H     H_    0.931208 0.741168 0.729587 0.188350
H25   H     H_    0.947426 0.655296 0.667906 0.123391
H26   H     H_    0.011593 0.721101 0.792987 0.181281
H27   H     H_    0.977339 0.798633 0.966300 0.393579
H28   H     H_    0.784971 0.567762 0.345888 0.196031
H29   H     H_    0.803702 0.615177 0.456182 0.148940
H30   H     H_    0.706703 0.576837 0.353513 0.156251
H31   H     H_    0.331398 0.527933 0.073558 0.396180
H32   H     H_    0.584236 0.668803 0.313521 0.156133
H33   H     H_    0.606358 0.702436 0.424366 0.168368
H34   H     H_    0.602412 0.378842 0.244038 0.212500
H35   H     H_    0.534663 0.724870 0.354835 0.218700
H36   H     H_    0.050271 0.367627 0.155120 0.376874
H37   H     H_    0.291253 0.434002 0.151488 0.165064
H38   H     H_    0.338757 0.438032 0.255014 0.133934
H39   H     H_    0.391456 0.450577 0.218166 0.156062
H40   H     H_    0.443975 0.862960 0.614899 0.380976
H41   H     H_    0.199699 0.403740 0.568095 0.127193
H42   H     H_    0.247901 0.342385 0.589534 0.230175
H43   H     H_    0.145374 0.309151 0.521853 0.147204
H44   H     H_    0.784587 0.808118 0.729263 0.400358
H45   H     H_    0.499937 0.376413 0.115122 0.212769
H46   H     H_    0.785100 0.847512 0.602626 0.193890
H47   H     H_    0.770560 0.899126 0.552771 0.174389
H48   H     H_    0.727096 0.796795 0.480640 0.175952
H49   H     H_    0.877586 0.061761 0.940579 0.197073
H50   H     H_    0.843515 0.143314 0.973685 0.173766
H51   H     H_    0.930692 0.153868 0.984925 0.192903
H52   H     H_    0.581510 0.018411 0.779072 0.092950
H53   H     H_    0.637662 0.006593 0.870259 0.200909
H54   H     H_    0.537676 0.954045 0.784467 0.216660
H55   H     H_    0.429400 0.266364 0.128487 0.144996
H56   H     H_    0.612087 0.601374 0.435150 0.199357
H57   H     H_    0.416785 0.165762 0.049495 0.185372
H58   H     H_    0.471744 0.241839 0.068755 0.206228
H59   H     H_    0.328962 0.220985 0.248178 0.199652
H60   H     H_    0.273205 0.128607 0.200552 0.210598
H61   H     H_    0.297891 0.135923 0.135503 0.145122
H62   H     H_    0.434852 0.423462 0.724059 0.381441
H63   H     H_    0.302255 0.075062 0.383697 0.370605
H64   H     H_    0.390695 0.100633 0.713324 0.348585
H65   H     H_    0.172615 0.220292 0.222905 0.377171
H66   H     H_    0.323860 0.641181 0.760992 0.158477
H67   H     H_    0.217403 0.465594 0.204387 0.203879
H68   H     H_    0.232839 0.562617 0.679079 0.115644
H69   H     H_    0.238305 0.661358 0.738360 0.201101
H70   H     H_    0.414737 0.543941 0.830086 0.111309
H71   H     H_    0.447630 0.648434 0.914346 0.142707
H72   H     H_    0.495333 0.591335 0.947109 0.223275
H73   H     H_    0.211179 0.640730 0.422659 0.245539
H74   H     H_    0.382614 0.757715 0.396235 0.181678
O1    O     O_R   0.063140 0.511430 0.626300 -0.637009
O2    O     O_R   0.448260 0.091600 0.499970 -0.612456
O3    O     O_R   0.488590 0.936860 0.373720 -0.599010
O4    O     O_R   0.063120 0.614850 0.626270 -0.592504
O5    O     O_R   0.385150 0.936860 0.373710 -0.565094
O6    O     O_R   0.551740 0.908400 0.500030 -0.592116
O7    O     O_R   0.448290 0.908400 0.500030 -0.594611
O8    O     O_R   0.614850 0.063140 0.626290 -0.593813
O9    O     O_R   0.511410 0.063140 0.626280 -0.612264
O10   O     O_R   0.091630 0.448290 0.500020 -0.674384
O11   O     O_R   0.091620 0.551710 0.499990 -0.534530
O12   O     O_R   0.535650 0.627270 0.571300 -0.548081
O13   O     O_R   0.936880 0.385150 0.373730 -0.596691
O14   O     O_R   0.936860 0.488570 0.373700 -0.579877
O15   O     O_R   0.908380 0.448290 0.500010 -0.579605
O16   O     O_R   0.908370 0.551710 0.499980 -0.622738
O17   O     O_R   0.464370 0.556010 0.428710 -0.632089
O18   O     O_2   0.936401 0.065003 0.110751 -0.227864
O19   O     O_2   0.912900 0.103271 0.225121 -0.223386
O20   O     O_3   0.836453 0.132925 0.107346 -0.550225
O21   O     O_2   0.683529 0.750639 0.963640 -0.199760
O22   O     O_2   0.622348 0.846074 0.004740 -0.196849
O23   O     O_R   0.372740 0.464390 0.428700 -0.592542
O24   O     O_3   0.614160 0.743424 0.030216 -0.513913
O25   O     O_2   0.642151 0.818597 0.871116 -0.119910
O26   O     O_2   0.534498 0.790983 0.727380 -0.214277
O27   O     O_3   0.540101 0.881973 0.873527 -0.488060
O28   O     O_2   0.147953 0.641675 0.990387 -0.212401
O29   O     O_2   0.051674 0.558751 0.966616 -0.206975
O30   O     O_3   0.130067 0.497397 0.906196 -0.521191
O31   O     O_3   0.007854 0.418361 0.731298 -0.521581
O32   O     O_2   0.891499 0.327142 0.509075 -0.285349
O33   O     O_2   0.852447 0.316597 0.592944 -0.180218
O34   O     O_R   0.444020 0.535650 0.571290 -0.607324
O35   O     O_3   0.764689 0.348266 0.482387 -0.571623
O36   O     O_3   0.903413 0.655171 0.735270 -0.509787
O37   O     O_2   0.025375 0.691721 0.994750 -0.162067
O38   O     O_2   0.091229 0.751133 0.964460 -0.308547
O39   O     O_3   0.952194 0.746610 0.906954 -0.459872
O40   O     O_3   0.750614 0.493615 0.363115 -0.609467
O41   O     O_2   0.465400 0.527828 0.091319 -0.288387
O42   O     O_2   0.379710 0.404525 0.021814 -0.288966
O43   O     O_3   0.368493 0.530962 0.129000 -0.468330
O44   O     O_3   0.502327 0.612927 0.308513 -0.534377
O45   O     O_R   0.464350 0.372770 0.428700 -0.624191
O46   O     O_2   0.098411 0.511734 0.321747 -0.329748
O47   O     O_2   0.059838 0.503512 0.185978 -0.235342
O48   O     O_3   0.106081 0.396075 0.197035 -0.520359
O49   O     O_3   0.360276 0.543750 0.275180 -0.527944
O50   O     O_2   0.302150 0.806780 0.498302 -0.263802
O51   O     O_2   0.323922 0.763466 0.591172 -0.267522
O52   O     O_3   0.439204 0.811486 0.601488 -0.512006
O53   O     O_3   0.194284 0.309858 0.458650 -0.534819
O54   O     O_2   0.664617 0.768295 0.723321 -0.161202
O55   O     O_2   0.668421 0.670369 0.597125 -0.350013
O56   O     O_R   0.535630 0.444040 0.571290 -0.580955
O57   O     O_3   0.740687 0.811510 0.683254 -0.600634
O58   O     O_3   0.676534 0.857992 0.540855 -0.605201
O59   O     O_3   0.832926 0.094448 0.852426 -0.595079
O60   O     O_3   0.604334 0.914814 0.740229 -0.528367
O61   O     O_3   0.525242 0.232598 0.174610 -0.601458
O62   O     O_3   0.385131 0.141092 0.247630 -0.603980
O63   O     O_2   0.544931 0.461970 0.712051 -0.263654
O64   O     O_2   0.411057 0.413138 0.581058 -0.305157
O65   O     O_3   0.442924 0.375953 0.688267 -0.545883
O66   O     O_2   0.265283 0.202085 0.521491 -0.185216
O67   O     O_R   0.555980 0.464390 0.428710 -0.652288
O68   O     O_2   0.329455 0.216851 0.462048 -0.255830
O69   O     O_3   0.294468 0.084916 0.429833 -0.479842
O70   O     O_2   0.293396 0.214225 0.672127 -0.195525
O71   O     O_2   0.287165 0.088242 0.560487 -0.199721
O72   O     O_3   0.366938 0.139886 0.731038 -0.522925
O73   O     O_2   0.243380 0.358115 0.276560 -0.297808
O74   O     O_2   0.311046 0.320271 0.377763 -0.279039
O75   O     O_3   0.163910 0.262016 0.265367 -0.535797
O76   O     O_3   0.251898 0.625784 0.637231 -0.561245
O77   O     O_3   0.516816 0.606059 0.871351 -0.514324
O78   O     O_R   0.627260 0.535660 0.571300 -0.577363
O79   O     O_R   0.551710 0.091600 0.499970 -0.605948
S1    S     S_3+6 0.919613 0.126008 0.172466 0.070711
S2    S     S_3+6 0.662668 0.748790 0.642963 0.055289
S3    S     S_3+6 0.471852 0.393571 0.637649 0.060958
S4    S     S_3+6 0.324386 0.181478 0.504808 0.129979
S5    S     S_3+6 0.338190 0.161480 0.656940 0.114791
S6    S     S_3+6 0.241795 0.340465 0.335546 0.071866
S7    S     S_3+6 0.615257 0.763016 0.963780 0.139439
S8    S     S_3+6 0.557753 0.804039 0.814573 0.148002
S9    S     S_3+6 0.087045 0.563744 0.923601 0.131665
S10   S     S_3+6 0.855197 0.360697 0.558025 0.096393
S11   S     S_3+6 0.015934 0.701353 0.925456 0.129605
S12   S     S_3+6 0.426466 0.486409 0.106922 0.053143
S13   S     S_3+6 0.115315 0.489818 0.253773 0.037691
S14   S     S_3+6 0.344824 0.764389 0.534155 0.035972
Zn1   Zn    Zn3+2 0.000010 0.430940 0.500020 0.987402
Zn2   Zn    Zn3+2 0.999990 0.569060 0.499980 1.036584
Zn3   Zn    Zn3+2 0.452410 0.452440 0.404800 0.991710
Zn4   Zn    Zn3+2 0.547590 0.547610 0.595200 1.165069
Zn5   Zn    Zn3+2 0.569070 0.000000 0.500000 1.028369
Zn6   Zn    Zn3+2 0.430930 0.000000 0.500000 1.089109

loop_
_geom_bond_atom_site_label_1
_geom_bond_atom_site_label_2
_ccdc_geom_bond_type
H44   O57   S    
C25   C31   A    
O28   S9    D    
C101  S4    S    
C93   C94   A    
C22   C98   A    
C101  C102  A    
O47   S13   D    
C95   C96   A    
C53   C63   S    
O42   S12   D    
C59   O79   A    
O55   S2    D    
C35   C36   A    
C3    H32   S    
O74   S6    D    
C107  H20   S    
O75   S6    S    
O19   S1    D    
C6    H48   S    
C81   C82   A    
O51   S14   D    
C16   H1    S    
C7    H49   S    
C45   C46   A    
O70   S5    D    
C10   H60   S    
C40   C46   A    
O15   Zn1   S    
C28   C29   A    
C1    C18   S    
H40   O52   S    
C5    H43   S    
H27   O39   S    
H22   O35   S    
C4    O49   S    
C9    H57   S    
C95   C106  S    
C33   C88   A    
C76   C78   A    
C107  H19   S    
C18   C19   T    
C8    H52   S    
C79   C84   A    
O68   S4    D    
O20   S1    S    
C32   C39   A    
O79   Zn5   S    
C7    H50   S    
C63   O9    A    
C4    H39   S    
C108  H24   S    
C83   O60   S    
C96   S3    S    
C54   O17   A    
C91   H7    S    
C80   H2    S    
C109  H28   S    
C34   C35   A    
C41   C42   A    
C14   C77   S    
C26   O14   A    
C2    C13   A    
C4    H38   S    
C56   O34   A    
O13   Zn1   S    
O78   Zn4   S    
C108  O36   S    
C1    O1    A    
O34   Zn4   S    
O46   S13   D    
C57   C97   S    
C19   C20   S    
C77   C88   A    
C68   C69   A    
C49   C51   T    
C5    O53   S    
O6    Zn5   S    
C36   C37   A    
C23   C24   T    
C38   O15   A    
C6    O58   S    
O38   S11   D    
C11   H68   S    
C59   C94   S    
C64   C70   A    
O32   S10   D    
C64   H67   S    
C15   S8    S    
O2    Zn6   S    
C17   C55   S    
C73   C84   S    
C6    H46   S    
C109  O40   S    
C24   C60   S    
C69   H73   S    
C22   C50   A    
C104  H10   S    
O21   S7    D    
C85   C87   A    
C27   S10   S    
O73   S6    D    
C26   O13   A    
C60   O5    A    
C12   H72   S    
O26   S8    D    
O56   Zn4   S    
O54   S2    D    
C61   O6    A    
O52   S14   S    
C57   O45   A    
C109  H30   S    
C94   C95   A    
C3    H33   S    
C93   H8    S    
O57   S2    S    
C107  H21   S    
C104  C105  A    
C85   C92   A    
C43   O44   S    
C87   O62   S    
O5    Zn6   S    
C1    O4    A    
O45   Zn3   S    
O10   Zn1   S    
O22   S7    D    
O71   S5    D    
C62   O53   S    
C2    O77   S    
H15   O20   S    
C51   C52   S    
C47   C48   T    
C71   H74   S    
C9    H58   S    
O8    Zn5   S    
C108  H26   S    
C66   O76   S    
H17   O27   S    
C3    O44   S    
C91   C92   A    
C10   O62   S    
H18   O30   S    
O65   S3    S    
C33   S6    S    
O29   S9    D    
C65   C67   A    
O1    Zn1   S    
C54   O12   A    
O50   S14   D    
H63   O69   S    
O35   S10   S    
C5    H41   S    
O7    Zn6   S    
C109  H29   S    
C82   H3    S    
O66   S4    D    
C9    H55   S    
C75   C76   A    
C42   S12   S    
C108  H25   S    
C37   C38   S    
H36   O48   S    
O3    Zn5   S    
C13   S7    S    
C81   O59   S    
C43   C45   A    
C44   C56   S    
C83   C84   A    
C36   O40   S    
C22   S1    S    
O27   S8    S    
O17   Zn3   S    
C4    H37   S    
C96   C97   A    
O30   S9    S    
O48   S13   S    
C105  H11   S    
C11   H69   S    
C90   H6    S    
C74   C86   A    
C67   C68   A    
C17   C99   A    
C93   C100  A    
C57   O56   A    
C50   H23   S    
C26   C47   S    
C54   C76   S    
O14   Zn2   S    
C61   C72   S    
O69   S4    S    
C48   C49   S    
C12   H71   S    
C14   O10   A    
C2    C99   A    
O11   Zn2   S    
O25   S8    D    
C102  S5    S    
C21   C23   S    
C58   O78   A    
C31   S9    S    
C61   O7    A    
C50   C62   A    
C58   O67   A    
C103  H9    S    
C10   H61   S    
C42   C43   A    
C73   C75   A    
C28   C39   S    
O63   S3    D    
O9    Zn6   S    
O43   S12   S    
C103  C104  A    
C97   C100  A    
C52   C53   T    
C99   H14   S    
C41   H45   S    
O4    Zn2   S    
C101  C106  A    
C98   H13   S    
C66   C77   A    
C75   S2    S    
C40   C41   A    
C60   O3    A    
C70   S13   S    
C65   O49   S    
O12   Zn4   S    
C33   C44   A    
C11   H66   S    
C32   H12   S    
C3    H35   S    
O18   S1    D    
C80   C81   A    
C89   C100  S    
H65   O75   S    
C8    H54   S    
C25   O31   S    
C25   C27   A    
C11   O76   S    
O41   S12   D    
C105  C106  A    
C8    O60   S    
H31   O43   S    
C5    H42   S    
C67   C78   S    
H62   O65   S    
C86   H5    S    
O64   S3    D    
C9    O61   S    
C64   C65   A    
O39   S11   S    
C13   C15   A    
C6    H47   S    
C71   C72   A    
C37   C39   A    
C8    H53   S    
O67   Zn3   S    
C92   O61   S    
C44   C55   A    
C90   C91   A    
O24   S7    S    
C107  O31   S    
O72   S5    S    
H64   O72   S    
C72   C73   A    
C63   O8    A    
C7    O59   S    
C85   H4    S    
H16   O24   S    
O23   Zn3   S    
C59   O2    A    
C79   O58   S    
C14   O11   A    
C102  C103  A    
C86   C98   A    
C30   C31   A    
C69   C70   A    
C29   C30   A    
C79   C80   A    
O16   Zn2   S    
C29   O36   S    
C12   H70   S    
C56   O23   A    
C20   C21   T    
C30   S11   S    
C10   H59   S    
C82   C83   A    
C40   H34   S    
C27   C28   A    
C34   C58   S    
C87   C89   A    
C38   O16   A    
C62   C74   A    
C12   O77   S    
C74   C88   S    
C89   C90   A    
O37   S11   D    
C35   C46   S    
C45   H56   S    
C68   S14   S    
O33   S10   D    
C71   C78   A    
C7    H51   S    
C15   C16   A    
C16   C17   A    
C32   C34   A    
C55   C66   A    
