data_mof_unit_50163.cif
_audit_creation_date              2012-12-10T18:10:51-0500
_audit_creation_method            fapswitch 2.2
_symmetry_space_group_name_H-M    P1
_symmetry_Int_Tables_number       1
_space_group_crystal_system       triclinic
_cell_length_a                    12.616978
_cell_length_b                    13.132555
_cell_length_c                    15.742448
_cell_angle_alpha                 90.671886
_cell_angle_beta                  102.96263
_cell_angle_gamma                 82.270514
_cell_volume                      2518.38928993

loop_
_atom_site_label
_atom_site_type_symbol
_atom_type_description
_atom_site_fract_x
_atom_site_fract_y
_atom_site_fract_z
_atom_type_partial_charge
C1    C     C_R   0.438702 0.691181 0.486851 0.856352
C2    C     C_3   0.378081 0.564940 0.026900 -0.305232
C3    C     C_3   0.491602 0.511432 0.081574 -0.012753
C4    C     C_3   0.506265 0.397711 0.049307 -0.184686
C5    C     C_3   0.508145 0.397108 0.951368 -0.409685
C6    C     C_1   0.492154 0.507492 0.173518 0.016785
C7    C     C_1   0.499286 0.506259 0.825286 0.014426
C8    C     C_1   0.502192 0.503562 0.750521 -0.114528
C9    C     C_R   0.698990 0.064431 0.435378 -0.182186
C10   C     C_R   0.596328 0.200090 0.500309 -0.043092
C11   C     C_R   0.300673 0.838292 0.500576 -0.169806
C12   C     C_R   0.501103 0.500464 0.661475 0.899573
C13   C     C_R   0.272409 0.943136 0.508804 -0.131599
C14   C     C_R   0.345459 0.010406 0.499455 -0.180774
C15   C     C_R   0.446552 0.973551 0.477264 0.086267
C16   C     C_R   0.466386 0.869541 0.455547 0.071212
C17   C     C_R   0.528707 0.036362 0.475941 0.081002
C18   C     C_R   0.619689 0.000293 0.439410 0.161102
C19   C     C_R   0.629055 0.901528 0.406295 -0.226284
C20   C     C_R   0.553491 0.836668 0.414374 -0.162763
C21   C     C_R   0.523728 0.133701 0.511666 -0.246752
C22   C     C_R   0.686233 0.165093 0.464369 -0.189388
C23   C     C_R   0.561069 0.308739 0.508458 0.856579
C24   C     C_R   0.399257 0.800790 0.476901 -0.101985
C25   C     C_R   0.088488 0.344542 0.381479 -0.286879
C26   C     C_R   0.799616 0.630701 0.601649 0.018471
C27   C     C_R   0.904216 0.659301 0.623199 -0.211648
C28   C     C_R   0.985767 0.609714 0.584874 -0.152859
C29   C     C_R   0.962757 0.530626 0.524530 0.003578
C30   C     C_R   0.854795 0.503960 0.505229 0.237628
C31   C     C_R   0.042012 0.477153 0.482754 -0.012299
C32   C     C_R   0.011840 0.398171 0.423239 0.186472
C33   C     C_R   0.905573 0.373219 0.406011 -0.267824
C34   C     C_R   0.498659 0.500100 0.338516 0.884957
C35   C     C_R   0.828412 0.425389 0.446517 -0.193802
C36   C     C_R   0.150707 0.498489 0.497370 -0.019509
C37   C     C_R   0.194396 0.369324 0.398895 0.021651
C38   C     C_3   0.384193 0.571720 0.928928 0.287203
C39   C     C_3   0.590895 0.561291 0.967372 -0.514921
C40   C     C_3   0.587368 0.568268 0.065439 -0.172294
C41   C     C_1   0.494553 0.503481 0.249110 -0.059071
C42   C     C_3   0.493850 0.508557 0.915809 0.123618
H1    H     H_    0.315891 0.513970 0.031939 0.192975
H2    H     H_    0.742967 0.216440 0.454748 0.146551
H3    H     H_    0.695953 0.873679 0.375629 0.168075
H4    H     H_    0.768126 0.038086 0.406788 0.140457
H5    H     H_    0.460894 0.161710 0.545988 0.151571
H6    H     H_    0.247172 0.786384 0.515479 0.157048
H7    H     H_    0.319534 0.090881 0.507739 0.137100
H8    H     H_    0.195747 0.972051 0.526193 0.149095
H9    H     H_    0.387493 0.652241 0.909976 0.161470
H10   H     H_    0.563211 0.760915 0.387040 0.193848
H11   H     H_    0.255049 0.328441 0.367532 0.144809
H12   H     H_    0.881817 0.312925 0.360910 0.161242
H13   H     H_    0.066739 0.284054 0.336060 0.157290
H14   H     H_    0.181344 0.556683 0.541281 0.140165
H15   H     H_    0.735814 0.669124 0.631081 0.148236
H16   H     H_    0.065438 0.634841 0.603809 0.166728
H17   H     H_    0.922048 0.719810 0.669391 0.174929
H18   H     H_    0.748506 0.402370 0.430714 0.206544
H19   H     H_    0.670033 0.515840 0.961500 0.214629
H20   H     H_    0.589688 0.637595 0.937180 0.226732
H21   H     H_    0.666667 0.527734 0.103131 0.185383
H22   H     H_    0.442538 0.354855 0.914461 0.233772
H23   H     H_    0.586501 0.354838 0.940459 0.193780
H24   H     H_    0.432747 0.362513 0.055730 0.171875
N1    N     N_R   0.222200 0.444690 0.455710 -0.107659
N2    N     N_R   0.776960 0.554780 0.543830 -0.131469
O1    O     O_R   0.366740 0.627160 0.478850 -0.610479
O2    O     O_R   0.544830 0.662520 0.507140 -0.624278
O3    O     O_R   0.410920 0.482310 0.608710 -0.585483
O4    O     O_R   0.589010 0.517670 0.637000 -0.618541
O5    O     O_R   0.455170 0.337480 0.492860 -0.618450
O6    O     O_R   0.633260 0.372840 0.521150 -0.636055
O7    O     O_R   0.410990 0.482330 0.363000 -0.600195
O8    O     O_R   0.589080 0.517690 0.391290 -0.632586
Zn1   Zn    Zn3+2 0.381090 0.476390 0.481110 0.974441
Zn2   Zn    Zn3+2 0.618910 0.523610 0.518890 0.942514
C43   C     C_2   0.335606 0.667486 0.062128 0.969180
O9    O     O_2   0.311749 0.669594 0.133320 -0.612485
O10   O     O_R   0.319386 0.758676 0.013058 -0.763900
H25   H     H_    0.290206 0.820543 0.044237 0.357232
S1    S     S_3+6 0.259838 0.537293 0.859029 0.001009
O11   O     O_2   0.163683 0.607611 0.877481 -0.274223
O12   O     O_2   0.261843 0.550103 0.764686 -0.317364
O13   O     O_3   0.244039 0.415344 0.878750 -0.580526
H26   H     H_    0.174226 0.404129 0.838520 0.391822
C44   C     C_2   0.604335 0.329056 0.103205 0.919708
O14   O     O_2   0.697982 0.340214 0.099775 -0.633803
O15   O     O_R   0.586546 0.251787 0.156675 -0.805799
H27   H     H_    0.657496 0.211116 0.189900 0.343580
C45   C     C_2   0.582692 0.677730 0.098831 0.928906
O16   O     O_2   0.603449 0.691722 0.177449 -0.629914
O17   O     O_R   0.556019 0.762440 0.041289 -0.783246
H28   H     H_    0.555719 0.830354 0.072590 0.359501

loop_
_geom_bond_atom_site_label_1
_geom_bond_atom_site_label_2
_ccdc_geom_bond_type
C5    C42   S    
C38   S1    S    
O2    Zn2   S    
O1    Zn1   S    
C19   C20   A    
N1    Zn1   S    
C3    C6    S    
O10   H25   S    
C36   N1    A    
C7    C8    T    
C10   C22   A    
C26   C27   A    
C40   H21   S    
C30   C35   A    
C28   C29   A    
O8    Zn2   S    
C38   C42   S    
C9    C22   A    
C14   H7    S    
C15   C16   A    
C11   C24   A    
C18   C19   A    
C7    C42   S    
O4    Zn2   S    
C2    C43   S    
C25   C37   A    
C22   H2    S    
S1    O11   D    
C6    C41   T    
C8    C12   S    
C34   O7    A    
C37   H11   S    
C25   C32   A    
C12   O4    A    
C9    H4    S    
C16   C24   A    
C13   C14   A    
C11   H6    S    
C34   C41   S    
C23   O5    A    
C39   C42   S    
C10   C21   A    
N2    Zn2   S    
C39   H19   S    
C5    H23   S    
C39   C40   S    
C43   O10   S    
O13   H26   S    
C38   H9    S    
C1    O1    A    
C13   H8    S    
C5    H22   S    
C35   H18   S    
C29   C30   A    
C36   H14   S    
C2    C38   S    
C31   C32   A    
C2    H1    S    
C16   C20   A    
C45   O17   S    
C17   C18   A    
C40   C45   S    
O7    Zn1   S    
S1    O12   D    
C12   O3    A    
C44   O15   S    
C3    C40   S    
C23   O6    A    
C3    C4    S    
O3    Zn1   S    
C33   H12   S    
C15   C17   A    
C39   H20   S    
C31   C36   A    
C25   H13   S    
C4    C5    S    
C19   H3    S    
C4    C44   S    
C28   H16   S    
C10   C23   S    
C1    O2    A    
C26   N2    A    
C32   C33   A    
C2    C3    S    
C20   H10   S    
C27   H17   S    
C4    H24   S    
C11   C13   A    
O15   H27   S    
C37   N1    A    
C45   O16   D    
C33   C35   A    
O17   H28   S    
C26   H15   S    
C17   C21   A    
C43   O9    D    
C9    C18   A    
S1    O13   S    
C44   O14   D    
C1    C24   S    
C29   C31   A    
O6    Zn2   S    
C27   C28   A    
O5    Zn1   S    
C14   C15   A    
C30   N2    A    
C34   O8    A    
C21   H5    S    
