data_mof_unit_26737.cif
_audit_creation_date              2013-03-05T16:45:08-0500
_audit_creation_method            fapswitch 2.2
_symmetry_space_group_name_H-M    P1
_symmetry_Int_Tables_number       1
_space_group_crystal_system       triclinic
_cell_length_a                    14.767621
_cell_length_b                    15.421188
_cell_length_c                    9.8835
_cell_angle_alpha                 89.360919
_cell_angle_beta                  85.038244
_cell_angle_gamma                 90.455796
_cell_volume                      2242.1476072

loop_
_atom_site_label
_atom_site_type_symbol
_atom_site_description
_atom_site_fract_x
_atom_site_fract_y
_atom_site_fract_z
_atom_type_partial_charge
O1    O     O_R   0.408400 0.908380 0.614690 -0.583277
O2    O     O_R   0.408400 0.091620 0.614690 -0.593639
O3    O     O_R   0.908400 0.408380 0.614690 -0.583322
O4    O     O_R   0.908400 0.591620 0.614690 -0.593720
O5    O     O_R   0.408370 0.908370 0.385350 -0.649459
O6    O     O_R   0.408370 0.091630 0.385350 -0.636961
O7    O     O_R   0.908370 0.408370 0.385350 -0.648929
O8    O     O_R   0.908370 0.591630 0.385350 -0.637002
C1    C     C_R   0.378061 0.881849 0.504847 0.941591
C2    C     C_R   0.381134 0.120680 0.502803 0.929759
C3    C     C_R   0.878005 0.381904 0.504863 0.941681
C4    C     C_R   0.881134 0.620681 0.502803 0.929566
Zn1   Zn    Zn3+2 0.500010 0.000000 0.653130 1.006709
Zn2   Zn    Zn3+2 0.000010 0.500000 0.653130 1.006718
Zn3   Zn    Zn3+2 0.499980 0.000000 0.346870 0.997865
Zn4   Zn    Zn3+2 0.999980 0.500000 0.346870 0.998049
O9    O     O_R   0.591610 0.091610 0.614650 -0.635689
O10   O     O_R   0.591610 0.908390 0.614650 -0.626500
O11   O     O_R   0.091610 0.591610 0.614650 -0.635675
O12   O     O_R   0.091610 0.408390 0.614650 -0.626474
O13   O     O_R   0.591590 0.091600 0.385310 -0.580943
O14   O     O_R   0.591590 0.908400 0.385310 -0.568778
O15   O     O_R   0.091590 0.591600 0.385310 -0.580859
O16   O     O_R   0.091590 0.408400 0.385310 -0.568786
C5    C     C_R   0.618683 0.121124 0.495328 0.966740
C6    C     C_R   0.620357 0.880048 0.495656 0.994746
C7    C     C_R   0.118667 0.621136 0.495329 0.966777
C8    C     C_R   0.120360 0.380049 0.495654 0.994819
C9    C     C_R   0.234483 0.178491 0.580291 -0.106454
C10   C     C_R   0.222064 0.834464 0.529449 -0.114048
C11   C     C_R   0.734484 0.678493 0.580296 -0.106513
C12   C     C_R   0.721999 0.334488 0.529562 -0.114302
C13   C     C_R   0.317540 0.188671 0.504323 -0.134578
C14   C     C_R   0.313975 0.813497 0.513579 -0.137844
C15   C     C_R   0.817541 0.688674 0.504327 -0.134567
C16   C     C_R   0.813917 0.313551 0.513645 -0.138054
C17   C     C_R   0.328527 0.251510 0.399654 0.448794
C18   C     C_R   0.342017 0.732918 0.460708 0.432020
C19   C     C_R   0.828531 0.751521 0.399671 0.448819
C20   C     C_R   0.841975 0.232990 0.460773 0.432887
C21   C     C_R   0.759263 0.811507 0.386065 0.217202
C22   C     C_R   0.775857 0.169112 0.446532 0.182004
C23   C     C_R   0.259252 0.311486 0.386033 0.217348
C24   C     C_R   0.275868 0.669045 0.446578 0.182079
C25   C     C_R   0.682729 0.809850 0.483210 -0.276892
C26   C     C_R   0.684245 0.188467 0.481633 -0.252380
C27   C     C_R   0.182730 0.309848 0.483203 -0.276953
C28   C     C_R   0.184260 0.688452 0.481612 -0.252229
C29   C     C_R   0.667739 0.738322 0.569019 0.000908
C30   C     C_R   0.657513 0.272852 0.508668 -0.024229
C31   C     C_R   0.167745 0.238326 0.569024 0.001080
C32   C     C_R   0.157557 0.772855 0.508541 -0.024383
C33   C     C_3   0.633355 0.730044 0.714844 0.071390
C34   C     C_3   0.590887 0.306687 0.616579 0.059134
C35   C     C_3   0.133354 0.230040 0.714844 0.071352
C36   C     C_3   0.090920 0.806739 0.616395 0.059066
C37   C     C_3   0.209418 0.164599 0.729475 0.311263
C38   C     C_3   0.163456 0.873524 0.645380 0.305136
C39   C     C_3   0.709432 0.664620 0.729488 0.311308
C40   C     C_3   0.663398 0.373507 0.645533 0.305100
H1    H     H_    0.639763 0.790674 0.773457 0.160833
H2    H     H_    0.572468 0.258610 0.699412 0.143900
H3    H     H_    0.139772 0.290662 0.773471 0.160837
H4    H     H_    0.072445 0.758677 0.699230 0.143864
H5    H     H_    0.187966 0.096478 0.754690 0.087845
H6    H     H_    0.147185 0.942688 0.624921 0.124464
H7    H     H_    0.687995 0.596499 0.754734 0.087846
H8    H     H_    0.647081 0.442664 0.625099 0.124542
C41   C     C_R   0.420673 0.008842 0.080800 0.165791
C42   C     C_R   0.920683 0.508921 0.080797 0.165834
N1    N     N_R   0.499140 0.000000 0.142800 -0.120577
N2    N     N_R   0.999140 0.500000 0.142800 -0.120490
C43   C     C_R   0.579032 0.002806 0.061555 -0.065075
C44   C     C_R   0.079034 0.502742 0.061556 -0.065038
H9    H     H_    0.642746 0.005013 0.107286 0.231074
H10   H     H_    0.142749 0.504904 0.107287 0.231078
C45   C     C_R   0.579116 0.001734 0.917661 -0.096441
C46   C     C_R   0.079117 0.501670 0.917662 -0.096446
H11   H     H_    0.643034 0.001183 0.855340 0.180513
H12   H     H_    0.143034 0.501069 0.855342 0.180507
N3    N     N_R   0.499160 0.000000 0.857150 -0.112994
N4    N     N_R   0.999160 0.500000 0.857150 -0.113001
C47   C     C_R   0.420980 0.009227 0.938654 0.205963
C48   C     C_R   0.920990 0.509296 0.938650 0.206063
C49   C     C_3   0.340272 0.951459 0.942589 -0.434969
C50   C     C_3   0.840229 0.451593 0.942602 -0.435097
C51   C     C_3   0.339301 0.950583 0.096418 -0.518075
C52   C     C_3   0.839247 0.450748 0.096433 -0.518163
H13   H     H_    0.282292 0.986290 0.904038 0.205674
H14   H     H_    0.355836 0.887361 0.896114 0.277229
H15   H     H_    0.782275 0.486451 0.904020 0.205652
H16   H     H_    0.855745 0.387473 0.896172 0.277222
H17   H     H_    0.279072 0.983309 0.147477 0.200749
H18   H     H_    0.353953 0.885717 0.138641 0.229191
H19   H     H_    0.779053 0.483543 0.147464 0.200679
H20   H     H_    0.853826 0.385880 0.138702 0.229318
O17   O     O_3   0.411914 0.260418 0.323736 -0.539620
C53   C     C_3   0.407104 0.227561 0.191530 -0.142634
H21   H     H_    0.350976 0.179675 0.183419 0.093937
H22   H     H_    0.471798 0.194136 0.161038 0.177154
H23   H     H_    0.401429 0.281532 0.117985 0.198010
O18   O     O_3   0.433972 0.715107 0.437488 -0.559041
C54   C     C_3   0.459308 0.714584 0.296416 -0.141238
H24   H     H_    0.534312 0.721684 0.280401 0.182239
H25   H     H_    0.429489 0.769079 0.241134 0.130774
H26   H     H_    0.440790 0.651999 0.251472 0.215103
O19   O     O_3   0.911920 0.760428 0.323759 -0.539616
C55   C     C_3   0.907096 0.727614 0.191532 -0.142727
H27   H     H_    0.850984 0.679713 0.183412 0.093922
H28   H     H_    0.971799 0.694219 0.160983 0.177141
H29   H     H_    0.901382 0.781607 0.118040 0.198018
O20   O     O_3   0.933940 0.215313 0.437215 -0.559707
C56   C     C_3   0.959046 0.214638 0.296073 -0.139679
H30   H     H_    0.033816 0.223939 0.279629 0.181968
H31   H     H_    0.927333 0.267761 0.240068 0.129111
H32   H     H_    0.942497 0.151129 0.252202 0.216212
N5    N     N_R   0.768178 0.872744 0.275639 0.235756
O21   O     O_R   0.712185 0.866731 0.181629 -0.452183
O22   O     O_R   0.845713 0.912130 0.245980 -0.252951
N6    N     N_R   0.800711 0.085882 0.395192 0.198949
O23   O     O_R   0.770987 0.062068 0.281236 -0.368130
O24   O     O_R   0.863427 0.041201 0.448188 -0.246611
N7    N     N_R   0.268134 0.372668 0.275534 0.235829
O25   O     O_R   0.212109 0.366602 0.181576 -0.452374
O26   O     O_R   0.345666 0.412044 0.245772 -0.253048
N8    N     N_R   0.300675 0.585752 0.395430 0.198818
O27   O     O_R   0.270773 0.561786 0.281675 -0.368327
O28   O     O_R   0.363524 0.541176 0.448288 -0.246046
N9    N     N_R   0.542431 0.690928 0.732385 0.212055
O29   O     O_R   0.523668 0.619837 0.670189 -0.322356
O30   O     O_R   0.478695 0.728652 0.808885 -0.377820
N10   N     N_R   0.511947 0.346556 0.562160 0.226123
O31   O     O_R   0.521239 0.395995 0.454072 -0.292016
O32   O     O_R   0.432858 0.340043 0.630528 -0.344022
N11   N     N_R   0.042421 0.190941 0.732367 0.211997
O33   O     O_R   0.023636 0.119880 0.670105 -0.322447
O34   O     O_R   0.978697 0.228655 0.808901 -0.377775
N12   N     N_R   0.012024 0.846644 0.561905 0.226233
O35   O     O_R   0.021378 0.896070 0.453805 -0.292203
O36   O     O_R   0.932915 0.840185 0.630230 -0.343956
O37   O     O_3   0.277155 0.197540 0.807594 -0.557454
C57   C     C_3   0.247011 0.191091 0.946893 -0.297287
H33   H     H_    0.271311 0.129931 0.990149 0.149579
H34   H     H_    0.171866 0.194861 0.969473 0.159265
H35   H     H_    0.276337 0.246230 0.999185 0.225445
O38   O     O_3   0.197976 0.857931 0.772207 -0.602235
C58   C     C_3   0.134810 0.887979 0.876684 -0.276012
H36   H     H_    0.124114 0.959031 0.867203 0.164255
H37   H     H_    0.161982 0.875136 0.976050 0.207716
H38   H     H_    0.068491 0.853224 0.878949 0.185968
O39   O     O_3   0.777170 0.697588 0.807582 -0.557501
C59   C     C_3   0.747031 0.691180 0.946887 -0.297459
H39   H     H_    0.771361 0.630049 0.990194 0.149618
H40   H     H_    0.671884 0.694919 0.969470 0.159258
H41   H     H_    0.776333 0.746352 0.999131 0.225456
O40   O     O_3   0.697963 0.357926 0.772331 -0.602267
C60   C     C_3   0.634821 0.387964 0.876845 -0.275929
H42   H     H_    0.624108 0.459014 0.867371 0.164282
H43   H     H_    0.662024 0.375126 0.976190 0.207743
H44   H     H_    0.568506 0.353197 0.879148 0.185960

loop_
_geom_bond_atom_site_label_1
_geom_bond_atom_site_label_2
_geom_bond_distance
_ccdc_geom_bond_type
C7    C28   1.411533 S    
C52   H20   1.109606 S    
C8    C27   1.426435 S    
C60   H42   1.112357 S    
Zn1   N3    2.015386 S    
C58   H36   1.112353 S    
O10   C6    1.297097 A    
C42   C52   1.490826 S    
Zn4   N2    2.018038 S    
C10   C38   1.508946 S    
C17   O17   1.390501 S    
O17   C53   1.413999 S    
C33   C39   1.530992 S    
N7    O25   1.299708 A    
C19   C21   1.398669 A    
C34   C40   1.527211 S    
O7    C3    1.287483 A    
C24   N8    1.424628 S    
C30   C34   1.488929 S    
C44   H10   1.078950 S    
Zn1   O10   1.980833 S    
Zn1   O9    1.959315 S    
C12   C16   1.393804 A    
O40   C60   1.414926 S    
C58   H37   1.108971 S    
C48   C50   1.479879 S    
O38   C58   1.414933 S    
C50   H15   1.107266 S    
N5    O22   1.301083 A    
C46   H12   1.081717 S    
N7    O26   1.301097 A    
C51   H18   1.109665 S    
C9    C13   1.388463 A    
C55   H27   1.114364 S    
C22   C26   1.402606 A    
C11   C39   1.501410 S    
C41   N1    1.363925 A    
O2    Zn1   2.019450 S    
C43   C45   1.422347 A    
O13   C5    1.277942 A    
C6    C25   1.426411 S    
C39   H7    1.114110 S    
O6    Zn3   1.981153 S    
C56   H30   1.110009 S    
C33   H1    1.113056 S    
C38   H6    1.115304 S    
Zn3   O14   2.019233 S    
C36   C38   1.527196 S    
N10   O31   1.302359 A    
C35   H3    1.113058 S    
O19   C55   1.413981 S    
C36   H4    1.112947 S    
O15   C7    1.277926 A    
O4    C4    1.286344 A    
C42   C48   1.404475 A    
C31   C35   1.489831 S    
C41   C51   1.490854 S    
O8    C4    1.282086 A    
C56   H32   1.109464 S    
O8    Zn4   1.981153 S    
C49   C51   1.519108 S    
C52   H19   1.111599 S    
C60   H43   1.108971 S    
C43   H9    1.078956 S    
C57   H35   1.104692 S    
C11   C29   1.366165 A    
O20   C56   1.412247 S    
N3    C47   1.358812 A    
N6    O24   1.301117 A    
C18   C24   1.398336 A    
C45   H11   1.081717 S    
C10   C14   1.393816 A    
Zn2   O12   1.980833 S    
N11   O33   1.302393 A    
C58   H38   1.111096 S    
O1    C1    1.279787 A    
N2    C44   1.368633 A    
N12   O35   1.302363 A    
C37   H5    1.114108 S    
N1    C43   1.368635 A    
C49   H13   1.107251 S    
C27   C31   1.388416 A    
C34   H2    1.112946 S    
C13   C17   1.407721 A    
C56   H31   1.112505 S    
C17   C23   1.398659 A    
C15   C19   1.407718 A    
C40   O40   1.412341 S    
O5    C1    1.287385 A    
C41   C47   1.404470 A    
C36   N12   1.462449 S    
C46   N4    1.369163 A    
C59   H41   1.104703 S    
C16   C20   1.404781 A    
O39   C59   1.412009 S    
C25   C29   1.388434 A    
C54   H25   1.111724 S    
C21   C25   1.418157 A    
C4    C15   1.412504 S    
C12   C30   1.370026 A    
O3    Zn2   2.010299 S    
N12   O36   1.300352 A    
N10   O32   1.300343 A    
O7    Zn4   1.959634 S    
C47   C49   1.479864 S    
C9    C37   1.501405 S    
C53   H21   1.114371 S    
C60   H44   1.111100 S    
N4    C48   1.358811 A    
C35   C37   1.531008 S    
C44   C46   1.422347 A    
C1    C14   1.407892 S    
C11   C15   1.388464 A    
O1    Zn1   2.010301 S    
C12   C40   1.508933 S    
O2    C2    1.286341 A    
C23   N7    1.431919 S    
C57   H34   1.114959 S    
Zn3   N1    2.018038 S    
N6    O23   1.299324 A    
N9    O29   1.302391 A    
C9    C31   1.366142 A    
N11   O34   1.300538 A    
C10   C32   1.369993 A    
C3    C16   1.407913 S    
N8    O28   1.301117 A    
C14   C18   1.404950 A    
Zn2   O11   1.959315 S    
O16   C8    1.278086 A    
C59   H40   1.114959 S    
C19   O19   1.390490 S    
C49   H14   1.111920 S    
C38   O38   1.412340 S    
C39   O39   1.410352 S    
Zn4   O15   2.010084 S    
C53   H23   1.107357 S    
O12   C8    1.297118 A    
C2    C13   1.412483 S    
C26   C30   1.385053 A    
C53   H22   1.109399 S    
C55   H29   1.107359 S    
C37   O37   1.410344 S    
O9    C5    1.288930 A    
C18   O18   1.387654 S    
C50   H16   1.111922 S    
N5    O21   1.299710 A    
C20   O20   1.387659 S    
C22   N6    1.424567 S    
Zn3   O13   2.010084 S    
N8    O27   1.299302 A    
C35   N11   1.463348 S    
C51   H17   1.111598 S    
C20   C22   1.398247 A    
C55   H28   1.109401 S    
C54   H26   1.109041 S    
C50   C52   1.519110 S    
O4    Zn2   2.019450 S    
O18   C54   1.412140 S    
O5    Zn3   1.959634 S    
C29   C33   1.489843 S    
O3    C3    1.279726 A    
O6    C2    1.282078 A    
C34   N10   1.462452 S    
C32   C36   1.488929 S    
C28   C32   1.385003 A    
C33   N9    1.463346 S    
C59   H39   1.106347 S    
C40   H8    1.115309 S    
Zn4   O16   2.019233 S    
C45   N3    1.369165 A    
O14   C6    1.278093 A    
C54   H24   1.109610 S    
Zn2   N4    2.015386 S    
C57   H33   1.106364 S    
C42   N2    1.363934 A    
C21   N5    1.431934 S    
O37   C57   1.412002 S    
C23   C27   1.418182 A    
C5    C26   1.411533 S    
C24   C28   1.402621 A    
O11   C7    1.288942 A    
N9    O30   1.300539 A    
