data_mof_unit_36125.cif
_audit_creation_date              2013-03-05T16:10:56-0500
_audit_creation_method            fapswitch 2.2
_symmetry_space_group_name_H-M    P1
_symmetry_Int_Tables_number       1
_space_group_crystal_system       triclinic
_cell_length_a                    15.534458
_cell_length_b                    14.836849
_cell_length_c                    9.953358
_cell_angle_alpha                 90.016645
_cell_angle_beta                  89.718924
_cell_angle_gamma                 89.999185
_cell_volume                      2294.04621445

loop_
_atom_site_label
_atom_site_type_symbol
_atom_site_description
_atom_site_fract_x
_atom_site_fract_y
_atom_site_fract_z
_atom_type_partial_charge
O1    O     O_R   0.091610 0.408380 0.614620 -0.592407
O2    O     O_R   0.908390 0.591620 0.385380 -0.592303
O3    O     O_R   0.908390 0.591620 0.614620 -0.611533
O4    O     O_R   0.091610 0.408380 0.385380 -0.611442
O5    O     O_R   0.908390 0.408380 0.385380 -0.592383
O6    O     O_R   0.091610 0.591620 0.614620 -0.592283
O7    O     O_R   0.091610 0.591620 0.385380 -0.611499
O8    O     O_R   0.908390 0.408380 0.614620 -0.611408
O9    O     O_R   0.591610 0.908380 0.614620 -0.592459
O10   O     O_R   0.408390 0.091620 0.385380 -0.592378
O11   O     O_R   0.408390 0.091620 0.614620 -0.611479
O12   O     O_R   0.591610 0.908380 0.385380 -0.611446
O13   O     O_R   0.408390 0.908380 0.385380 -0.592417
O14   O     O_R   0.591610 0.091620 0.614620 -0.592334
O15   O     O_R   0.591610 0.091620 0.385380 -0.611450
O16   O     O_R   0.408390 0.908380 0.614620 -0.611414
C1    C     C_R   0.120862 0.381139 0.499787 0.887197
C2    C     C_R   0.879158 0.618883 0.500210 0.887122
C3    C     C_R   0.879133 0.381145 0.500196 0.887290
C4    C     C_R   0.120848 0.618876 0.499806 0.887211
C5    C     C_R   0.620872 0.881151 0.499784 0.887086
C6    C     C_R   0.379144 0.118868 0.500211 0.887174
C7    C     C_R   0.379128 0.881151 0.500199 0.887182
C8    C     C_R   0.620855 0.118868 0.499806 0.887266
N1    N     N_R   0.000000 0.500000 0.857200 -0.233660
N2    N     N_R   0.000000 0.500000 0.142800 -0.233660
N3    N     N_R   0.500000 0.000000 0.857200 -0.233676
N4    N     N_R   0.500000 0.000000 0.142800 -0.233673
Zn1   Zn    Zn3+2 1.000000 0.500000 0.653120 1.050353
Zn2   Zn    Zn3+2 1.000000 0.500000 0.346880 1.050353
Zn3   Zn    Zn3+2 0.500000 0.000000 0.653120 1.050331
Zn4   Zn    Zn3+2 0.500000 0.000000 0.346880 1.050330
C9    C     C_R   0.000259 0.579190 0.071664 0.221054
C10   C     C_R   0.999764 0.420810 0.928334 0.221012
C11   C     C_R   0.000386 0.420807 0.071573 0.220944
C12   C     C_R   0.999593 0.579193 0.928428 0.220991
C13   C     C_R   0.500250 0.079188 0.071665 0.221041
C14   C     C_R   0.499838 0.920810 0.928329 0.221041
C15   C     C_R   0.500364 0.920807 0.071574 0.220948
C16   C     C_R   0.499550 0.079192 0.928431 0.220956
C17   C     C_R   0.772641 0.292294 0.379582 -0.103434
C18   C     C_R   0.227351 0.707712 0.620421 -0.103380
C19   C     C_R   0.211936 0.725368 0.378923 -0.128848
C20   C     C_R   0.787880 0.274834 0.621139 -0.128799
C21   C     C_R   0.227547 0.292555 0.620333 -0.103075
C22   C     C_R   0.772457 0.707446 0.379668 -0.103020
C23   C     C_R   0.788300 0.725678 0.621008 -0.129002
C24   C     C_R   0.211895 0.274536 0.378925 -0.128954
C25   C     C_R   0.272522 0.792427 0.379630 -0.103440
C26   C     C_R   0.727295 0.207774 0.620443 -0.103431
C27   C     C_R   0.712061 0.225231 0.378884 -0.128803
C28   C     C_R   0.287937 0.774771 0.621127 -0.128806
C29   C     C_R   0.727705 0.792730 0.620271 -0.103076
C30   C     C_R   0.272488 0.207483 0.379651 -0.103069
C31   C     C_R   0.288139 0.225500 0.621059 -0.128973
C32   C     C_R   0.711858 0.774494 0.378934 -0.128987
H1    H     H_    0.788269 0.325491 0.285867 0.210816
H2    H     H_    0.211772 0.674456 0.714111 0.210700
H3    H     H_    0.184012 0.706155 0.284388 0.223471
H4    H     H_    0.815715 0.294141 0.715703 0.223393
H5    H     H_    0.212066 0.325963 0.713972 0.210633
H6    H     H_    0.787884 0.673973 0.286055 0.210502
H7    H     H_    0.816414 0.706705 0.715481 0.223689
H8    H     H_    0.183879 0.293612 0.284421 0.223610
H9    H     H_    0.288076 0.825708 0.285954 0.210779
H10   H     H_    0.711652 0.174594 0.714167 0.210778
H11   H     H_    0.684219 0.205931 0.284323 0.223411
H12   H     H_    0.315836 0.794005 0.715674 0.223420
H13   H     H_    0.712311 0.826238 0.713864 0.210597
H14   H     H_    0.287975 0.174081 0.286007 0.210607
H15   H     H_    0.316160 0.206429 0.715559 0.223628
H16   H     H_    0.683771 0.793491 0.284450 0.223644
C33   C     C_R   0.188122 0.684207 0.499533 -0.063005
C34   C     C_R   0.811810 0.315869 0.500486 -0.063092
C35   C     C_R   0.811894 0.684224 0.500491 -0.063028
C36   C     C_R   0.188176 0.315855 0.499490 -0.063125
C37   C     C_R   0.688146 0.184179 0.499530 -0.063058
C38   C     C_R   0.311789 0.815892 0.500500 -0.063064
C39   C     C_R   0.311847 0.184171 0.500499 -0.063108
C40   C     C_R   0.688218 0.815901 0.499471 -0.063109
N5    N     N_R   0.003646 0.663571 0.140641 0.263210
O17   O     O_R   0.931910 0.701299 0.177498 -0.353414
O18   O     O_R   0.070300 0.715007 0.121630 -0.361247
N6    N     N_R   0.996485 0.336434 0.859342 0.263335
O19   O     O_R   0.068283 0.298674 0.822873 -0.353554
O20   O     O_R   0.929762 0.285038 0.877963 -0.361225
N7    N     N_R   0.003805 0.336423 0.140452 0.263056
O21   O     O_R   0.932080 0.298669 0.177239 -0.353978
O22   O     O_R   0.070465 0.285003 0.121364 -0.361059
N8    N     N_R   0.996074 0.663582 0.859566 0.262930
O23   O     O_R   0.067741 0.701300 0.822411 -0.353850
O24   O     O_R   0.929488 0.715047 0.879034 -0.361085
N9    N     N_R   0.503625 0.163566 0.140647 0.263278
O25   O     O_R   0.431879 0.201340 0.177345 -0.353439
O26   O     O_R   0.570328 0.214957 0.121799 -0.361295
N10   N     N_R   0.496852 0.836435 0.859310 0.263457
O27   O     O_R   0.568808 0.798765 0.823424 -0.353679
O28   O     O_R   0.430138 0.784958 0.877430 -0.361112
N11   N     N_R   0.503544 0.836421 0.140473 0.263132
O29   O     O_R   0.431691 0.798749 0.176799 -0.354137
O30   O     O_R   0.570191 0.784928 0.121773 -0.360895
N12   N     N_R   0.495989 0.163578 0.859568 0.262956
O31   O     O_R   0.567639 0.201352 0.822442 -0.353875
O32   O     O_R   0.429353 0.214986 0.878969 -0.361083

loop_
_geom_bond_atom_site_label_1
_geom_bond_atom_site_label_2
_geom_bond_distance
_ccdc_geom_bond_type
C19   C33   1.395355 A    
N7    O21   1.298243 A    
C2    C35   1.425350 S    
O2    C2    1.292587 A    
C24   C36   1.395298 A    
O13   Zn4   2.003732 S    
O14   Zn3   2.003730 S    
C29   H13   1.081531 S    
C18   H2    1.081526 S    
N5    O17   1.298323 A    
O15   Zn4   2.006248 S    
O10   C6    1.292597 A    
O16   Zn3   2.006250 S    
C24   C30   1.369623 A    
N9    O25   1.298299 A    
C25   H9    1.081494 S    
C22   H6    1.081573 S    
C21   C36   1.395605 A    
O8    Zn1   2.006250 S    
N6    O20   1.299386 A    
C6    C39   1.425357 S    
C30   C39   1.395617 A    
C13   C16   1.425755 A    
C23   H7    1.076266 S    
C14   C15   1.425834 A    
C24   H8    1.076322 S    
N3    C14   1.371914 A    
C11   N7    1.428706 S    
C9    C12   1.425768 A    
C25   C38   1.395569 A    
O13   C7    1.292709 A    
O3    C2    1.293039 A    
C10   C11   1.425791 A    
O14   C8    1.292662 A    
O3    Zn1   2.006372 S    
C17   C34   1.395596 A    
N8    O24   1.299420 A    
C32   H16   1.076288 S    
N10   O28   1.299308 A    
C1    C36   1.425360 S    
C28   H12   1.076444 S    
C19   H3    1.076411 S    
N1    C10   1.371938 A    
C23   C29   1.369632 A    
O11   Zn3   2.006372 S    
N9    O26   1.299415 A    
O7    Zn2   2.006248 S    
O12   Zn4   2.006372 S    
C10   N6    1.428704 S    
C28   C38   1.395395 A    
C12   N8    1.428749 S    
C22   C35   1.395611 A    
N5    O18   1.299419 A    
N1    Zn1   2.031281 S    
C17   H1    1.081503 S    
O8    C3    1.292963 A    
N3    Zn3   2.031281 S    
N4    Zn4   2.031281 S    
C29   C40   1.395570 A    
N6    O19   1.298271 A    
C19   C25   1.369616 A    
N4    C15   1.372098 A    
O12   C5    1.292993 A    
N12   O32   1.299433 A    
C27   C37   1.395365 A    
C31   C39   1.395282 A    
C8    C37   1.425375 S    
N2    C9    1.371957 A    
C15   N11   1.428673 S    
N11   O29   1.298155 A    
C30   H14   1.081551 S    
N3    C16   1.372126 A    
N10   O27   1.298213 A    
O1    Zn1   2.003552 S    
C13   N9    1.428735 S    
C27   H11   1.076455 S    
C20   C34   1.395382 A    
C26   H10   1.081520 S    
O4    C1    1.293018 A    
O15   C8    1.292982 A    
N11   O30   1.299322 A    
N2    Zn2   2.031281 S    
O16   C7    1.292942 A    
N7    O22   1.299389 A    
C14   N10   1.428649 S    
C26   C37   1.395616 A    
O5    Zn2   2.003732 S    
C20   C26   1.369610 A    
C18   C33   1.395604 A    
C3    C34   1.425384 S    
O5    C3    1.292685 A    
O6    C4    1.292661 A    
O11   C6    1.293035 A    
O1    C1    1.292615 A    
C32   C40   1.395312 A    
O2    Zn2   2.003552 S    
C23   C35   1.395273 A    
O9    C5    1.292646 A    
N8    O23   1.298261 A    
N4    C13   1.371925 A    
C20   H4    1.076465 S    
C5    C40   1.425369 S    
C21   H5    1.081541 S    
C4    C33   1.425376 S    
C7    C38   1.425393 S    
N12   O31   1.298312 A    
C31   H15   1.076305 S    
O9    Zn3   2.003552 S    
N1    C12   1.372116 A    
C16   N12   1.428737 S    
O10   Zn4   2.003552 S    
N2    C11   1.372103 A    
O6    Zn1   2.003730 S    
C21   C31   1.369620 A    
O7    C4    1.292983 A    
C22   C32   1.369632 A    
C9    N5    1.428750 S    
C17   C27   1.369606 A    
O4    Zn2   2.006372 S    
C18   C28   1.369621 A    
