data_mof_unit_43119.cif
_audit_creation_date              2012-12-11T17:06:32-0500
_audit_creation_method            fapswitch 2.2
_symmetry_space_group_name_H-M    P1
_symmetry_Int_Tables_number       1
_space_group_crystal_system       triclinic
_cell_length_a                    6.978263
_cell_length_b                    14.584847
_cell_length_c                    15.906566
_cell_angle_alpha                 90.540145
_cell_angle_beta                  89.877595
_cell_angle_gamma                 90.47593
_cell_volume                      1618.78973085

loop_
_atom_site_label
_atom_site_type_symbol
_atom_type_description
_atom_site_fract_x
_atom_site_fract_y
_atom_site_fract_z
_atom_type_partial_charge
O1    O     O_R   0.494400 0.415450 0.412630 -0.534134
O2    O     O_R   0.823940 0.405730 0.586760 -0.544912
O3    O     O_R   0.994240 0.584550 0.587370 -0.539732
C1    C     C_R   0.654346 0.385583 0.616966 0.686913
O4    O     O_R   0.824110 0.404430 0.413240 -0.548117
O5    O     O_R   0.994420 0.583240 0.412620 -0.539961
C2    C     C_R   0.654011 0.379333 0.386895 0.694655
O6    O     O_R   0.494230 0.416760 0.587380 -0.535367
O7    O     O_3   0.660800 0.558670 0.500000 -0.369271
V1    V     V_3+5 0.935650 0.489120 0.500000 1.359582
O8    O     O_R   0.324140 0.594270 0.413240 -0.537583
C3    C     C_R   0.155346 0.614347 0.382875 0.700812
O9    O     O_R   0.323960 0.595570 0.586760 -0.538875
C4    C     C_R   0.155028 0.619486 0.614004 0.677845
V2    V     V_3+5 0.435660 0.510880 0.500000 1.381385
O10   O     O_3   0.160640 0.441330 0.500000 -0.374399
C5    C     C_3   0.038519 0.673361 0.767856 -0.178297
C6    C     C_3   0.211821 0.715774 0.815695 -0.137674
H1    H     H_    0.277384 0.687496 0.873338 0.107439
H2    H     H_    0.959750 0.609866 0.785265 0.113057
C7    C     C_3   0.120109 0.811020 0.808671 -0.028621
C8    C     C_3   0.946290 0.769365 0.761709 -0.118051
C9    C     C_3   0.052888 0.784802 0.677795 0.182518
C10   C     C_3   0.225534 0.827961 0.724737 -0.147202
C11   C     C_3   0.317158 0.731643 0.731035 -0.142605
C12   C     C_3   0.144045 0.689662 0.683897 -0.049264
H3    H     H_    0.793578 0.785260 0.774395 0.107571
H4    H     H_    0.301879 0.892108 0.707202 0.098735
H5    H     H_    0.469807 0.715650 0.718313 0.115674
C13   C     C_R   0.248228 0.823514 0.247598 0.092375
C14   C     C_R   0.116471 0.814190 0.181790 -0.159790
C15   C     C_R   0.983306 0.741352 0.186700 -0.158016
H6    H     H_    0.875784 0.732957 0.138114 0.141007
C16   C     C_R   0.995955 0.674445 0.250180 0.189059
C17   C     C_R   0.140390 0.681760 0.313546 -0.155290
C18   C     C_R   0.258605 0.759907 0.311931 0.062368
C19   C     C_3   0.471370 0.769559 0.317343 -0.393610
C20   C     C_3   0.459662 0.839185 0.246876 -0.389022
H7    H     H_    0.546044 0.705800 0.298454 0.187483
H8    H     H_    0.518205 0.800160 0.378260 0.165262
H9    H     H_    0.528492 0.815475 0.187500 0.184120
H10   H     H_    0.499007 0.909953 0.267327 0.154382
C21   C     C_R   0.479346 0.262546 0.696917 0.045767
C22   C     C_R   0.641931 0.317712 0.685845 -0.094534
C23   C     C_R   0.796030 0.303226 0.740069 -0.181349
H11   H     H_    0.916314 0.349354 0.737572 0.133934
C24   C     C_R   0.788092 0.234756 0.801875 -0.107313
H12   H     H_    0.903915 0.230328 0.846599 0.133372
C25   C     C_R   0.626530 0.176688 0.809430 -0.120610
C26   C     C_R   0.477626 0.187467 0.751417 0.015513
C27   C     C_3   0.270875 0.199492 0.771813 -0.024904
C28   C     C_3   0.282625 0.290331 0.725713 -0.031820
H13   H     H_    0.238492 0.204783 0.840164 0.150914
H14   H     H_    0.180687 0.296944 0.672577 0.158682
C29   C     C_R   0.480834 0.301904 0.267855 0.045502
C30   C     C_R   0.640536 0.307798 0.320241 -0.085081
C31   C     C_R   0.789703 0.246503 0.304297 -0.217074
H15   H     H_    0.908275 0.245309 0.346824 0.149648
C32   C     C_R   0.780168 0.183238 0.236848 -0.200883
H16   H     H_    0.893158 0.133432 0.229653 0.131244
C33   C     C_R   0.624519 0.183187 0.180381 -0.130933
C34   C     C_R   0.479975 0.247752 0.194592 0.091497
C35   C     C_3   0.270656 0.229205 0.201482 -0.019319
C36   C     C_3   0.280118 0.271720 0.289607 -0.085828
H17   H     H_    0.230269 0.155338 0.198345 0.140589
H18   H     H_    0.180172 0.329686 0.300251 0.147932
O11   O     O_R   0.771650 0.079500 0.908680 -0.533922
O12   O     O_R   0.441690 0.091800 0.082800 -0.537006
O13   O     O_R   0.271460 0.912980 0.083410 -0.538031
C37   C     C_R   0.611050 0.113934 0.111786 0.703742
O14   O     O_R   0.441930 0.090510 0.909280 -0.546217
O15   O     O_R   0.271690 0.911670 0.908660 -0.539596
C38   C     C_R   0.611635 0.111086 0.879663 0.696461
O16   O     O_R   0.771410 0.080810 0.083440 -0.536779
O17   O     O_3   0.605100 0.937580 0.996050 -0.373227
V3    V     V_3+5 0.330220 0.007110 0.996030 1.411014
O18   O     O_R   0.941980 0.900620 0.909250 -0.541961
C39   C     C_R   0.110375 0.879401 0.879846 0.681595
O19   O     O_R   0.941740 0.901920 0.082770 -0.545875
C40   C     C_R   0.109994 0.880394 0.111788 0.699381
V4    V     V_3+5 0.830220 0.985300 0.996000 1.407904
O20   O     O_3   0.105210 0.054870 0.996020 -0.364070
N1    N     N_3   0.149315 0.131355 0.728873 -0.662764
H19   H     H_    0.192676 0.123072 0.666217 0.225817
H20   H     H_    0.168643 0.068362 0.758433 0.228944
C41   C     C_3   0.284147 0.369756 0.791687 -0.391352
C42   C     C_3   0.276736 0.464261 0.753189 -0.714127
H21   H     H_    0.417486 0.483839 0.726437 0.228817
H22   H     H_    0.163271 0.466161 0.704649 0.222661
H23   H     H_    0.243603 0.514828 0.803452 0.200075
H24   H     H_    0.157600 0.362561 0.833698 0.172324
H25   H     H_    0.412493 0.366021 0.832906 0.196322
N2    N     N_3   0.166303 0.284682 0.140444 -0.655906
H26   H     H_    0.209850 0.353460 0.144623 0.226200
H27   H     H_    0.021077 0.283371 0.155475 0.247382
C43   C     C_3   0.274897 0.194519 0.356955 -0.379194
C44   C     C_3   0.254680 0.229805 0.447076 -0.693487
H28   H     H_    0.131912 0.277040 0.452728 0.236803
H29   H     H_    0.227988 0.171002 0.489505 0.188920
H30   H     H_    0.388059 0.264229 0.468354 0.227655
H31   H     H_    0.152652 0.147281 0.344126 0.165119
H32   H     H_    0.405370 0.151361 0.352761 0.195034
C45   C     C_3   0.962061 0.822665 0.598164 -0.384975
C46   C     C_3   0.883305 0.918753 0.612912 -0.753367
H33   H     H_    0.771478 0.917766 0.662716 0.221920
H34   H     H_    0.000316 0.966600 0.631905 0.228583
H35   H     H_    0.818234 0.944045 0.553959 0.217382
H36   H     H_    0.071578 0.824765 0.547407 0.169678
H37   H     H_    0.843615 0.776193 0.577888 0.185083
N3    N     N_3   0.871680 0.595911 0.243595 -0.680306
H38   H     H_    0.955158 0.536694 0.243457 0.219797
H39   H     H_    0.779657 0.594369 0.295338 0.240154

loop_
_geom_bond_atom_site_label_1
_geom_bond_atom_site_label_2
_ccdc_geom_bond_type
C33   C37   S    
C42   H21   S    
C35   H17   S    
N2    H26   S    
C43   H32   S    
C6    C7    S    
C17   C18   A    
C1    O6    A    
C46   H34   S    
V4    O20   S    
C14   C40   S    
C24   C25   A    
O18   C39   A    
C19   C20   S    
C5    C12   S    
C7    C8    S    
C18   C19   S    
C20   H10   S    
C19   H8    S    
C41   H24   S    
O5    C3    A    
O14   V3    S    
C21   C28   S    
C31   C32   A    
V2    O10   S    
C29   C34   A    
C5    H2    S    
C6    H1    S    
C30   C31   A    
C13   C20   S    
O13   V3    S    
C16   C17   A    
C9    C12   S    
N3    H38   S    
O15   C39   A    
O8    V2    S    
C9    C45   S    
N1    H19   S    
C7    C39   S    
C37   O16   A    
C9    C10   S    
C45   H36   S    
O11   C38   A    
O7    V1    S    
O15   V3    S    
C32   H16   S    
N2    H27   S    
C43   H31   S    
C29   C36   S    
C6    C11   S    
C2    C30   S    
C46   H33   S    
C44   H29   S    
C28   H14   S    
C44   H28   S    
C23   C24   A    
C11   H5    S    
C32   C33   A    
C27   C28   S    
C10   C11   S    
C36   C43   S    
C20   H9    S    
V3    O20   S    
O19   V4    S    
C41   C42   S    
O17   V4    S    
C1    C22   S    
C26   C27   S    
C11   C12   S    
C23   H11   S    
O19   C40   A    
C27   H13   S    
C36   H18   S    
O2    C1    A    
O17   V3    S    
C34   C35   S    
C24   H12   S    
O18   V4    S    
C43   C44   S    
C29   C30   A    
C5    C6    S    
C4    C12   S    
C3    C17   S    
O3    C4    A    
O1    V2    S    
N1    H20   S    
O11   V4    S    
O6    V2    S    
C8    H3    S    
O9    V2    S    
C21   C22   A    
C16   N3    S    
C25   C38   S    
C7    C10   S    
O16   V4    S    
O2    V1    S    
C27   N1    S    
C44   H30   S    
C22   C23   A    
O4    C2    A    
O1    C2    A    
C14   C15   A    
C10   H4    S    
O5    V1    S    
O8    C3    A    
C21   C26   A    
O12   V3    S    
C35   N2    S    
C5    C8    S    
C13   C18   A    
C45   H37   S    
C15   H6    S    
C28   C41   S    
O7    V2    S    
O4    V1    S    
C19   H7    S    
O3    V1    S    
V1    O10   S    
C31   H15   S    
C13   C14   A    
C33   C34   A    
N3    H39   S    
C35   C36   S    
O12   C37   A    
C25   C26   A    
C42   H23   S    
O14   C38   A    
C45   C46   S    
C42   H22   S    
C8    C9    S    
O13   C40   A    
C41   H25   S    
O9    C4    A    
C46   H35   S    
C15   C16   A    
