data_mof_unit_12032.cif
_audit_creation_date              2012-12-10T17:31:59-0500
_audit_creation_method            fapswitch 2.2
_symmetry_space_group_name_H-M    P1
_symmetry_Int_Tables_number       1
_space_group_crystal_system       triclinic
_cell_length_a                    11.996805
_cell_length_b                    11.550134
_cell_length_c                    12.967771
_cell_angle_alpha                 90.475483
_cell_angle_beta                  92.269751
_cell_angle_gamma                 86.166831
_cell_volume                      1791.42026442

loop_
_atom_site_label
_atom_site_type_symbol
_atom_type_description
_atom_site_fract_x
_atom_site_fract_y
_atom_site_fract_z
_atom_type_partial_charge
C1    C     C_R   0.479295 0.504311 0.299552 0.923225
C2    C     C_R   0.974229 0.541690 0.534397 -0.157029
C3    C     C_R   0.499932 0.281821 0.499929 0.905768
C4    C     C_R   0.500079 0.718172 0.500144 0.873783
C5    C     C_1   0.499864 0.161418 0.500039 -0.169526
C6    C     C_1   0.500175 0.838550 0.500247 -0.182734
C7    C     C_1   0.499949 0.059287 0.500158 0.004774
C8    C     C_1   0.500103 0.940675 0.500257 0.000156
C9    C     C_R   0.534045 0.507914 0.810670 -0.277008
C10   C     C_R   0.469094 0.512780 0.188336 -0.228128
C11   C     C_R   0.350240 0.528354 0.032241 0.549789
C12   C     C_R   0.521218 0.502600 0.700090 0.919834
C13   C     C_R   0.651146 0.481391 0.964410 0.506240
C14   C     C_R   0.362879 0.517273 0.139684 -0.434354
C15   C     C_R   0.638222 0.478681 0.858128 -0.382380
C16   C     C_R   0.565926 0.514756 0.130700 0.438652
C17   C     C_R   0.441773 0.541887 0.869232 0.503019
C18   C     C_R   0.556010 0.506033 0.024006 -0.215631
C19   C     C_R   0.448451 0.524585 0.975269 -0.155393
C20   C     C_3   0.371782 0.725285 0.828613 0.156713
C21   C     C_3   0.272246 0.795110 0.872374 -0.788820
C22   C     C_3   0.695337 0.640278 0.182344 0.181930
C23   C     C_R   0.042997 0.616993 0.591058 0.273014
C24   C     C_3   0.812203 0.649675 0.230186 -0.776697
C25   C     C_3   0.153492 0.560427 0.037245 0.074875
C26   C     C_3   0.051376 0.584328 0.965251 -0.745599
C27   C     C_3   0.779433 0.341865 0.024155 0.152679
C28   C     C_3   0.898161 0.320199 0.068412 -0.803172
C29   C     C_R   0.958472 0.380279 0.413470 0.267080
C30   C     C_R   0.160156 0.607827 0.578032 0.593033
C31   C     C_R   0.839906 0.392639 0.421332 0.499209
C32   C     C_R   0.143533 0.445538 0.466692 -0.105191
C33   C     C_R   0.855866 0.552871 0.535760 -0.147659
C34   C     C_R   0.025497 0.454722 0.471622 -0.049412
H1    H     H_    0.710759 0.455976 0.813061 0.203571
H2    H     H_    0.634880 0.691864 0.230429 0.107739
H3    H     H_    0.693410 0.678194 0.103482 0.128788
H4    H     H_    0.833990 0.741610 0.230282 0.193005
H5    H     H_    0.815682 0.618324 0.310883 0.251216
H6    H     H_    0.874213 0.596860 0.185230 0.254836
H7    H     H_    0.166683 0.640737 0.083055 0.128550
H8    H     H_    0.135566 0.487965 0.088744 0.151637
H9    H     H_    0.037337 0.507068 0.916109 0.262612
H10   H     H_    0.976267 0.604691 0.011117 0.216981
H11   H     H_    0.063605 0.659178 0.914838 0.259921
H12   H     H_    0.290865 0.512216 0.186479 0.181766
H13   H     H_    0.771988 0.292412 0.950291 0.116359
H14   H     H_    0.720985 0.309194 0.080157 0.168014
H15   H     H_    0.910414 0.374885 0.138221 0.272356
H16   H     H_    0.913913 0.227388 0.089452 0.204843
H17   H     H_    0.958844 0.342270 0.010406 0.246237
H18   H     H_    0.808075 0.240493 0.369250 0.312445
H19   H     H_    0.184130 0.754158 0.647936 0.350473
H20   H     H_    0.936658 0.667532 0.693592 0.337750
H21   H     H_    0.956603 0.274489 0.295458 0.337352
H22   H     H_    0.812707 0.620561 0.579704 0.175358
H23   H     H_    0.184905 0.379356 0.419487 0.214060
H24   H     H_    0.384310 0.755235 0.749038 0.177896
H25   H     H_    0.447726 0.746495 0.876099 0.074307
H26   H     H_    0.264309 0.772829 0.954724 0.242843
H27   H     H_    0.284538 0.889259 0.866919 0.199051
H28   H     H_    0.194032 0.776393 0.828878 0.277950
N1    N     N_R   0.792200 0.479100 0.480660 -0.129085
N2    N     N_R   0.207800 0.520900 0.519340 -0.160437
O1    O     O_R   0.578300 0.494420 0.341180 -0.527473
O2    O     O_3   0.670523 0.522342 0.178691 -0.538663
O3    O     O_3   0.246950 0.528063 0.977861 -0.554802
O4    O     O_3   0.757597 0.462081 0.008305 -0.586255
O5    O     O_3   0.770137 0.319276 0.370429 -0.721903
O6    O     O_3   0.229279 0.684552 0.624960 -0.719795
O7    O     O_3   0.999915 0.699396 0.659068 -0.793762
O8    O     O_3   0.010640 0.298984 0.349450 -0.790837
O9    O     O_R   0.421700 0.505580 0.658820 -0.538283
O10   O     O_R   0.390690 0.507830 0.353590 -0.642538
O11   O     O_R   0.609310 0.492170 0.646410 -0.641791
O12   O     O_R   0.593810 0.327740 0.493800 -0.564074
O13   O     O_R   0.406190 0.672260 0.506200 -0.565459
O14   O     O_R   0.406190 0.341150 0.506220 -0.625396
O15   O     O_R   0.593810 0.658850 0.493780 -0.634355
O16   O     O_3   0.350579 0.605669 0.825009 -0.519312
Zn1   Zn    Zn3+2 0.625270 0.491050 0.491710 0.996823
Zn2   Zn    Zn3+2 0.374730 0.508950 0.508290 1.004441

loop_
_geom_bond_atom_site_label_1
_geom_bond_atom_site_label_2
_ccdc_geom_bond_type
C27   H14   S    
C30   N2    A    
C25   O3    S    
C26   H10   S    
C7    C8    S    
C14   H12   S    
C11   C19   A    
C13   C18   A    
N1    Zn1   S    
C1    O10   A    
C28   H17   S    
C24   H5    S    
C18   C19   A    
C22   O2    S    
C27   O4    S    
C26   H11   S    
C24   H6    S    
O1    Zn1   S    
H20   O7    S    
C24   H4    S    
H18   O5    S    
C21   H27   S    
H21   O8    S    
C29   O8    S    
C2    C34   A    
C33   H22   S    
C12   O9    A    
C28   H16   S    
C32   H23   S    
O10   Zn2   S    
H19   O6    S    
C15   H1    S    
C30   O6    S    
C11   O3    S    
C26   H9    S    
C20   O16   S    
C23   C30   A    
C23   O7    S    
C32   N2    A    
C21   H26   S    
C4    C6    S    
C10   C14   A    
C25   H7    S    
C11   C14   A    
C5    C7    T    
O11   Zn1   S    
C6    C8    T    
C25   C26   S    
C22   H3    S    
C29   C34   A    
C17   O16   S    
C32   C34   A    
O12   Zn1   S    
C31   N1    A    
C28   H15   S    
O14   Zn2   S    
C1    O1    A    
C33   N1    A    
C20   H25   S    
C3    O12   A    
N2    Zn2   S    
C21   H28   S    
C4    O15   A    
C2    C33   A    
C9    C17   A    
C13   C15   A    
C22   C24   S    
C16   O2    S    
C20   H24   S    
O9    Zn2   S    
C2    C23   A    
O15   Zn1   S    
C27   H13   S    
C1    C10   S    
C3    C5    S    
C25   H8    S    
C22   H2    S    
C9    C15   A    
C4    O13   A    
C29   C31   A    
C10   C16   A    
O13   Zn2   S    
C17   C19   A    
C9    C12   S    
C31   O5    S    
C20   C21   S    
C16   C18   A    
C12   O11   A    
C27   C28   S    
C3    O14   A    
C13   O4    S    
