data_mof_unit_66247.cif
_audit_creation_date              2012-10-26T18:00:29-0400
_audit_creation_method            fapswitch 2.2
_symmetry_space_group_name_H-M    P1
_symmetry_Int_Tables_number       1
_space_group_crystal_system       triclinic
_cell_length_a                    18.699534
_cell_length_b                    18.868257
_cell_length_c                    18.996049
_cell_angle_alpha                 109.955467
_cell_angle_beta                  109.342848
_cell_angle_gamma                 109.313942
_cell_volume                      5146.61771904

loop_
_atom_site_label
_atom_site_type_symbol
_atom_type_description
_atom_site_fract_x
_atom_site_fract_y
_atom_site_fract_z
_atom_type_partial_charge
C1    C     C_R   0.381522 0.381195 0.500438 0.542443
C2    C     C_R   0.586752 0.341617 0.623521 -0.092334
C3    C     C_R   0.278259 0.227018 0.445123 -0.008806
C4    C     C_R   0.619254 0.500045 0.618144 0.544835
C5    C     C_R   0.315893 0.315217 0.502255 0.011694
C6    C     C_R   0.287074 0.338186 0.562387 -0.147753
C7    C     C_R   0.222350 0.273244 0.562396 -0.151115
C8    C     C_R   0.185646 0.184951 0.502182 0.024651
C9    C     C_R   0.215726 0.164949 0.444814 -0.019654
C10   C     C_3   0.205425 0.091883 0.371385 -0.112937
C11   C     C_3   0.276644 0.162783 0.371238 -0.267861
C12   C     C_R   0.768250 0.573786 0.743974 0.000478
C13   C     C_R   0.312119 0.487779 0.238660 0.017480
C14   C     C_R   0.314588 0.501108 0.316143 0.015306
C15   C     C_R   0.249611 0.516360 0.328993 -0.150598
C16   C     C_R   0.616405 0.618965 0.497805 0.562752
C17   C     C_R   0.184509 0.515735 0.263902 -0.151927
C18   C     C_R   0.185565 0.502844 0.186672 0.020845
C19   C     C_R   0.251774 0.490458 0.177833 0.014046
C20   C     C_3   0.285530 0.470656 0.117099 -0.273647
C21   C     C_3   0.355018 0.468463 0.186815 -0.266026
C22   C     C_R   0.686369 0.672415 0.422751 0.060363
C23   C     C_R   0.811358 0.498059 0.814807 -0.020311
C24   C     C_R   0.683832 0.686086 0.498664 0.035831
C25   C     C_R   0.752012 0.762192 0.577200 -0.135856
C26   C     C_R   0.818401 0.825138 0.577903 -0.123427
C27   C     C_R   0.814208 0.814975 0.499682 0.035814
C28   C     C_R   0.381276 0.500286 0.381535 0.546208
C29   C     C_R   0.749645 0.736740 0.423045 0.018720
C30   C     C_3   0.685977 0.721036 0.339306 -0.270240
C31   C     C_3   0.616572 0.650073 0.338618 -0.279838
C32   C     C_R   0.999689 0.381232 0.880923 0.549684
C33   C     C_R   0.880468 0.499435 0.881339 0.533442
C34   C     C_R   0.735248 0.417719 0.745067 0.010924
C35   C     C_R   0.000483 0.618982 0.119170 0.544093
C36   C     C_R   0.118910 0.500503 0.118750 0.550686
C37   C     C_R   0.999495 0.118181 0.618224 0.574069
C38   C     C_R   0.118775 0.117991 0.500050 0.550841
C39   C     C_R   0.000073 0.881292 0.381467 0.539513
C40   C     C_R   0.800934 0.645096 0.731817 0.008267
C41   C     C_R   0.880917 0.881652 0.499961 0.559123
C42   C     C_R   0.965962 0.230092 0.796350 0.003059
C43   C     C_R   0.999181 0.315226 0.813218 0.006301
C44   C     C_R   0.033116 0.335099 0.761743 -0.151265
C45   C     C_R   0.668362 0.419338 0.684009 0.007519
C46   C     C_R   0.032592 0.270025 0.696560 -0.161378
C47   C     C_R   0.999622 0.185086 0.683373 0.039034
C48   C     C_R   0.966636 0.168144 0.734725 0.067844
C49   C     C_3   0.925242 0.099074 0.752815 -0.117370
C50   C     C_3   0.924977 0.170234 0.823662 -0.274192
C51   C     C_R   0.922745 0.683439 0.176692 -0.009677
C52   C     C_R   0.869598 0.726308 0.802878 -0.120195
C53   C     C_R   0.000920 0.686972 0.184941 0.016033
C54   C     C_R   0.080503 0.761635 0.254174 -0.128331
C55   C     C_R   0.080684 0.825482 0.319504 -0.099555
C56   C     C_R   0.686080 0.497647 0.682789 -0.015784
C57   C     C_R   0.001176 0.816113 0.314569 0.038340
C58   C     C_R   0.922798 0.746796 0.240291 0.008638
C59   C     C_3   0.840467 0.682242 0.228653 -0.120887
C60   C     C_3   0.841024 0.612344 0.158237 -0.216663
C61   C     C_R   0.910585 0.734501 0.883533 -0.125103
C62   C     C_R   0.890042 0.660008 0.890640 -0.087399
C63   C     C_R   0.822931 0.577261 0.817923 -0.003426
C64   C     C_2   0.116706 0.044129 0.292360 0.238851
C65   C     C_1   0.788644 0.628044 0.647585 0.189330
C66   C     C_2   0.834572 0.026878 0.680485 0.205766
C67   C     C_R   0.723512 0.335567 0.733752 -0.088660
C68   C     C_2   0.853126 0.672978 0.307068 0.218070
C69   C     C_R   0.643935 0.259266 0.671158 -0.115034
C70   C     C_R   0.574890 0.262637 0.617866 -0.115737
Cu1   Cu    Cu3+1 0.500020 0.438210 0.438210 0.955941
Cu2   Cu    Cu3+1 0.499980 0.561790 0.561790 0.935189
Cu3   Cu    Cu3+1 0.938170 0.438220 0.000040 0.925898
Cu4   Cu    Cu3+1 0.061780 0.561790 0.000020 0.934792
Cu5   Cu    Cu3+1 0.061800 0.000020 0.561820 0.940667
Cu6   Cu    Cu3+1 0.938200 0.000080 0.438280 0.985885
H1    H     H_    0.512597 0.203525 0.570412 0.112528
H2    H     H_    0.347988 0.402779 0.166824 0.148941
H3    H     H_    0.422500 0.522680 0.217154 0.129364
H4    H     H_    0.754240 0.772563 0.637783 0.122320
H5    H     H_    0.870666 0.883269 0.638850 0.118756
H6    H     H_    0.675248 0.777065 0.346443 0.159318
H7    H     H_    0.700309 0.695357 0.286840 0.139807
H8    H     H_    0.565298 0.664658 0.344912 0.125918
H9    H     H_    0.591495 0.583573 0.286125 0.151391
H10   H     H_    0.059369 0.400193 0.771280 0.142500
H11   H     H_    0.058647 0.286135 0.657551 0.113537
H12   H     H_    0.200744 0.291831 0.608566 0.108944
H13   H     H_    0.894803 0.781853 0.794820 0.108623
H14   H     H_    0.969403 0.075719 0.778560 0.096711
H15   H     H_    0.858926 0.160235 0.811071 0.144406
H16   H     H_    0.970253 0.188891 0.890412 0.125466
H17   H     H_    0.142305 0.768563 0.259746 0.126042
H18   H     H_    0.142458 0.881218 0.374040 0.123200
H19   H     H_    0.785289 0.693855 0.203505 0.110091
H20   H     H_    0.852480 0.563705 0.173215 0.193688
H21   H     H_    0.785971 0.583958 0.092423 0.124441
H22   H     H_    0.963318 0.797334 0.938826 0.127810
H23   H     H_    0.226301 0.049475 0.390633 0.140743
H24   H     H_    0.927222 0.667742 0.952795 0.144751
H25   H     H_    0.775251 0.328225 0.771319 0.147086
H26   H     H_    0.635704 0.197306 0.664375 0.119612
H27   H     H_    0.531629 0.340595 0.579431 0.133140
H28   H     H_    0.313988 0.405738 0.609027 0.140833
H29   H     H_    0.089396 0.079885 0.269835 0.116954
H30   H     H_    0.792954 0.983814 0.693617 0.100554
H31   H     H_    0.884775 0.730415 0.369948 0.117256
H32   H     H_    0.339118 0.161745 0.391168 0.133363
H33   H     H_    0.253508 0.169744 0.313276 0.136590
H34   H     H_    0.248070 0.526949 0.388087 0.135464
H35   H     H_    0.134227 0.525930 0.274099 0.129500
H36   H     H_    0.238051 0.406083 0.057230 0.135627
H37   H     H_    0.313009 0.525873 0.106947 0.146846
N1    N     N_1   0.781487 0.612628 0.580457 -0.273857
O1    O     O_R   0.409840 0.357650 0.447820 -0.518563
O2    O     O_R   0.947830 0.090230 0.538080 -0.483262
O3    O     O_R   0.142360 0.090200 0.552220 -0.512830
O4    O     O_R   0.409810 0.462010 0.552170 -0.518422
O5    O     O_R   0.037990 0.090250 0.447890 -0.507132
O6    O     O_R   0.052170 0.909870 0.462020 -0.522144
O7    O     O_R   0.947790 0.909920 0.357690 -0.497695
O8    O     O_R   0.962010 0.909850 0.552210 -0.515981
O9    O     O_R   0.857640 0.909910 0.447880 -0.501236
O10   O     O_R   0.590190 0.447820 0.538000 -0.503034
O11   O     O_R   0.590150 0.552180 0.642350 -0.506428
O12   O     O_R   0.052170 0.462000 0.909870 -0.514603
O13   O     O_R   0.590190 0.537990 0.447830 -0.483257
O14   O     O_R   0.590160 0.642350 0.552180 -0.519804
O15   O     O_R   0.409850 0.447820 0.357650 -0.514145
O16   O     O_R   0.409810 0.552180 0.462000 -0.514085
O17   O     O_R   0.947790 0.357650 0.909890 -0.515564
O18   O     O_2   0.074677 0.964730 0.252979 -0.505993
O19   O     O_2   0.807401 0.015169 0.607206 -0.486838
O20   O     O_2   0.825142 0.601319 0.300472 -0.491150
O21   O     O_R   0.857610 0.447830 0.909870 -0.520796
O22   O     O_R   0.962000 0.552180 0.909850 -0.508263
O23   O     O_R   0.947780 0.538010 0.090190 -0.511668
O24   O     O_R   0.052160 0.642360 0.090170 -0.512692
O25   O     O_R   0.037950 0.447840 0.090220 -0.508566
O26   O     O_R   0.142340 0.552190 0.090190 -0.508267
O27   O     O_R   0.052210 0.090180 0.642410 -0.522125

loop_
_geom_bond_atom_site_label_1
_geom_bond_atom_site_label_2
_ccdc_geom_bond_type
Cu3   O17   S    
C30   H6    S    
C31   H9    S    
C22   C29   A    
C35   C53   S    
C25   H4    S    
Cu3   Cu4   S    
C61   H22   S    
Cu5   O3    S    
C49   H14   S    
Cu5   Cu6   S    
C64   H29   S    
C37   O2    A    
Cu4   O12   S    
C53   C54   A    
C5    C6    A    
Cu4   O24   S    
C26   C27   A    
C29   C30   S    
C37   O27   A    
C4    O11   A    
Cu2   O14   S    
C1    C5    S    
Cu6   O7    S    
C18   C19   A    
C52   C61   A    
C35   O24   A    
C20   H37   S    
C11   H33   S    
C39   O6    A    
Cu5   O8    S    
C27   C29   A    
C4    O10   A    
C28   O15   A    
C65   N1    T    
C32   O12   A    
C30   H7    S    
C7    H12   S    
C33   O21   A    
C54   H17   S    
Cu5   O27   S    
C20   H36   S    
C38   O3    A    
C64   O18   D    
C45   C56   A    
C8    C9    A    
C23   C33   S    
Cu4   O22   S    
C21   H2    S    
C68   H31   S    
C6    H28   S    
C37   C47   S    
C9    C10   S    
C23   C63   A    
C59   C60   S    
C16   C24   S    
C13   C14   A    
C4    C56   S    
C70   H1    S    
C15   H34   S    
Cu1   O13   S    
C52   H13   S    
C10   H23   S    
C8    C38   S    
C66   H30   S    
C55   H18   S    
C44   H10   S    
C17   H35   S    
C36   O25   A    
C44   C46   A    
C2    C45   A    
Cu6   O5    S    
C22   C31   S    
C13   C19   A    
Cu1   O1    S    
Cu3   O21   S    
Cu1   O10   S    
C7    C8    A    
C24   C25   A    
C60   H21   S    
C49   C66   S    
C51   C58   A    
C12   C63   A    
Cu3   O25   S    
C25   C26   A    
C69   H26   S    
Cu4   O26   S    
C31   H8    S    
C51   C53   A    
C41   O8    A    
C12   C40   A    
C43   C44   A    
C62   C63   A    
C3    C9    A    
C59   C68   S    
Cu1   O15   S    
C66   O19   D    
C36   O26   A    
C27   C41   S    
C47   C48   A    
C23   C34   A    
C21   H3    S    
C17   C18   A    
C13   C21   S    
C34   C45   A    
C42   C48   A    
C16   O14   A    
C12   C56   A    
C59   H19   S    
C62   H24   S    
C38   O5    A    
C60   H20   S    
C50   H16   S    
C48   C49   S    
C42   C50   S    
C26   H5    S    
C40   C65   S    
C55   C57   A    
C22   C24   A    
C42   C43   A    
C67   H25   S    
C46   H11   S    
C15   C17   A    
C54   C55   A    
Cu6   O9    S    
C10   C64   S    
Cu5   O6    S    
C3    C5    A    
C34   C67   A    
Cu2   O16   S    
C6    C7    A    
C39   O7    A    
Cu2   O11   S    
C14   C28   S    
C41   O9    A    
C19   C20   S    
C68   O20   D    
C58   C59   S    
Cu1   Cu2   S    
C40   C52   A    
C35   O23   A    
C33   O22   A    
C57   C58   A    
C30   C31   S    
Cu3   O23   S    
C2    H27   S    
Cu6   O2    S    
C32   C43   S    
C28   O16   A    
C1    O4    A    
C61   C62   A    
C16   O13   A    
C69   C70   A    
C46   C47   A    
C3    C11   S    
C10   C11   S    
C50   H15   S    
C20   C21   S    
C49   C50   S    
Cu2   O4    S    
C11   H32   S    
C14   C15   A    
C51   C60   S    
C1    O1    A    
C67   C69   A    
C2    C70   A    
C18   C36   S    
C32   O17   A    
C39   C57   S    
