data_mof_unit_53582.cif
_audit_creation_date              2012-12-11T15:41:30-0500
_audit_creation_method            fapswitch 2.2
_symmetry_space_group_name_H-M    P1
_symmetry_Int_Tables_number       1
_space_group_crystal_system       triclinic
_cell_length_a                    19.093294
_cell_length_b                    10.962591
_cell_length_c                    18.84548
_cell_angle_alpha                 89.981169
_cell_angle_beta                  90.43163
_cell_angle_gamma                 89.964531
_cell_volume                      3944.47169514

loop_
_atom_site_label
_atom_site_type_symbol
_atom_type_description
_atom_site_fract_x
_atom_site_fract_y
_atom_site_fract_z
_atom_type_partial_charge
C1    C     C_R   0.726724 0.957623 0.854103 0.550547
C2    C     C_R   0.275731 0.963203 0.143418 0.546978
C3    C     C_R   0.227217 0.456087 0.853370 0.551061
C4    C     C_R   0.775960 0.463738 0.143297 0.547543
C5    C     C_R   0.706864 0.493261 0.031887 0.010527
C6    C     C_R   0.291629 0.491963 0.964741 0.025575
C7    C     C_R   0.203970 0.986030 0.033349 0.005598
C8    C     C_R   0.793176 0.993002 0.965526 0.025455
C9    C     C_R   0.699825 0.482042 0.959261 0.015260
C10   C     C_R   0.294984 0.482039 0.038328 0.022771
C11   C     C_R   0.196801 0.979220 0.960117 0.027718
C12   C     C_R   0.797234 0.984289 0.039129 0.026905
C13   C     C_R   0.817465 0.406410 0.952442 -0.148784
C14   C     C_R   0.203714 0.329196 0.032161 -0.114513
C15   C     C_R   0.316523 0.913472 0.951699 -0.151539
C16   C     C_R   0.696375 0.851641 0.036515 -0.120417
C17   C     C_R   0.824216 0.417033 0.025659 -0.156064
C18   C     C_R   0.202282 0.337260 0.959274 -0.136972
C19   C     C_R   0.323752 0.923135 0.024855 -0.157584
C20   C     C_R   0.693915 0.859048 0.963994 -0.140784
C21   C     C_3   0.630458 0.475414 0.043860 -0.267792
C22   C     C_3   0.369331 0.497511 0.958848 -0.273436
C23   C     C_3   0.129878 0.950090 0.046010 -0.277004
C24   C     C_3   0.870843 0.992168 0.957938 -0.277683
C25   C     C_3   0.621996 0.466176 0.962916 -0.116130
C26   C     C_3   0.373334 0.491578 0.039341 -0.123678
C27   C     C_3   0.120566 0.947623 0.965392 -0.114376
C28   C     C_3   0.875846 0.986455 0.038683 -0.127155
C29   C     C_R   0.752398 0.426338 0.919275 0.006921
C30   C     C_R   0.251765 0.398328 0.072957 0.017317
C31   C     C_R   0.250929 0.928513 0.919314 0.002884
C32   C     C_R   0.750368 0.908334 0.075453 0.012752
C33   C     C_R   0.479848 0.169478 0.432585 0.017625
C34   C     C_R   0.490203 0.170939 0.579723 0.018337
C35   C     C_R   0.979867 0.669476 0.432577 0.017718
C36   C     C_R   0.990217 0.670939 0.579715 0.018577
C37   C     C_R   0.474409 0.277957 0.470225 0.042706
C38   C     C_R   0.478639 0.279735 0.542337 0.030722
C39   C     C_R   0.974432 0.777956 0.470216 0.042711
C40   C     C_R   0.978660 0.779735 0.542328 0.030899
C41   C     C_R   0.480721 0.059417 0.544260 -0.167159
C42   C     C_R   0.476413 0.058614 0.470129 -0.162376
C43   C     C_R   0.980736 0.559417 0.544253 -0.167149
C44   C     C_R   0.976430 0.558612 0.470122 -0.162326
C45   C     C_R   0.529851 0.176723 0.850967 0.565086
C46   C     C_R   0.471241 0.177245 0.149943 0.568648
C47   C     C_R   0.030044 0.676672 0.851113 0.565323
C48   C     C_R   0.971452 0.677409 0.150166 0.569097
C49   C     C_3   0.513430 0.394334 0.460699 -0.279629
C50   C     C_3   0.518700 0.398085 0.540487 -0.269676
C51   C     C_3   0.013458 0.894328 0.460689 -0.279671
C52   C     C_3   0.018728 0.898077 0.540478 -0.269709
C53   C     C_R   0.763134 0.441449 0.430197 0.014898
C54   C     C_R   0.248591 0.402742 0.579874 0.015465
C55   C     C_R   0.263135 0.941453 0.430199 0.014934
C56   C     C_R   0.748586 0.902755 0.579870 0.015398
C57   C     C_R   0.818270 0.391924 0.469385 0.040179
C58   C     C_R   0.199828 0.333448 0.541271 0.029792
C59   C     C_R   0.318270 0.891923 0.469386 0.040195
C60   C     C_R   0.699817 0.833477 0.541264 0.030000
C61   C     C_R   0.814933 0.381312 0.541732 0.030378
C62   C     C_R   0.204433 0.323523 0.468957 0.038428
C63   C     C_R   0.314933 0.881312 0.541734 0.030420
C64   C     C_R   0.704426 0.823546 0.468951 0.038448
C65   C     C_R   0.705288 0.489934 0.541715 -0.164817
C66   C     C_R   0.313508 0.432281 0.470688 -0.159985
C67   C     C_R   0.205293 0.989947 0.541720 -0.164987
C68   C     C_R   0.813511 0.932273 0.470686 -0.159989
C69   C     C_R   0.708911 0.500205 0.467467 -0.160234
C70   C     C_R   0.309500 0.441468 0.544961 -0.165825
C71   C     C_R   0.208914 0.000213 0.467471 -0.160117
C72   C     C_R   0.809500 0.941466 0.544959 -0.165896
C73   C     C_3   0.855059 0.273157 0.460132 -0.281001
C74   C     C_3   0.121454 0.340451 0.537375 -0.270144
C75   C     C_3   0.355053 0.773152 0.460133 -0.281070
C76   C     C_3   0.621444 0.840510 0.537363 -0.270011
C77   C     C_3   0.851591 0.260408 0.539867 -0.269798
C78   C     C_3   0.127163 0.328971 0.457715 -0.279210
C79   C     C_3   0.351586 0.760403 0.539868 -0.269711
C80   C     C_3   0.627157 0.829017 0.457704 -0.279415
C81   C     C_R   0.755263 0.419251 0.578501 0.016336
C82   C     C_R   0.257481 0.381404 0.431561 0.014565
C83   C     C_R   0.255267 0.919259 0.578505 0.016119
C84   C     C_R   0.757480 0.881410 0.431558 0.014692
C85   C     C_R   0.738404 0.365056 0.852226 0.550681
C86   C     C_R   0.262458 0.360173 0.145964 0.551977
C87   C     C_R   0.238116 0.865236 0.852373 0.548013
C88   C     C_R   0.762159 0.862320 0.146722 0.550693
C89   C     C_R   0.727900 0.953932 0.647982 0.539638
C90   C     C_R   0.274354 0.961046 0.354838 0.544018
C91   C     C_R   0.227902 0.453926 0.647985 0.538622
C92   C     C_R   0.774354 0.461046 0.354837 0.544150
C93   C     C_R   0.528179 0.176645 0.645988 0.547490
C94   C     C_R   0.466637 0.176290 0.357524 0.548874
C95   C     C_R   0.028184 0.676645 0.645985 0.548156
C96   C     C_R   0.966644 0.676289 0.357519 0.548966
C97   C     C_R   0.739855 0.363330 0.646817 0.545472
C98   C     C_R   0.262477 0.356066 0.356016 0.547906
C99   C     C_R   0.239857 0.863337 0.646821 0.545537
C100  C     C_R   0.762477 0.856067 0.356015 0.547538
C101  C     C_2   0.500480 0.165257 0.922745 -0.111057
C102  C     C_2   0.503248 0.168646 0.079531 -0.107978
C103  C     C_2   0.001247 0.665076 0.923165 -0.114166
C104  C     C_2   0.003655 0.669798 0.079949 -0.112154
C105  C     C_2   0.505965 0.063269 0.042209 0.081579
C106  C     C_2   0.506691 0.061734 0.962475 0.088658
C107  C     C_2   0.008561 0.564477 0.043153 0.084298
C108  C     C_2   0.009040 0.562355 0.963483 0.091050
C109  C     C_R   0.766018 0.448021 0.067261 0.013894
C110  C     C_R   0.246260 0.418655 0.924532 0.009405
C111  C     C_R   0.265281 0.947174 0.067373 0.012705
C112  C     C_R   0.743485 0.925918 0.926857 0.009018
Cr1   Cr    Cr6+3 0.769260 0.163750 0.750730 1.017621
Cr2   Cr    Cr6+3 0.230740 0.163750 0.249270 1.027260
Cr3   Cr    Cr6+3 0.269260 0.663750 0.750730 1.016188
Cr4   Cr    Cr6+3 0.730740 0.663750 0.249270 1.026490
Cr5   Cr    Cr6+3 0.612640 0.009910 0.748780 1.043979
Cr6   Cr    Cr6+3 0.387360 0.009910 0.251220 1.034334
Cr7   Cr    Cr6+3 0.112640 0.509910 0.748780 1.040313
Cr8   Cr    Cr6+3 0.887360 0.509910 0.251220 1.034943
Cr9   Cr    Cr6+3 0.614190 0.322400 0.747710 0.986048
Cr10  Cr    Cr6+3 0.385810 0.322400 0.252290 0.988874
Cr11  Cr    Cr6+3 0.114190 0.822400 0.747710 0.981128
Cr12  Cr    Cr6+3 0.885810 0.822400 0.252290 0.988278
H1    H     H_    0.980582 0.968593 0.438176 0.135027
H2    H     H_    0.073629 0.888525 0.558959 0.170448
H3    H     H_    0.480553 0.468597 0.438184 0.135059
H4    H     H_    0.573601 0.388546 0.558967 0.170325
H5    H     H_    0.564770 0.380958 0.434291 0.137143
H6    H     H_    0.489029 0.474881 0.564394 0.124952
H7    H     H_    0.064797 0.880946 0.434281 0.137146
H8    H     H_    0.989063 0.974879 0.564385 0.124843
H9    H     H_    0.661153 0.529203 0.569218 0.120838
H10   H     H_    0.358825 0.468414 0.443938 0.131269
H11   H     H_    0.161160 0.029221 0.569224 0.120446
H12   H     H_    0.858835 0.968388 0.443939 0.131317
H13   H     H_    0.668524 0.550287 0.439370 0.131306
H14   H     H_    0.350982 0.487260 0.573893 0.121292
H15   H     H_    0.168527 0.050295 0.439373 0.131266
H16   H     H_    0.850984 0.987248 0.573893 0.121359
H17   H     H_    0.909308 0.284129 0.440274 0.133868
H18   H     H_    0.101618 0.430982 0.553886 0.166814
H19   H     H_    0.409303 0.784117 0.440274 0.133870
H20   H     H_    0.601621 0.931052 0.553870 0.166542
H21   H     H_    0.822677 0.204858 0.431147 0.137296
H22   H     H_    0.095810 0.260665 0.562695 0.127772
H23   H     H_    0.322669 0.704858 0.431147 0.137286
H24   H     H_    0.595788 0.760738 0.562684 0.128367
H25   H     H_    0.816801 0.185151 0.556552 0.166335
H26   H     H_    0.105344 0.242047 0.436895 0.134661
H27   H     H_    0.316792 0.685152 0.556553 0.166452
H28   H     H_    0.605332 0.742095 0.436886 0.134698
H29   H     H_    0.903838 0.263193 0.566267 0.128512
H30   H     H_    0.110258 0.412382 0.428642 0.140353
H31   H     H_    0.403833 0.763179 0.566267 0.128758
H32   H     H_    0.610262 0.912429 0.428626 0.140223
H33   H     H_    0.511730 0.255738 0.054116 0.060259
H34   H     H_    0.486133 0.251128 0.946700 0.051342
H35   H     H_    0.010246 0.757042 0.054173 0.060297
H36   H     H_    0.986120 0.750896 0.946684 0.055559
H37   H     H_    0.860915 0.369584 0.923156 0.179704
H38   H     H_    0.169615 0.261704 0.055689 0.173282
H39   H     H_    0.360180 0.880361 0.921576 0.182298
H40   H     H_    0.658850 0.791004 0.060730 0.181128
H41   H     H_    0.874476 0.396734 0.049556 0.180006
H42   H     H_    0.165361 0.281477 0.930117 0.161995
H43   H     H_    0.374596 0.906364 0.048076 0.184182
H44   H     H_    0.651954 0.813367 0.937101 0.169107
H45   H     H_    0.100180 0.022756 0.073920 0.144698
H46   H     H_    0.890077 0.078415 0.933819 0.154868
H47   H     H_    0.606326 0.557017 0.068743 0.147269
H48   H     H_    0.386892 0.585131 0.935107 0.158125
H49   H     H_    0.619396 0.388252 0.071773 0.124780
H50   H     H_    0.390290 0.414328 0.932851 0.111162
H51   H     H_    0.125986 0.858373 0.070851 0.127263
H52   H     H_    0.890057 0.908022 0.931502 0.118585
H53   H     H_    0.604467 0.374299 0.945332 0.169677
H54   H     H_    0.400147 0.408006 0.059106 0.166175
H55   H     H_    0.108101 0.855379 0.944613 0.166997
H56   H     H_    0.900210 0.900665 0.058370 0.165758
H57   H     H_    0.483797 0.973654 0.572609 0.124556
H58   H     H_    0.473218 0.972358 0.442473 0.133073
H59   H     H_    0.983807 0.473654 0.572602 0.124286
H60   H     H_    0.973233 0.472357 0.442466 0.133060
O1    O     O_R   0.784290 0.290360 0.830540 -0.514255
O2    O     O_R   0.215710 0.290360 0.169460 -0.505032
O3    O     O_R   0.284290 0.790360 0.830540 -0.511067
O4    O     O_R   0.715710 0.790360 0.169460 -0.508408
O5    O     O_R   0.554690 0.080440 0.673480 -0.507547
O6    O     O_R   0.445310 0.080440 0.326520 -0.503491
O7    O     O_R   0.054690 0.580440 0.673480 -0.507900
O8    O     O_R   0.945310 0.580440 0.326520 -0.503696
O9    O     O_R   0.543980 0.282110 0.666770 -0.528544
O10   O     O_R   0.456020 0.282110 0.333230 -0.521014
O11   O     O_R   0.043980 0.782110 0.666770 -0.528546
O12   O     O_R   0.956020 0.782110 0.333230 -0.521314
O13   O     O_R   0.679070 0.374030 0.674430 -0.512587
O14   O     O_R   0.320930 0.374030 0.325570 -0.511301
O15   O     O_R   0.179070 0.874030 0.674430 -0.513313
O16   O     O_R   0.820930 0.874030 0.325570 -0.511533
O17   O     O_3   0.665360 0.165350 0.749070 -0.248390
O18   O     O_3   0.334640 0.165350 0.250930 -0.256494
O19   O     O_3   0.165360 0.665350 0.749070 -0.247045
O20   O     O_3   0.834640 0.665350 0.250930 -0.255933
O21   O     O_R   0.762610 0.041070 0.825230 -0.498546
O22   O     O_R   0.237390 0.041070 0.174770 -0.499162
O23   O     O_R   0.262610 0.541070 0.825230 -0.499913
O24   O     O_R   0.737390 0.541070 0.174770 -0.498178
O25   O     O_R   0.667390 0.924160 0.829970 -0.500477
O26   O     O_R   0.332610 0.924160 0.170030 -0.517626
O27   O     O_R   0.167390 0.424160 0.829970 -0.497576
O28   O     O_R   0.832610 0.424160 0.170030 -0.518720
O29   O     O_R   0.553980 0.081420 0.821780 -0.446249
O30   O     O_R   0.446020 0.081420 0.178220 -0.454663
O31   O     O_R   0.053980 0.581420 0.821780 -0.446873
O32   O     O_R   0.946020 0.581420 0.178220 -0.455659
O33   O     O_R   0.543210 0.283170 0.826740 -0.551332
O34   O     O_R   0.456790 0.283170 0.173260 -0.540530
O35   O     O_R   0.043210 0.783170 0.826740 -0.549081
O36   O     O_R   0.956790 0.783170 0.173260 -0.541746
O37   O     O_R   0.678350 0.375000 0.822720 -0.509275
O38   O     O_R   0.321650 0.375000 0.177280 -0.517168
O39   O     O_R   0.178350 0.875000 0.822720 -0.516716
O40   O     O_R   0.821650 0.875000 0.177280 -0.516116
O41   O     O_R   0.785060 0.289300 0.670580 -0.519549
O42   O     O_R   0.214940 0.289300 0.329420 -0.511337
O43   O     O_R   0.285060 0.789300 0.670580 -0.518793
O44   O     O_R   0.714940 0.789300 0.329420 -0.511860
O45   O     O_R   0.763330 0.040090 0.676940 -0.511900
O46   O     O_R   0.236670 0.040090 0.323060 -0.508029
O47   O     O_R   0.263330 0.540090 0.676940 -0.512027
O48   O     O_R   0.736670 0.540090 0.323060 -0.507935
O49   O     O_R   0.668160 0.923110 0.670000 -0.521054
O50   O     O_R   0.331840 0.923110 0.330000 -0.518558
O51   O     O_R   0.168160 0.423110 0.670000 -0.523008
O52   O     O_R   0.831840 0.423110 0.330000 -0.518495
I1    I     I_    0.521121 0.893723 0.098504 -0.441451
I2    I     I_    0.507418 0.885423 0.912317 -0.459429
I3    I     I_    0.028447 0.397290 0.100433 -0.418127
I4    I     I_    0.012314 0.385234 0.915110 -0.445242
C113  C     C_3   0.582988 0.575536 0.928768 -0.272296
C114  C     C_3   0.531272 0.537792 0.871192 -0.407826
H61   H     H_    0.497218 0.463894 0.890690 0.159420
H62   H     H_    0.497776 0.616462 0.856055 0.150651
H63   H     H_    0.559784 0.508151 0.823134 0.196063
H64   H     H_    0.554051 0.628265 0.969402 0.174514
H65   H     H_    0.620798 0.637095 0.902760 0.167969
C115  C     C_3   0.401067 0.611040 0.071870 -0.273720
C116  C     C_3   0.395549 0.613664 0.152497 -0.387170
H66   H     H_    0.339817 0.610167 0.168720 0.168447
H67   H     H_    0.424970 0.536194 0.176219 0.175240
H68   H     H_    0.418404 0.699811 0.173085 0.166569
H69   H     H_    0.457006 0.621459 0.057321 0.167732
H70   H     H_    0.371795 0.689938 0.049798 0.177452
C117  C     C_3   0.071195 0.049380 0.938497 -0.277750
C118  C     C_3   0.079925 0.078679 0.859771 -0.389502
H71   H     H_    0.067204 0.998986 0.826466 0.201407
H72   H     H_    0.043007 0.151824 0.843952 0.153798
H73   H     H_    0.134035 0.109918 0.848659 0.158783
H74   H     H_    0.016532 0.019639 0.947427 0.146154
H75   H     H_    0.079723 0.134613 0.969244 0.177396
C119  C     C_3   0.907667 0.103521 0.070516 -0.274845
C120  C     C_3   0.901157 0.109379 0.151008 -0.386822
H76   H     H_    0.845187 0.110918 0.166526 0.168154
H77   H     H_    0.928140 0.030450 0.175990 0.177753
H78   H     H_    0.926074 0.194274 0.170925 0.162316
H79   H     H_    0.964077 0.107536 0.056762 0.160518
H80   H     H_    0.881720 0.184861 0.047253 0.175935

loop_
_geom_bond_atom_site_label_1
_geom_bond_atom_site_label_2
_ccdc_geom_bond_type
Cr8   O28   S    
C120  H78   S    
C97   O41   A    
C4    C109  S    
C48   O32   A    
C67   C83   A    
C46   O34   A    
Cr3   O23   S    
C14   H38   S    
C45   O33   A    
C41   C42   A    
C14   C18   A    
C39   C51   S    
C66   C82   A    
C36   C95   S    
C34   C93   S    
C53   C69   A    
C33   C94   S    
C49   C50   S    
C75   H19   S    
Cr12  O36   S    
C18   H42   S    
C68   C84   A    
C9    C25   S    
C120  H76   S    
C73   H17   S    
C35   C96   S    
C16   H40   S    
Cr7   O31   S    
C46   C102  S    
C78   H26   S    
C116  H66   S    
C37   C38   A    
C5    C109  A    
Cr1   O45   S    
Cr4   O44   S    
C33   C42   A    
C13   C29   A    
C74   H22   S    
C27   H55   S    
C15   C19   A    
C55   C90   S    
C55   C59   A    
Cr8   O8    S    
C1    C112  S    
C119  H80   S    
C25   H53   S    
C103  H36   S    
C23   H51   S    
Cr5   O49   S    
C92   O48   A    
C3    C110  S    
C89   O49   A    
C48   C104  S    
C118  H73   S    
C91   O51   A    
C65   C69   A    
C37   C49   S    
Cr7   O27   S    
C90   O50   A    
C102  C105  D    
C120  H77   S    
C113  C114  S    
C96   O12   A    
C57   C73   S    
C57   C61   A    
C100  O44   A    
C10   C30   A    
C64   C84   A    
C7    C11   A    
C21   C25   S    
C50   H6    S    
C77   H29   S    
C20   C112  A    
C65   C81   A    
Cr8   O32   S    
Cr12  O40   S    
C61   C77   S    
C56   C72   A    
C118  H72   S    
C13   H37   S    
C45   O29   A    
C107  C108  S    
Cr2   O18   S    
C4    O24   A    
C103  C108  D    
C2    O22   A    
C20   H44   S    
Cr1   O17   S    
C30   C86   S    
C24   H46   S    
C44   H60   S    
Cr3   O47   S    
C105  I1    S    
C8    C12   A    
C8    C24   S    
C19   C111  A    
C10   C26   S    
C6    C22   S    
C85   O37   A    
C74   H18   S    
Cr10  O38   S    
C11   C31   A    
C113  H65   S    
Cr4   O48   S    
C3    O27   A    
C25   C113  S    
C64   C80   S    
C41   H57   S    
Cr6   O18   S    
C34   C41   A    
C19   H43   S    
Cr10  O10   S    
C17   C109  A    
Cr5   O17   S    
C102  H33   S    
Cr9   O9    S    
C22   H50   S    
C26   C115  S    
C80   H32   S    
C23   C27   S    
C26   H54   S    
C79   H31   S    
C69   H13   S    
C49   H3    S    
C2    C111  S    
C2    O26   A    
C114  H63   S    
C47   C103  S    
C98   O14   A    
C46   O30   A    
C1    O25   A    
C51   C52   S    
C51   H1    S    
C108  I4    S    
C36   C40   A    
C31   C87   S    
C94   O10   A    
C77   H25   S    
C114  H62   S    
C47   O35   A    
C52   H2    S    
C115  H69   S    
C78   H30   S    
C87   O3    A    
C7    C111  A    
C6    C10   A    
C75   H23   S    
C40   C52   S    
C49   H5    S    
C92   O52   A    
C42   H58   S    
Cr2   O22   S    
C73   H21   S    
C68   C72   A    
C43   H59   S    
C5    C21   S    
C52   H8    S    
C55   C71   A    
C6    C110  A    
C35   C39   A    
C43   C44   A    
C94   O6    A    
Cr3   O19   S    
Cr3   O43   S    
C67   H11   S    
C97   O13   A    
Cr6   O26   S    
Cr2   O42   S    
Cr3   O3    S    
C63   C83   A    
Cr6   O50   S    
C113  H64   S    
Cr1   O41   S    
C23   H45   S    
C54   C70   A    
C11   C27   S    
C16   C20   A    
Cr1   O1    S    
C118  H71   S    
Cr12  O12   S    
C53   C92   S    
C88   O40   A    
C114  H61   S    
C27   C117  S    
Cr7   O19   S    
Cr6   O30   S    
C107  I3    S    
Cr10  O14   S    
C68   H12   S    
Cr5   O29   S    
C35   C44   A    
C28   H56   S    
Cr9   O13   S    
Cr4   O24   S    
C63   C79   S    
Cr5   O5    S    
C58   C62   A    
C65   H9    S    
C76   H20   S    
Cr7   O51   S    
C56   C89   S    
C12   C28   S    
C101  H34   S    
C86   O2    A    
C116  H67   S    
C21   H49   S    
C45   C101  S    
C22   C26   S    
Cr8   O20   S    
C82   C98   S    
C12   C32   A    
C104  H35   S    
C99   O15   A    
C117  C118  S    
C24   H52   S    
C59   C75   S    
C119  H79   S    
C1    O21   A    
C115  C116  S    
C58   C74   S    
C24   C28   S    
C79   H27   S    
C48   O36   A    
Cr11  O15   S    
C101  C106  D    
C80   H28   S    
Cr11  O35   S    
C117  H74   S    
C116  H68   S    
C95   O11   A    
C93   O5    A    
Cr10  O34   S    
C85   O1    A    
C34   C38   A    
C29   C85   S    
C115  H70   S    
C62   C78   S    
C93   O9    A    
C76   C80   S    
Cr7   O7    S    
C53   C57   A    
C117  H75   S    
Cr2   O46   S    
C84   C100  S    
C71   H15   S    
C47   O31   A    
C15   C31   A    
C119  C120  S    
C38   C50   S    
C95   O7    A    
C16   C32   A    
Cr9   O33   S    
C105  C106  S    
Cr12  O16   S    
C59   C63   A    
C54   C58   A    
Cr2   O2    S    
C28   C119  S    
C13   C17   A    
C60   C64   A    
C3    O23   A    
C96   O8    A    
Cr5   O25   S    
C87   O39   A    
C14   C30   A    
C54   C91   S    
C61   C81   A    
Cr8   O52   S    
C9    C29   A    
Cr11  O11   S    
C70   H14   S    
Cr10  O18   S    
C106  I2    S    
Cr4   O20   S    
C81   C97   S    
C7    C23   S    
C4    O28   A    
Cr6   O6    S    
C74   C78   S    
Cr4   O4    S    
C8    C112  A    
C60   C76   S    
C33   C37   A    
C67   C71   A    
C104  C107  D    
C62   C82   A    
C99   O43   A    
Cr11  O39   S    
C100  O16   A    
Cr9   O17   S    
C88   O4    A    
C39   C40   A    
C56   C60   A    
C72   H16   S    
C50   H4    S    
C66   C70   A    
C76   H24   S    
C73   C77   S    
C18   C110  A    
Cr12  O20   S    
C21   H47   S    
C51   H7    S    
C91   O47   A    
Cr9   O37   S    
C90   O46   A    
C36   C43   A    
C17   H41   S    
C5    C9    A    
C86   O38   A    
Cr11  O19   S    
C89   O45   A    
C66   H10   S    
C75   C79   S    
C15   H39   S    
C22   H48   S    
Cr1   O21   S    
C83   C99   S    
C98   O42   A    
C32   C88   S    
