data_mof_unit_53575.cif
_audit_creation_date              2012-12-10T16:46:46-0500
_audit_creation_method            fapswitch 2.2
_symmetry_space_group_name_H-M    P1
_symmetry_Int_Tables_number       1
_space_group_crystal_system       triclinic
_cell_length_a                    15.888462
_cell_length_b                    8.718977
_cell_length_c                    7.479321
_cell_angle_alpha                 102.636587
_cell_angle_beta                  94.160215
_cell_angle_gamma                 92.293764
_cell_volume                      1006.69284653

loop_
_atom_site_label
_atom_site_type_symbol
_atom_type_description
_atom_site_fract_x
_atom_site_fract_y
_atom_site_fract_z
_atom_type_partial_charge
C1    C     C_R   0.499291 0.200319 0.454517 0.917945
C2    C     C_3   0.954765 0.422335 0.662161 -0.101957
C3    C     C_3   0.916465 0.496305 0.497991 -0.060214
C4    C     C_3   0.954345 0.672290 0.530489 -0.253006
C5    C     C_3   0.053921 0.673250 0.548408 -0.284755
C6    C     C_1   0.823748 0.497097 0.493335 0.089669
C7    C     C_1   0.176094 0.500934 0.506547 0.040419
C8    C     C_1   0.251463 0.500714 0.507077 -0.090163
C9    C     C_2   0.496555 0.033107 0.433020 -0.415168
C10   C     C_2   0.519792 0.966277 0.572366 0.214720
C11   C     C_R   0.340598 0.499999 0.502430 0.801262
C12   C     C_R   0.506533 0.799581 0.546105 0.798959
C13   C     C_R   0.659370 0.499885 0.497555 0.828862
C14   C     C_3   0.053590 0.415295 0.648694 -0.424574
C15   C     C_3   0.042711 0.408031 0.310147 0.206333
C16   C     C_3   0.943949 0.406735 0.306098 -0.270766
C17   C     C_1   0.748400 0.498278 0.492802 0.022428
C18   C     C_3   0.083566 0.500526 0.501348 0.049744
Cu1   Cu    Cu3+1 0.509300 0.517380 0.684380 1.049894
Cu2   Cu    Cu3+1 0.490700 0.482620 0.315620 1.023223
H1    H     H_    0.090448 0.464792 0.782299 0.213709
H2    H     H_    0.470553 0.962789 0.300513 0.164504
H3    H     H_    0.435198 0.376805 0.949196 0.243040
H4    H     H_    0.564857 0.623107 0.050777 0.241602
H5    H     H_    0.074206 0.293342 0.614145 0.277676
H6    H     H_    0.062817 0.468782 0.203286 0.207332
H7    H     H_    0.923961 0.478584 0.207232 0.140383
H8    H     H_    0.074090 0.718295 0.697388 0.179211
H9    H     H_    0.936805 0.738293 0.666223 0.157408
N1    N     N_2   0.476670 0.456430 0.038530 -0.191262
N2    N     N_2   0.523330 0.543570 0.961470 -0.192182
O1    O     O_R   0.506050 0.286130 0.619770 -0.536733
O2    O     O_R   0.490330 0.256780 0.308370 -0.563852
O3    O     O_R   0.387300 0.514690 0.655770 -0.596981
O4    O     O_R   0.371580 0.485340 0.344370 -0.566993
O5    O     O_R   0.509670 0.743220 0.691630 -0.545530
O6    O     O_R   0.493950 0.713870 0.380230 -0.616402
O7    O     O_R   0.628420 0.514660 0.655630 -0.542423
O8    O     O_R   0.612700 0.485310 0.344230 -0.580901
C19   C     C_2   0.915011 0.258519 0.660205 0.967153
O9    O     O_2   0.838938 0.240858 0.672372 -0.500800
O10   O     O_R   0.964643 0.128927 0.654096 -0.694551
H10   H     H_    0.931065 0.031928 0.668419 0.353643
C20   C     C_2   0.935041 0.526204 0.846348 0.795564
O11   O     O_2   0.991216 0.602502 0.952974 -0.574279
O12   O     O_R   0.850954 0.539216 0.889837 -0.730239
H11   H     H_    0.844605 0.615776 0.010451 0.341066
C21   C     C_2   0.913149 0.764296 0.397621 0.838313
O13   O     O_2   0.840944 0.804993 0.417451 -0.582123
O14   O     O_R   0.955869 0.805813 0.257056 -0.671816
H12   H     H_    0.921185 0.870200 0.184576 0.361120
Cl1   Cl    Cl    0.571783 0.067098 0.787312 -0.518480
Cl2   Cl    Cl    0.083535 0.214478 0.247090 -0.538953
C22   C     C_2   0.898824 0.247399 0.218158 0.964505
O15   O     O_2   0.846901 0.185613 0.296691 -0.559743
O16   O     O_R   0.914091 0.174700 0.038714 -0.705428
H13   H     H_    0.879741 0.071331 0.991669 0.342247
C23   C     C_2   0.099535 0.788354 0.457071 0.963396
O17   O     O_2   0.105355 0.928441 0.531351 -0.518572
O18   O     O_R   0.134669 0.736376 0.289781 -0.730665
H14   H     H_    0.162658 0.825562 0.244351 0.364175

loop_
_geom_bond_atom_site_label_1
_geom_bond_atom_site_label_2
_ccdc_geom_bond_type
Cu1   Cu2   S    
C15   C18   S    
Cu1   O7    S    
C12   O5    A    
C5    H8    S    
C9    C10   D    
C14   C18   S    
C4    H9    S    
C13   C17   S    
C3    C6    S    
C10   Cl1   S    
C7    C18   S    
C16   H7    S    
C21   O14   S    
C2    C3    S    
H4    N2    S    
Cu1   N2    S    
C7    C8    T    
Cu2   N1    S    
C20   O11   D    
Cu2   O6    S    
C13   O7    A    
C10   C12   S    
C5    C23   S    
O18   H14   S    
C8    C11   S    
Cu1   O1    S    
C15   Cl2   S    
C14   H1    S    
C11   O4    A    
C21   O13   D    
C20   O12   S    
O14   H12   S    
C22   O16   S    
Cu1   O5    S    
C11   O3    A    
C14   H5    S    
N1    N2    D    
C2    C14   S    
C16   C22   S    
C9    H2    S    
C13   O8    A    
O10   H10   S    
Cu2   O2    S    
C1    O2    A    
C15   C16   S    
H3    N1    S    
C2    C19   S    
C4    C5    S    
C1    C9    S    
O16   H13   S    
C4    C21   S    
C12   O6    A    
C6    C17   T    
Cu2   O8    S    
O12   H11   S    
C19   O9    D    
C15   H6    S    
C5    C18   S    
C23   O17   D    
C22   O15   D    
Cu2   O4    S    
C23   O18   S    
C1    O1    A    
C3    C16   S    
C3    C4    S    
C2    C20   S    
C19   O10   S    
Cu1   O3    S    
