data_mof_unit_19903.cif
_audit_creation_date              2012-12-11T16:57:10-0500
_audit_creation_method            fapswitch 2.2
_symmetry_space_group_name_H-M    P1
_symmetry_Int_Tables_number       1
_space_group_crystal_system       triclinic
_cell_length_a                    14.529573
_cell_length_b                    16.232509
_cell_length_c                    6.936551
_cell_angle_alpha                 89.981121
_cell_angle_beta                  98.755141
_cell_angle_gamma                 90.066537
_cell_volume                      1616.9314718

loop_
_atom_site_label
_atom_site_type_symbol
_atom_type_description
_atom_site_fract_x
_atom_site_fract_y
_atom_site_fract_z
_atom_type_partial_charge
O1    O     O_R   0.584990 0.413650 0.534420 -0.543057
O2    O     O_R   0.584990 0.586350 0.534420 -0.542914
O3    O     O_R   0.596190 0.585230 0.208380 -0.549801
O4    O     O_R   0.596190 0.414770 0.208380 -0.549197
O5    O     O_R   0.415010 0.586420 0.976930 -0.529321
O6    O     O_R   0.415010 0.413580 0.976930 -0.529151
C1    C     C_R   0.618723 0.614405 0.384138 0.674659
C2    C     C_R   0.618757 0.385606 0.384193 0.675447
O7    O     O_3   0.440560 0.500000 0.319140 -0.337318
V1    V     V_3+5 0.511030 0.500000 0.068070 1.446540
O8    O     O_R   0.403810 0.414840 0.643540 -0.543138
O9    O     O_R   0.403810 0.585160 0.643540 -0.537681
C3    C     C_R   0.379241 0.387925 0.806140 0.784385
C4    C     C_R   0.379721 0.612466 0.806602 0.780262
V2    V     V_3+5 0.488970 0.500000 0.560620 1.462701
O10   O     O_3   0.559440 0.500000 0.859420 -0.387827
H1    H     H_    0.194659 0.809248 0.810449 0.160951
H2    H     H_    0.195926 0.189819 0.810765 0.162365
C5    C     C_2   0.310732 0.680386 0.802811 -0.356306
C6    C     C_2   0.310748 0.319494 0.800994 -0.350603
C7    C     C_2   0.276657 0.707626 0.964607 0.000720
C8    C     C_2   0.269624 0.297269 0.957578 -0.005986
H3    H     H_    0.214493 0.793101 0.258134 0.112511
H4    H     H_    0.210317 0.211074 0.255905 0.111694
C9    C     C_2   0.190816 0.817367 0.113397 -0.334463
C10   C     C_2   0.188790 0.184878 0.112438 -0.341791
C11   C     C_2   0.217834 0.782784 0.953566 -0.201177
C12   C     C_2   0.215723 0.219083 0.951959 -0.203793
H5    H     H_    0.291465 0.712597 0.665222 0.115252
H6    H     H_    0.299701 0.281766 0.670065 0.107046
C13   C     C_R   0.684801 0.741014 0.567767 0.098714
C14   C     C_R   0.684986 0.259021 0.568034 0.099781
C15   C     C_R   0.684926 0.685389 0.413129 -0.110470
C16   C     C_R   0.685001 0.314654 0.413255 -0.110270
C17   C     C_R   0.748005 0.701794 0.281999 -0.170610
C18   C     C_R   0.748018 0.298256 0.282019 -0.170332
H7    H     H_    0.750999 0.660981 0.160208 0.133536
H8    H     H_    0.750999 0.339065 0.160149 0.133418
C19   C     C_R   0.812565 0.767576 0.314530 -0.169020
C20   C     C_R   0.812521 0.232492 0.314457 -0.169672
H9    H     H_    0.862905 0.775444 0.216150 0.128571
H10   H     H_    0.862777 0.224669 0.215934 0.128013
C21   C     C_R   0.816611 0.818927 0.479867 -0.112390
C22   C     C_R   0.816629 0.181097 0.479835 -0.112541
C23   C     C_R   0.748936 0.805604 0.600638 0.101409
C24   C     C_R   0.749065 0.194460 0.600816 0.102055
C25   C     C_3   0.760554 0.793993 0.815947 -0.405599
C26   C     C_3   0.760858 0.206124 0.816101 -0.406043
C27   C     C_3   0.690334 0.724105 0.780161 -0.400813
C28   C     C_3   0.690730 0.275957 0.780421 -0.401199
H11   H     H_    0.734717 0.847655 0.891523 0.172913
H12   H     H_    0.735008 0.152454 0.891893 0.173245
H13   H     H_    0.831879 0.772853 0.876004 0.172856
H14   H     H_    0.832246 0.227326 0.875874 0.172485
H15   H     H_    0.623694 0.737553 0.834078 0.163045
H16   H     H_    0.624134 0.262468 0.834628 0.164134
H17   H     H_    0.720651 0.662490 0.820292 0.173201
H18   H     H_    0.721167 0.337603 0.820314 0.172971
O11   O     O_R   0.921430 0.915960 0.371040 -0.536788
O12   O     O_R   0.921430 0.084040 0.371040 -0.536936
O13   O     O_R   0.910450 0.087500 0.697310 -0.542635
O14   O     O_R   0.910450 0.912500 0.697310 -0.542612
O15   O     O_R   0.091710 0.087460 0.928430 -0.540856
O16   O     O_R   0.091710 0.912540 0.928430 -0.541061
C29   C     C_R   0.887961 0.114419 0.519340 0.696934
C30   C     C_R   0.887960 0.885594 0.519380 0.698040
O17   O     O_3   0.065970 0.000000 0.586140 -0.371814
V3    V     V_3+5 0.995640 0.000000 0.837400 1.407749
O18   O     O_R   0.103020 0.915700 0.261710 -0.545078
O19   O     O_R   0.103020 0.084300 0.261710 -0.544938
C31   C     C_R   0.125060 0.886460 0.100320 0.765052
C32   C     C_R   0.124866 0.113946 0.100242 0.765472
V4    V     V_3+5 0.017940 0.000000 0.344880 1.394247
O20   O     O_3   0.947330 1.000000 0.046180 -0.373338
C33   C     C_2   0.292896 0.663026 0.153803 0.534040
H19   H     H_    0.330842 0.692552 0.282235 -0.032798
O21   O     O_2   0.260899 0.594167 0.167648 -0.480061
C34   C     C_2   0.270666 0.351981 0.129801 0.520914
H20   H     H_    0.291229 0.328549 0.276371 -0.011593
O22   O     O_2   0.245861 0.423585 0.108008 -0.484337

loop_
_geom_bond_atom_site_label_1
_geom_bond_atom_site_label_2
_ccdc_geom_bond_type
O1    C2    A    
C10   C32   S    
V4    O20   S    
O2    C1    A    
O4    C2    A    
C19   H9    S    
C6    H6    S    
C26   H14   S    
O16   V3    S    
C5    C7    D    
H4    C10   S    
O3    C1    A    
O11   C30   A    
C34   O22   D    
V3    O20   S    
V2    O10   S    
O12   V4    S    
C27   H17   S    
O16   C31   A    
O18   C31   A    
O8    V2    S    
C13   C15   A    
O18   V4    S    
O1    V2    S    
O7    V1    S    
O11   V4    S    
C25   H13   S    
C20   H10   S    
C7    C11   S    
C8    C12   S    
C1    C15   S    
C22   C29   S    
C13   C27   S    
C22   C24   A    
C23   C25   S    
C24   C26   S    
O14   C30   A    
O17   V3    S    
C28   H18   S    
C18   C20   A    
H2    C12   S    
C8    C34   S    
C25   C27   S    
C34   H20   S    
C25   H11   S    
C27   H15   S    
C28   H16   S    
H1    C11   S    
C17   C19   A    
C33   H19   S    
C33   O21   D    
O9    V2    S    
C20   C22   A    
O19   V4    S    
C2    C16   S    
O2    V2    S    
C21   C23   A    
C14   C28   S    
O5    C4    A    
C9    C31   S    
O17   V4    S    
O9    C4    A    
O12   C29   A    
O4    V1    S    
C5    H5    S    
O15   V3    S    
C3    C6    S    
C17   H7    S    
C14   C24   A    
C4    C5    S    
C6    C8    D    
O6    V1    S    
C19   C21   A    
C9    C11   D    
C7    C33   S    
C10   C12   D    
O14   V3    S    
C18   H8    S    
O7    V2    S    
O5    V1    S    
O3    V1    S    
V1    O10   S    
O6    C3    A    
O8    C3    A    
O13   V3    S    
C21   C30   S    
C26   C28   S    
C15   C17   A    
C16   C18   A    
H3    C9    S    
O13   C29   A    
C26   H12   S    
O15   C32   A    
C13   C23   A    
O19   C32   A    
C14   C16   A    
