data_mof_unit_25667.cif
_audit_creation_date              2012-12-10T17:40:58-0500
_audit_creation_method            fapswitch 2.2
_symmetry_space_group_name_H-M    P1
_symmetry_Int_Tables_number       1
_space_group_crystal_system       triclinic
_cell_length_a                    14.811258
_cell_length_b                    15.294004
_cell_length_c                    9.972613
_cell_angle_alpha                 91.080094
_cell_angle_beta                  90.019948
_cell_angle_gamma                 90.03101
_cell_volume                      2258.62873639

loop_
_atom_site_label
_atom_site_type_symbol
_atom_type_description
_atom_site_fract_x
_atom_site_fract_y
_atom_site_fract_z
_atom_type_partial_charge
C1    C     C_R   0.388488 0.872823 0.499123 0.856629
C2    C     C_R   0.381495 0.120378 0.501059 0.884989
C3    C     C_R   0.888485 0.372825 0.499123 0.856674
C4    C     C_R   0.881489 0.620373 0.501061 0.885019
C5    C     C_R   0.339153 0.272076 0.479580 -0.003851
C6    C     C_R   0.302261 0.759181 0.374452 -0.022672
C7    C     C_R   0.839160 0.772079 0.479652 -0.003757
C8    C     C_R   0.802266 0.259174 0.374450 -0.022617
C9    C     C_R   0.773378 0.835474 0.478199 -0.225323
C10   C     C_R   0.732435 0.201178 0.379506 -0.202427
C11   C     C_R   0.273367 0.335467 0.478108 -0.224971
C12   C     C_R   0.232409 0.701210 0.379517 -0.202231
C13   C     C_R   0.683662 0.811906 0.496208 -0.078015
C14   C     C_R   0.708682 0.163366 0.500413 -0.144061
C15   C     C_R   0.183659 0.311902 0.496199 -0.077562
C16   C     C_R   0.208673 0.663378 0.500415 -0.144182
C17   C     C_R   0.335934 0.045994 0.131613 0.034773
C18   C     C_R   0.835905 0.545937 0.131574 0.034638
C19   C     C_R   0.270695 0.089140 0.055623 -0.187335
C20   C     C_R   0.770644 0.589044 0.055548 -0.187186
C21   C     C_R   0.270639 0.078306 0.918028 -0.208642
C22   C     C_R   0.770601 0.578188 0.917960 -0.208431
C23   C     C_R   0.341668 0.034631 0.857169 -0.123341
C24   C     C_R   0.841654 0.534539 0.857135 -0.123444
C25   C     C_R   0.421733 0.018756 0.927098 0.159643
C26   C     C_R   0.921721 0.518706 0.927086 0.159709
C27   C     C_R   0.420477 0.020633 0.071281 0.090903
C28   C     C_R   0.920463 0.520590 0.071269 0.090975
C29   C     C_R   0.574934 0.978666 0.069384 0.009313
C30   C     C_R   0.074945 0.478740 0.069411 0.009836
C31   C     C_R   0.626498 0.113012 0.500743 0.906397
C32   C     C_R   0.619738 0.880447 0.498966 0.842308
C33   C     C_R   0.126496 0.613015 0.500743 0.905931
C34   C     C_R   0.119735 0.380444 0.498964 0.841986
C35   C     C_R   0.574273 0.979001 0.927027 -0.164387
C36   C     C_R   0.074298 0.479070 0.927052 -0.164495
C37   C     C_R   0.197707 0.073707 0.553005 -0.185926
C38   C     C_R   0.391480 0.745299 0.725376 -0.164364
C39   C     C_R   0.697691 0.573716 0.553056 -0.185911
C40   C     C_R   0.891472 0.245308 0.725384 -0.164404
C41   C     C_R   0.106938 0.050949 0.564504 -0.124527
C42   C     C_R   0.384130 0.689506 0.833549 -0.122987
C43   C     C_R   0.606918 0.550963 0.564532 -0.124570
C44   C     C_R   0.884122 0.189518 0.833562 -0.123024
C45   C     C_R   0.540588 0.613993 0.547350 -0.127406
C46   C     C_R   0.820871 0.122712 0.831023 -0.142395
C47   C     C_R   0.040601 0.113981 0.547369 -0.127426
C48   C     C_R   0.320882 0.622699 0.831000 -0.142246
C49   C     C_R   0.565302 0.700223 0.522893 -0.173977
C50   C     C_R   0.764069 0.112027 0.720843 -0.171517
C51   C     C_R   0.065305 0.200215 0.522927 -0.173855
C52   C     C_R   0.264078 0.612018 0.720820 -0.171588
C53   C     C_R   0.656750 0.724837 0.515447 0.095226
C54   C     C_R   0.766670 0.170988 0.612895 0.094745
C55   C     C_R   0.156752 0.224834 0.515460 0.095232
C56   C     C_R   0.266674 0.670986 0.612885 0.094823
C57   C     C_R   0.223436 0.160681 0.525134 0.068257
C58   C     C_R   0.332520 0.737631 0.613138 0.074994
C59   C     C_R   0.723429 0.660683 0.525149 0.068375
C60   C     C_R   0.832514 0.237635 0.613145 0.074976
C61   C     C_R   0.313853 0.185355 0.503690 -0.141605
C62   C     C_R   0.340832 0.789558 0.496233 -0.186494
C63   C     C_R   0.813849 0.685353 0.503709 -0.141567
C64   C     C_R   0.840826 0.289560 0.496235 -0.186423
H1    H     H_    0.211972 0.096709 0.860211 0.172566
H2    H     H_    0.711930 0.596567 0.860122 0.172549
H3    H     H_    0.331740 0.011232 0.757071 0.198680
H4    H     H_    0.831763 0.511159 0.757024 0.198708
H5    H     H_    0.635016 0.962327 0.871979 0.150242
H6    H     H_    0.135061 0.462428 0.872033 0.149612
H7    H     H_    0.247030 0.022363 0.563783 0.140144
H8    H     H_    0.448528 0.788978 0.728681 0.181592
H9    H     H_    0.747010 0.522374 0.563874 0.140116
H10   H     H_    0.948514 0.288991 0.728692 0.181581
H11   H     H_    0.088101 0.984028 0.584316 0.157675
H12   H     H_    0.430562 0.695730 0.917057 0.155988
H13   H     H_    0.588074 0.484046 0.584363 0.157628
H14   H     H_    0.930555 0.195744 0.917068 0.156007
H15   H     H_    0.470000 0.596051 0.552827 0.151634
H16   H     H_    0.817833 0.077117 0.912668 0.152173
H17   H     H_    0.970016 0.096037 0.552871 0.151672
H18   H     H_    0.317847 0.577099 0.912640 0.152333
H19   H     H_    0.513018 0.747339 0.507269 0.114531
H20   H     H_    0.722603 0.054114 0.718984 0.158957
H21   H     H_    0.013013 0.247330 0.507331 0.114566
H22   H     H_    0.222612 0.554105 0.718953 0.158913
H23   H     H_    0.791747 0.903374 0.463517 0.130805
H24   H     H_    0.695593 0.186925 0.287591 0.210635
H25   H     H_    0.291726 0.403363 0.463349 0.130772
H26   H     H_    0.195543 0.686987 0.287615 0.211003
H27   H     H_    0.209430 0.114189 0.102187 0.166515
H28   H     H_    0.709364 0.614092 0.102093 0.166371
N1    N     N_R   0.498810 1.000000 0.142780 -0.154443
N2    N     N_R   0.998810 0.500000 0.142780 -0.154631
N3    N     N_R   0.498740 1.000000 0.857170 -0.124106
N4    N     N_R   0.998740 0.500000 0.857170 -0.123988
O1    O     O_R   0.408390 0.908380 0.614690 -0.654634
O2    O     O_R   0.408390 0.091620 0.614690 -0.631020
O3    O     O_R   0.908390 0.408380 0.614690 -0.654718
O4    O     O_R   0.908390 0.591620 0.614690 -0.630962
O5    O     O_R   0.408370 0.908380 0.385360 -0.611004
O6    O     O_R   0.408370 0.091620 0.385360 -0.617003
O7    O     O_R   0.908370 0.408380 0.385360 -0.610930
O8    O     O_R   0.908370 0.591620 0.385360 -0.616999
O9    O     O_R   0.591620 0.091610 0.614640 -0.623770
O10   O     O_R   0.591620 0.908390 0.614640 -0.640130
O11   O     O_R   0.091620 0.591610 0.614640 -0.623564
O12   O     O_R   0.091620 0.408390 0.614640 -0.640240
O13   O     O_R   0.591610 0.091610 0.385310 -0.575986
O14   O     O_R   0.591610 0.908390 0.385310 -0.599784
O15   O     O_R   0.091610 0.591610 0.385310 -0.576651
O16   O     O_R   0.091610 0.408390 0.385310 -0.599759
Zn1   Zn    Zn3+2 0.500010 1.000000 0.653130 0.929620
Zn2   Zn    Zn3+2 0.000010 0.500000 0.653130 0.929602
Zn3   Zn    Zn3+2 0.499980 1.000000 0.346870 0.990112
Zn4   Zn    Zn3+2 0.999980 0.500000 0.346870 0.990147
C65   C     C_1   0.432227 0.297419 0.458774 0.171312
N5    N     N_1   0.506648 0.317623 0.442157 -0.211806
C66   C     C_1   0.331826 0.784293 0.242135 0.239258
N6    N     N_1   0.355420 0.803688 0.136112 -0.219620
C67   C     C_1   0.932239 0.797422 0.458880 0.171455
N7    N     N_1   0.006663 0.817625 0.442288 -0.211751
C68   C     C_1   0.831824 0.284301 0.242133 0.239008
N8    N     N_1   0.855414 0.303708 0.136110 -0.219615
C69   C     C_2   0.659950 0.954110 0.134718 0.948642
O17   O     O_2   0.692070 0.881591 0.112960 -0.640465
O18   O     O_R   0.706377 0.014872 0.214748 -0.807963
H29   H     H_    0.764993 0.990787 0.251299 0.325181
C70   C     C_2   0.159914 0.454270 0.134869 0.949068
O19   O     O_2   0.191506 0.381385 0.114572 -0.639949
O20   O     O_R   0.206811 0.515429 0.213521 -0.809027
H30   H     H_    0.265272 0.491297 0.250524 0.325344
C71   C     C_1   0.291355 0.999073 0.235722 0.271308
N9    N     N_1   0.248851 0.962740 0.314449 -0.222990
C72   C     C_1   0.791354 0.499078 0.235780 0.271335
N10   N     N_1   0.748873 0.462815 0.314605 -0.223053

loop_
_geom_bond_atom_site_label_1
_geom_bond_atom_site_label_2
_ccdc_geom_bond_type
C58   C62   A    
C29   N1    A    
C40   C60   A    
C29   C69   S    
C34   O16   A    
C13   C32   S    
C33   O11   A    
C14   C31   S    
C1    C62   S    
C51   H21   S    
O3    Zn2   S    
C53   C59   A    
C50   H20   S    
C68   N8    T    
C54   C60   A    
C3    C64   S    
C20   H28   S    
C4    C63   S    
C10   H24   S    
C50   C54   A    
C32   O14   A    
O9    Zn1   S    
C19   C21   A    
C24   C26   A    
C5    C11   A    
C40   H10   S    
C6    C12   A    
C2    O6    A    
C23   H3    S    
C28   N2    A    
N1    Zn3   S    
O12   Zn2   S    
C9    C13   A    
C22   H2    S    
O6    Zn3   S    
O8    Zn4   S    
C11   C15   A    
C12   C16   A    
C48   H18   S    
C42   H12   S    
C40   C44   A    
O4    Zn2   S    
O15   Zn4   S    
C33   O15   A    
C15   C34   S    
C18   C20   A    
C2    C61   S    
C39   H9    S    
C32   O10   A    
C31   O9    A    
N4    Zn2   S    
C52   H22   S    
C7    C67   S    
C35   H5    S    
C41   C47   A    
C44   C46   A    
C13   C53   A    
C21   C23   A    
C26   N4    A    
C36   H6    S    
C38   H8    S    
O14   Zn3   S    
O10   Zn1   S    
C17   C27   A    
C72   N10   T    
C18   C28   A    
C10   C14   A    
C1    O1    A    
N2    Zn4   S    
O2    Zn1   S    
C39   C43   A    
C24   H4    S    
C5    C65   S    
C15   C55   A    
C16   C56   A    
O11   Zn2   S    
C16   C33   S    
C41   H11   S    
C11   H25   S    
C45   C49   A    
C39   C59   A    
C31   O13   A    
C5    C61   A    
C18   C72   S    
C45   H15   S    
C42   C48   A    
C43   C45   A    
C7    C63   A    
C67   N7    T    
C8    C64   A    
C14   C54   A    
C20   C22   A    
C25   N3    A    
C55   C57   A    
C17   C71   S    
C69   O17   D    
O5    Zn3   S    
C22   C24   A    
C27   N1    A    
C43   H13   S    
O1    Zn1   S    
O20   H30   S    
C1    O5    A    
C6    C66   S    
O16   Zn4   S    
C70   O19   D    
C3    O7    A    
C7    C9    A    
C46   C50   A    
C21   H1    S    
C59   C63   A    
C12   H26   S    
C47   C51   A    
C66   N6    T    
C8    C68   S    
C57   C61   A    
C35   N3    A    
C25   C27   A    
C30   C70   S    
C29   C35   A    
C26   C28   A    
C4    O4    A    
C30   C36   A    
C60   C64   A    
C34   O12   A    
C6    C62   A    
C37   H7    S    
O7    Zn4   S    
C30   N2    A    
C65   N5    T    
C9    H23   S    
C46   H16   S    
C49   H19   S    
C71   N9    T    
C52   C56   A    
N3    Zn1   S    
C49   C53   A    
C4    O8    A    
C44   H14   S    
C17   C19   A    
C56   C58   A    
C51   C55   A    
C47   H17   S    
C37   C41   A    
C19   H27   S    
O13   Zn3   S    
C38   C42   A    
C3    O3    A    
C48   C52   A    
C23   C25   A    
C2    O2    A    
C8    C10   A    
C69   O18   S    
C38   C58   A    
C37   C57   A    
O18   H29   S    
C36   N4    A    
C70   O20   S    
