data_mof_unit_26125.cif
_audit_creation_date              2012-12-10T20:36:40-0500
_audit_creation_method            fapswitch 2.2
_symmetry_space_group_name_H-M    P1
_symmetry_Int_Tables_number       1
_space_group_crystal_system       triclinic
_cell_length_a                    10.493903
_cell_length_b                    10.792768
_cell_length_c                    9.859357
_cell_angle_alpha                 89.976216
_cell_angle_beta                  90.520652
_cell_angle_gamma                 90.542928
_cell_volume                      1116.5573283

loop_
_atom_site_label
_atom_site_type_symbol
_atom_type_description
_atom_site_fract_x
_atom_site_fract_y
_atom_site_fract_z
_atom_type_partial_charge
C1    C     C_R   0.498068 0.260497 0.499246 0.935320
C2    C     C_R   0.504501 0.938308 0.613799 -0.004203
C3    C     C_3   0.514543 0.927781 0.764532 0.212234
C4    C     C_R   0.257390 0.498989 0.499440 0.893878
C5    C     C_3   0.518191 0.070807 0.765125 0.313739
C6    C     C_R   0.425054 0.578898 0.070296 0.255237
C7    C     C_R   0.582910 0.427338 0.072870 -0.101505
C8    C     C_R   0.583044 0.427588 0.928780 -0.139125
C9    C     C_R   0.424927 0.578828 0.927883 0.253689
C10   C     C_3   0.283278 0.586229 0.920695 -0.490629
C11   C     C_3   0.283630 0.586926 0.074585 -0.540770
C12   C     C_3   0.961079 0.607196 0.452564 0.506622
C13   C     C_R   0.502178 0.739565 0.499236 0.955094
C14   C     C_R   0.742554 0.501423 0.500859 0.932086
C15   C     C_3   0.041129 0.390301 0.551620 -0.252802
C16   C     C_3   0.956178 0.408387 0.425624 0.469889
C17   C     C_3   0.877331 0.501580 0.503301 -0.097442
C18   C     C_3   0.961060 0.485649 0.630608 -0.244202
C19   C     C_3   0.045905 0.593878 0.579497 -0.247898
C20   C     C_3   0.988479 0.247224 0.277659 0.112337
C21   C     C_3   0.922769 0.142287 0.200911 -0.864981
C22   C     C_3   0.740039 0.116109 0.735979 0.133116
C23   C     C_3   0.039182 0.514693 0.370467 -0.333043
C24   C     C_3   0.859832 0.148263 0.816922 -0.868944
C25   C     C_3   0.011182 0.802538 0.368550 0.105205
C26   C     C_3   0.017635 0.817431 0.215258 -0.883121
C27   C     C_3   0.345425 0.106399 0.199842 0.148838
C28   C     C_3   0.310315 0.210167 0.102668 -0.846688
C29   C     C_3   0.635690 0.894809 0.193747 0.139348
C30   C     C_3   0.666449 0.792618 0.093452 -0.804454
C31   C     C_3   0.122654 0.498871 0.498771 -0.094982
C32   C     C_R   0.506974 0.062126 0.613314 -0.165565
C33   C     C_R   0.496947 0.129304 0.494795 -0.274358
C34   C     C_R   0.487887 0.064468 0.369860 0.358305
C35   C     C_R   0.502215 0.935605 0.369459 0.324416
C36   C     C_R   0.502994 0.870869 0.494842 -0.265794
H1    H     H_    0.602629 0.880691 0.799841 0.112551
H2    H     H_    0.924992 0.474017 0.735423 0.172192
H3    H     H_    0.087719 0.670186 0.641510 0.149533
H4    H     H_    0.072404 0.526615 0.265134 0.143982
H5    H     H_    0.060815 0.206565 0.347562 0.127194
H6    H     H_    0.036596 0.308283 0.202476 0.141535
H7    H     H_    0.848040 0.179965 0.132348 0.272098
H8    H     H_    0.993603 0.091769 0.139550 0.207377
H9    H     H_    0.877631 0.077083 0.273608 0.247344
H10   H     H_    0.730227 0.185180 0.652943 0.171312
H11   H     H_    0.752658 0.022080 0.692210 0.127400
H12   H     H_    0.432408 0.113218 0.810401 0.127375
H13   H     H_    0.874339 0.078784 0.898567 0.254976
H14   H     H_    0.943777 0.147715 0.749166 0.212837
H15   H     H_    0.851444 0.241788 0.862714 0.249022
H16   H     H_    0.107306 0.775696 0.407291 0.128249
H17   H     H_    0.990413 0.894320 0.413736 0.152979
H18   H     H_    0.930330 0.862977 0.177164 0.253605
H19   H     H_    0.101361 0.875873 0.188363 0.207552
H20   H     H_    0.026275 0.725839 0.165451 0.260435
H21   H     H_    0.273906 0.105787 0.283060 0.095025
H22   H     H_    0.339222 0.016987 0.144147 0.169366
H23   H     H_    0.647899 0.368017 0.127893 0.193829
H24   H     H_    0.381560 0.217391 0.020510 0.268280
H25   H     H_    0.214838 0.191823 0.057149 0.194483
H26   H     H_    0.308109 0.299106 0.158777 0.259328
H27   H     H_    0.711432 0.894720 0.274049 0.144612
H28   H     H_    0.638572 0.984908 0.139094 0.193206
H29   H     H_    0.754487 0.816320 0.037268 0.198459
H30   H     H_    0.680550 0.703789 0.148180 0.276092
H31   H     H_    0.587600 0.781501 0.019065 0.238413
H32   H     H_    0.409872 0.890670 0.918801 0.331066
H33   H     H_    0.648468 0.369043 0.874958 0.191259
H34   H     H_    0.250379 0.674813 0.875574 0.237184
H35   H     H_    0.238255 0.501485 0.876630 0.217596
H36   H     H_    0.252175 0.676162 0.118588 0.218556
H37   H     H_    0.238653 0.502762 0.118249 0.201501
H38   H     H_    0.079326 0.301337 0.590334 0.134638
N1    N     N_R   0.499140 0.499140 0.142800 -0.125834
N2    N     N_R   0.499140 0.499180 0.857150 -0.121777
O1    O     O_R   0.500020 0.316790 0.614690 -0.626605
O2    O     O_3   0.633085 0.120936 0.822502 -0.627609
O3    O     O_3   0.911042 0.719648 0.403084 -0.630149
O4    O     O_3   0.471296 0.126502 0.248014 -0.580654
O5    O     O_3   0.512497 0.873792 0.246882 -0.601136
O6    O     O_3   0.401815 0.879577 0.819236 -0.780427
O7    O     O_R   0.500000 0.316760 0.385350 -0.560195
O8    O     O_R   0.313960 0.499990 0.614650 -0.619739
O9    O     O_R   0.313940 0.499950 0.385310 -0.644476
O10   O     O_R   0.500000 0.683240 0.614650 -0.603215
O11   O     O_R   0.499980 0.683210 0.385310 -0.567338
O12   O     O_R   0.686060 0.500050 0.614690 -0.649505
O13   O     O_R   0.686040 0.500010 0.385350 -0.598125
O14   O     O_3   0.896128 0.313232 0.350053 -0.611837
Zn1   Zn    Zn3+2 0.500010 0.500020 0.653130 0.953376
Zn2   Zn    Zn3+2 0.499990 0.499980 0.346870 0.983961

loop_
_geom_bond_atom_site_label_1
_geom_bond_atom_site_label_2
_ccdc_geom_bond_type
C15   C18   S    
C29   H27   S    
C16   O14   S    
C1    O1    A    
C35   C36   A    
C19   C31   S    
C26   H19   S    
C6    C9    A    
C20   H5    S    
C35   O5    S    
C1    C33   S    
C7    C8    A    
O7    Zn2   S    
C12   C23   S    
C8    H33   S    
C25   H17   S    
C18   C19   S    
O10   Zn1   S    
C23   H4    S    
C12   O3    S    
C8    N2    A    
C2    C32   A    
C34   C35   A    
C34   O4    S    
C21   H7    S    
C16   C17   S    
C13   O10   A    
C9    N2    A    
C9    C10   S    
C30   H31   S    
C5    C32   S    
C28   H25   S    
C24   H15   S    
C22   H11   S    
C29   H28   S    
O11   Zn2   S    
C14   C17   S    
C26   H18   S    
C7    H23   S    
O9    Zn2   S    
C33   C34   A    
C21   H9    S    
C28   H24   S    
C24   H14   S    
C5    H12   S    
C30   H29   S    
C6    N1    A    
C22   O2    S    
C13   C36   S    
C27   O4    S    
C11   H37   S    
C6    C11   S    
C11   H36   S    
C7    N1    A    
C4    O9    A    
C25   C26   S    
C20   O14   S    
C23   C31   S    
C12   C17   S    
C14   O13   A    
C29   O5    S    
C29   C30   S    
C21   H8    S    
C4    O8    A    
O12   Zn1   S    
C13   O11   A    
C3    O6    S    
C17   C18   S    
O13   Zn2   S    
C30   H30   S    
C19   H3    S    
N1    Zn2   S    
C10   H34   S    
O8    Zn1   S    
C16   C23   S    
C27   H21   S    
C22   C24   S    
C2    C36   A    
C24   H13   S    
O1    Zn1   S    
C22   H10   S    
C25   O3    S    
C3    C5    S    
C27   H22   S    
C26   H20   S    
C20   H6    S    
C15   C31   S    
C1    O7    A    
H32   O6    S    
C32   C33   A    
C2    C3    S    
C18   H2    S    
C25   H16   S    
C14   O12   A    
C10   H35   S    
C12   C19   S    
C4    C31   S    
C10   C11   S    
N2    Zn1   S    
C15   H38   S    
C20   C21   S    
C3    H1    S    
C27   C28   S    
C5    O2    S    
C15   C16   S    
C28   H26   S    
