data_mof_unit_27031.cif
_audit_creation_date              2012-12-11T15:33:41-0500
_audit_creation_method            fapswitch 2.2
_symmetry_space_group_name_H-M    P1
_symmetry_Int_Tables_number       1
_space_group_crystal_system       triclinic
_cell_length_a                    26.916674
_cell_length_b                    7.200972
_cell_length_c                    22.795415
_cell_angle_alpha                 89.999901
_cell_angle_beta                  101.635762
_cell_angle_gamma                 89.999951
_cell_volume                      4327.54997997

loop_
_atom_site_label
_atom_site_type_symbol
_atom_type_description
_atom_site_fract_x
_atom_site_fract_y
_atom_site_fract_z
_atom_type_partial_charge
O1    O     O_R   0.207310 0.594030 0.676830 -0.525532
O2    O     O_R   0.792690 0.405970 0.323170 -0.534699
O3    O     O_R   0.292690 0.094030 0.823170 -0.525530
O4    O     O_R   0.707310 0.905970 0.176830 -0.534698
O5    O     O_R   0.197320 0.262370 0.795700 -0.511203
O6    O     O_R   0.802680 0.737630 0.204300 -0.504225
O7    O     O_R   0.302680 0.762370 0.704300 -0.511203
O8    O     O_R   0.697320 0.237630 0.295700 -0.504225
C1    C     C_R   0.184567 0.431844 0.812009 0.776090
C2    C     C_R   0.815119 0.568271 0.187635 0.778451
C3    C     C_R   0.315433 0.931844 0.687991 0.776086
C4    C     C_R   0.684880 0.068271 0.312364 0.778452
O9    O     O_R   0.201410 0.264250 0.675590 -0.541066
O10   O     O_R   0.798590 0.735750 0.324410 -0.538571
O11   O     O_R   0.298590 0.764250 0.824410 -0.541065
O12   O     O_R   0.701410 0.235750 0.175590 -0.538572
O13   O     O_R   0.296810 0.094940 0.702210 -0.543959
O14   O     O_R   0.703190 0.905060 0.297790 -0.548910
O15   O     O_R   0.203190 0.594940 0.797790 -0.543959
O16   O     O_R   0.796810 0.405060 0.202210 -0.548910
C5    C     C_R   0.189916 0.432329 0.653000 0.763617
C6    C     C_R   0.810363 0.567119 0.346691 0.775289
C7    C     C_R   0.310084 0.932329 0.847000 0.763617
C8    C     C_R   0.689636 0.067120 0.153309 0.775289
O17   O     O_3   0.281300 0.427390 0.758870 -0.371320
O18   O     O_3   0.718700 0.572610 0.241130 -0.378342
O19   O     O_3   0.218700 0.927390 0.741130 -0.371321
O20   O     O_3   0.781300 0.072610 0.258870 -0.378342
V1    V     V_3+5 0.244190 0.152150 0.748350 1.521937
V2    V     V_3+5 0.755810 0.847850 0.251650 1.498645
V3    V     V_3+5 0.255810 0.652150 0.751650 1.521937
V4    V     V_3+5 0.744190 0.347850 0.248350 1.498644
C9    C     C_R   0.655963 0.056148 0.093326 -0.240841
C10   C     C_R   0.343564 0.934304 0.907354 -0.231153
C11   C     C_R   0.844037 0.556145 0.406674 -0.240841
C12   C     C_R   0.156436 0.434306 0.592646 -0.231152
C13   C     C_R   0.644758 0.017214 0.985300 0.475250
C14   C     C_R   0.359706 0.846197 0.012742 0.512567
C15   C     C_R   0.855242 0.517191 0.514699 0.475249
C16   C     C_R   0.140295 0.346214 0.487257 0.512567
C17   C     C_R   0.676773 0.044608 0.041336 0.197682
C18   C     C_R   0.326383 0.858892 0.956887 0.187027
C19   C     C_R   0.823227 0.544592 0.458663 0.197680
C20   C     C_R   0.173618 0.358904 0.543113 0.187023
C21   C     C_R   0.603009 0.046201 0.088419 0.299591
C22   C     C_R   0.394162 0.995005 0.914550 0.301865
C23   C     C_R   0.896991 0.546206 0.411581 0.299591
C24   C     C_R   0.105838 0.495002 0.585450 0.301863
C25   C     C_R   0.570613 0.997113 0.032462 -0.123956
C26   C     C_R   0.430790 0.943013 0.966995 -0.135448
C27   C     C_R   0.929387 0.497111 0.467537 -0.123957
C28   C     C_R   0.069211 0.443015 0.533004 -0.135449
C29   C     C_R   0.591385 0.000987 0.979952 -0.245876
C30   C     C_R   0.412488 0.879776 0.017889 -0.229258
C31   C     C_R   0.908615 0.500971 0.520047 -0.245875
C32   C     C_R   0.087513 0.379790 0.482110 -0.229258
C33   C     C_R   0.518336 0.944535 0.027156 -0.102845
C34   C     C_R   0.484749 0.950923 0.970331 -0.108364
C35   C     C_R   0.981664 0.444539 0.472843 -0.102845
C36   C     C_R   0.015251 0.450919 0.529668 -0.108364
C37   C     C_R   0.506917 0.944652 0.918780 0.279336
C38   C     C_R   0.499706 0.864199 0.075345 0.265962
C39   C     C_R   0.993083 0.444635 0.581219 0.279338
C40   C     C_R   0.000296 0.364214 0.424653 0.265962
C41   C     C_R   0.558674 0.981029 0.923288 0.454449
C42   C     C_R   0.447361 0.844546 0.072241 0.490027
C43   C     C_R   0.941326 0.481006 0.576711 0.454448
C44   C     C_R   0.052640 0.344568 0.427757 0.490025
C45   C     C_R   0.619892 0.893306 0.355324 -0.319844
C46   C     C_R   0.358575 0.103602 0.616458 -0.314621
C47   C     C_R   0.880108 0.393307 0.144676 -0.319841
C48   C     C_R   0.141425 0.603602 0.883542 -0.314620
H1    H     H_    0.628469 0.771280 0.331441 0.182541
H2    H     H_    0.336625 0.224339 0.623481 0.169875
H3    H     H_    0.871531 0.271280 0.168559 0.182541
H4    H     H_    0.163375 0.724338 0.876519 0.169875
C49   C     C_R   0.582390 0.879954 0.389930 0.462363
C50   C     C_R   0.391795 0.116129 0.576019 0.469576
C51   C     C_R   0.917610 0.379954 0.110070 0.462362
C52   C     C_R   0.108205 0.616129 0.923981 0.469575
C53   C     C_R   0.571439 0.033549 0.423251 -0.201305
C54   C     C_R   0.422908 0.963352 0.568709 -0.203761
C55   C     C_R   0.928560 0.533550 0.076749 -0.201306
C56   C     C_R   0.077092 0.463352 0.931291 -0.203763
C57   C     C_R   0.597605 0.203697 0.420301 0.243635
C58   C     C_R   0.417639 0.795019 0.599564 0.228179
C59   C     C_R   0.902395 0.703697 0.079699 0.243637
C60   C     C_R   0.082361 0.295019 0.900436 0.228180
C61   C     C_R   0.634408 0.217216 0.383571 0.367184
C62   C     C_R   0.384036 0.784659 0.640216 0.356519
C63   C     C_R   0.865592 0.717217 0.116428 0.367183
C64   C     C_R   0.115964 0.284659 0.859784 0.356520
C65   C     C_R   0.645732 0.060547 0.350817 -0.199502
C66   C     C_R   0.353624 0.939619 0.648164 -0.188768
C67   C     C_R   0.854268 0.560547 0.149183 -0.199502
C68   C     C_R   0.146376 0.439619 0.851836 -0.188768
N1    N     N_R   0.487353 0.103764 0.445722 -0.299621
N2    N     N_R   0.507253 0.893482 0.545175 -0.248597
N3    N     N_R   0.012647 0.603765 0.054277 -0.299622
N4    N     N_R   0.992747 0.393483 0.954825 -0.248598
N5    N     N_R   0.452672 0.087655 0.479805 -0.242323
N6    N     N_R   0.541787 0.908294 0.510899 -0.218964
N7    N     N_R   0.047327 0.587655 0.020195 -0.242323
N8    N     N_R   0.958213 0.408295 0.989100 -0.218964
C69   C     C_R   0.461759 0.981832 0.530288 0.565793
C70   C     C_R   0.532482 0.013694 0.460526 0.554175
C71   C     C_R   0.038241 0.481833 0.969712 0.565793
C72   C     C_R   0.967518 0.513695 0.039473 0.554174
O21   O     O_3   0.577548 0.982678 0.871166 -0.519067
C73   C     C_3   0.569922 0.161425 0.845603 -0.056241
H5    H     H_    0.589336 0.269869 0.876878 0.110349
H6    H     H_    0.528820 0.194118 0.831614 0.140492
H7    H     H_    0.586600 0.165188 0.804920 0.168277
O22   O     O_3   0.430804 0.768917 0.120844 -0.509772
C74   C     C_3   0.437056 0.900709 0.167705 -0.141054
H8    H     H_    0.423478 0.041506 0.151643 0.096651
H9    H     H_    0.477218 0.907996 0.191759 0.167817
H10   H     H_    0.414201 0.855678 0.200560 0.144789
O23   O     O_3   0.922451 0.482640 0.628833 -0.519067
C75   C     C_3   0.930076 0.661384 0.654399 -0.056240
H11   H     H_    0.910661 0.769831 0.623127 0.110351
H12   H     H_    0.971178 0.694080 0.668388 0.140492
H13   H     H_    0.913398 0.665135 0.695083 0.168276
O24   O     O_3   0.069198 0.268950 0.379153 -0.509771
C76   C     C_3   0.062946 0.400753 0.332295 -0.141056
H14   H     H_    0.076527 0.541545 0.348360 0.096654
H15   H     H_    0.022785 0.408049 0.308241 0.167815
H16   H     H_    0.085801 0.355727 0.299438 0.144791
O25   O     O_3   0.406046 0.107692 0.870347 -0.617202
H17   H     H_    0.434827 0.188271 0.888776 0.306087
O26   O     O_3   0.584205 0.094442 0.138406 -0.631562
H18   H     H_    0.549965 0.148471 0.124810 0.306275
O27   O     O_3   0.093953 0.607679 0.629655 -0.617204
H19   H     H_    0.065171 0.688258 0.611227 0.306087
O28   O     O_3   0.915795 0.594460 0.361595 -0.631561
H20   H     H_    0.950035 0.648491 0.375192 0.306274
O29   O     O_3   0.277138 0.797247 0.953333 -0.639908
H21   H     H_    0.255078 0.841852 0.915969 0.267963
O30   O     O_3   0.728224 0.061650 0.042531 -0.612536
H22   H     H_    0.746621 0.097746 0.082927 0.299552
O31   O     O_3   0.222863 0.297262 0.546665 -0.639911
H23   H     H_    0.244923 0.341859 0.584031 0.267963
O32   O     O_3   0.771775 0.561626 0.457468 -0.612535
H24   H     H_    0.753378 0.597735 0.417073 0.299553
O33   O     O_3   0.666593 0.008394 0.935362 -0.515733
C77   C     C_3   0.681990 0.823586 0.928462 -0.039786
H25   H     H_    0.697179 0.814576 0.886793 0.161803
H26   H     H_    0.649547 0.725029 0.923917 0.110704
H27   H     H_    0.712785 0.780643 0.966272 0.144362
O34   O     O_3   0.340898 0.782423 0.061277 -0.505220
C78   C     C_3   0.314886 0.928802 0.083289 -0.139002
H28   H     H_    0.337787 0.058741 0.090219 0.101083
H29   H     H_    0.307154 0.887005 0.127418 0.147184
H30   H     H_    0.277753 0.956312 0.053106 0.146978
O35   O     O_3   0.833406 0.508357 0.564637 -0.515733
C79   C     C_3   0.818010 0.323546 0.571533 -0.039785
H31   H     H_    0.802821 0.314524 0.613202 0.161803
H32   H     H_    0.850455 0.224992 0.576076 0.110702
H33   H     H_    0.787215 0.280606 0.533723 0.144362
O36   O     O_3   0.159104 0.282450 0.438721 -0.505220
C80   C     C_3   0.185116 0.428832 0.416712 -0.139001
H34   H     H_    0.162217 0.558774 0.409786 0.101081
H35   H     H_    0.192848 0.387046 0.372582 0.147183
H36   H     H_    0.222250 0.456334 0.446895 0.146980
O37   O     O_3   0.480881 0.881843 0.863915 -0.600989
H37   H     H_    0.455913 0.787697 0.871078 0.312167
O38   O     O_3   0.531438 0.781120 0.123389 -0.620210
H38   H     H_    0.561918 0.734583 0.109883 0.308840
O39   O     O_3   0.019119 0.381819 0.636083 -0.600988
H39   H     H_    0.044088 0.287678 0.628919 0.312168
O40   O     O_3   0.968564 0.281143 0.376607 -0.620210
H40   H     H_    0.938084 0.234598 0.390112 0.308840
O41   O     O_3   0.558191 0.712458 0.394262 -0.519000
C81   C     C_3   0.523850 0.677717 0.339934 -0.156151
H41   H     H_    0.544099 0.648855 0.302952 0.137337
H42   H     H_    0.496646 0.794713 0.327684 0.110563
H43   H     H_    0.501452 0.552109 0.345692 0.175966
O42   O     O_3   0.398251 0.282671 0.547722 -0.523266
C82   C     C_3   0.351229 0.354192 0.517189 -0.166502
H44   H     H_    0.332787 0.436050 0.548143 0.139001
H45   H     H_    0.325224 0.243861 0.494483 0.138456
H46   H     H_    0.358455 0.450816 0.481946 0.153666
O43   O     O_3   0.941809 0.212458 0.105737 -0.519001
C83   C     C_3   0.976151 0.177720 0.160064 -0.156149
H47   H     H_    0.955903 0.148864 0.197048 0.137338
H48   H     H_    0.003355 0.294715 0.172312 0.110568
H49   H     H_    0.998548 0.052110 0.154308 0.175966
O44   O     O_3   0.101749 0.782671 0.952277 -0.523266
C84   C     C_3   0.148770 0.854189 0.982811 -0.166500
H50   H     H_    0.167214 0.936046 0.951858 0.138998
H51   H     H_    0.174775 0.743857 0.005518 0.138453
H52   H     H_    0.141544 0.950814 0.018054 0.153666
O45   O     O_3   0.589417 0.357871 0.453419 -0.604679
H53   H     H_    0.567290 0.326604 0.481698 0.329121
O46   O     O_3   0.444299 0.637448 0.590451 -0.603635
H54   H     H_    0.447346 0.633908 0.547887 0.330862
O47   O     O_3   0.910583 0.857872 0.046580 -0.604679
H55   H     H_    0.932710 0.826605 0.018302 0.329120
O48   O     O_3   0.055701 0.137448 0.909549 -0.603635
H56   H     H_    0.052654 0.133909 0.952113 0.330861
O49   O     O_3   0.661203 0.379894 0.380608 -0.632690
H57   H     H_    0.649642 0.478329 0.404985 0.354199
O50   O     O_3   0.380107 0.624433 0.672555 -0.629234
H58   H     H_    0.403889 0.528461 0.663822 0.348147
O51   O     O_3   0.838797 0.879895 0.119392 -0.632691
H59   H     H_    0.850358 0.978330 0.095014 0.354199
O52   O     O_3   0.119893 0.124433 0.827445 -0.629233
H60   H     H_    0.096111 0.028461 0.836178 0.348148

loop_
_geom_bond_atom_site_label_1
_geom_bond_atom_site_label_2
_ccdc_geom_bond_type
O17   V3    S    
N3    N7    A    
O50   H58   S    
O1    C5    A    
O37   H37   S    
C59   C63   A    
O19   V1    S    
C9    C21   A    
O39   H39   S    
C55   C59   A    
C10   C18   A    
N4    N8    A    
C48   H4    S    
C11   C23   A    
C44   O24   S    
C22   O25   S    
C47   C51   A    
O33   C77   S    
C25   C33   A    
C33   C38   A    
C5    C12   S    
O51   H59   S    
C55   C72   S    
O7    C3    A    
C6    C11   S    
C35   C40   A    
C26   C30   A    
N2    C69   A    
C36   C39   A    
C40   C44   A    
C60   O48   S    
O9    V1    S    
C79   H31   S    
C46   C66   A    
C37   O37   S    
C14   C18   A    
C45   C65   A    
O4    C8    A    
C48   C68   A    
C39   O39   S    
C47   C67   A    
C74   H8    S    
O1    V3    S    
C56   C71   S    
O13   V1    S    
C83   H47   S    
O2    V4    S    
O49   H57   S    
C78   H30   S    
O3    V1    S    
C81   H41   S    
C28   C36   A    
C63   O51   S    
C73   H5    S    
C19   O32   S    
C1    O15   A    
C15   C31   A    
C60   C64   A    
C2    O16   A    
C20   O31   S    
C74   H9    S    
C14   C30   A    
O2    C6    A    
C76   H16   S    
C78   H28   S    
C45   H1    S    
C10   C22   A    
C49   C53   A    
C11   C19   A    
C16   C20   A    
O5    V1    S    
C75   H13   S    
C52   C56   A    
C82   H46   S    
C13   C29   A    
C7    C10   S    
C34   C37   A    
O11   C7    A    
C38   O38   S    
O29   H21   S    
O15   V3    S    
C35   C36   A    
O12   C8    A    
O41   C81   S    
C18   O29   S    
C61   C65   A    
C78   H29   S    
O47   H55   S    
O10   V2    S    
C80   H35   S    
C75   H12   S    
C62   C66   A    
C77   H26   S    
C64   C68   A    
N5    C69   A    
O30   H22   S    
C39   C43   A    
O7    V3    S    
C38   C42   A    
C28   C32   A    
O52   H60   S    
O8    V4    S    
O42   C82   S    
C24   O27   S    
O28   H20   S    
C58   C62   A    
O38   H38   S    
C57   C61   A    
O18   V4    S    
C15   C19   A    
C27   C31   A    
C16   C32   A    
O3    C7    A    
N2    N6    A    
O4    V2    S    
C82   H44   S    
C15   O35   S    
O44   C84   S    
C26   C34   A    
C84   H52   S    
O43   C83   S    
C54   C69   S    
C46   H2    S    
N3    C72   A    
C58   O46   S    
C77   H27   S    
C50   C54   A    
C31   C43   A    
C1    C68   S    
C21   C25   A    
O8    C4    A    
C74   H10   S    
N1    N5    A    
C52   O44   S    
O9    C5    A    
O11   V3    S    
O40   H40   S    
C41   O21   S    
C62   O50   S    
C81   H43   S    
O14   V2    S    
N1    C70   A    
C3    C66   S    
O6    V2    S    
C21   O26   S    
C13   O33   S    
O27   H19   S    
C4    C65   S    
C12   C20   A    
C27   C35   A    
C59   O47   S    
C4    O14   A    
O26   H18   S    
N8    C72   A    
C80   H36   S    
C29   C41   A    
C75   H11   S    
C77   H25   S    
O16   V4    S    
C46   C50   A    
C53   C70   S    
C3    O13   A    
N4    C71   A    
C49   O41   S    
C42   O22   S    
C23   O28   S    
C50   O42   S    
C16   O36   S    
C79   H33   S    
C56   C60   A    
O5    C1    A    
O6    C2    A    
C23   C27   A    
O23   C75   S    
O22   C74   S    
C30   C42   A    
O12   V4    S    
C61   O49   S    
C22   C26   A    
C8    C9    S    
C83   H48   S    
C83   H49   S    
C9    C17   A    
O36   C80   S    
O10   C6    A    
C40   O40   S    
C79   H32   S    
O25   H17   S    
C48   C52   A    
C64   O52   S    
C54   C58   A    
O31   H23   S    
C47   H3    S    
C45   C49   A    
C33   C34   A    
C76   H14   S    
C80   H34   S    
C2    C67   S    
C25   C29   A    
O20   V2    S    
C32   C44   A    
C81   H42   S    
C51   O43   S    
C12   C24   A    
O48   H56   S    
C57   O45   S    
C13   C17   A    
C84   H50   S    
C73   H6    S    
C17   O30   S    
C63   C67   A    
O46   H54   S    
C51   C55   A    
C37   C41   A    
C24   C28   A    
O45   H53   S    
N6    C70   A    
C73   H7    S    
O35   C79   S    
C76   H15   S    
O34   C78   S    
N7    C71   A    
C84   H51   S    
O21   C73   S    
C43   O23   S    
C14   O34   S    
C53   C57   A    
O32   H24   S    
O24   C76   S    
C82   H45   S    
