data_mof_unit_41317.cif
_audit_creation_date              2012-12-11T16:41:18-0500
_audit_creation_method            fapswitch 2.2
_symmetry_space_group_name_H-M    P1
_symmetry_Int_Tables_number       1
_space_group_crystal_system       triclinic
_cell_length_a                    6.927598
_cell_length_b                    23.24027
_cell_length_c                    23.521897
_cell_angle_alpha                 112.527884
_cell_angle_beta                  90.543074
_cell_angle_gamma                 90.173377
_cell_volume                      3497.78523132

loop_
_atom_site_label
_atom_site_type_symbol
_atom_type_description
_atom_site_fract_x
_atom_site_fract_y
_atom_site_fract_z
_atom_type_partial_charge
O1    O     O_R   0.505740 0.453370 0.547760 -0.540389
O2    O     O_R   0.169520 0.427650 0.423350 -0.540891
O3    O     O_R   0.005620 0.546630 0.452240 -0.538479
C1    C     C_R   0.337073 0.409160 0.399208 0.698222
O4    O     O_R   0.175610 0.445960 0.545510 -0.540873
O5    O     O_R   0.011740 0.565080 0.575280 -0.536353
C2    C     C_R   0.345370 0.434579 0.563005 0.705013
O6    O     O_R   0.499610 0.434920 0.424720 -0.536574
O7    O     O_3   0.341310 0.539060 0.509620 -0.367678
V1    V     V_3+5 0.063960 0.492750 0.498220 1.394504
O8    O     O_R   0.682400 0.572350 0.576650 -0.542630
C3    C     C_R   0.850804 0.590481 0.601062 0.699553
O9    O     O_R   0.676320 0.554040 0.454490 -0.542411
C4    C     C_R   0.844704 0.566292 0.437774 0.707965
V2    V     V_3+5 0.564740 0.507250 0.501780 1.392896
O10   O     O_3   0.837250 0.460940 0.490380 -0.367304
C5    C     C_R   0.773790 0.876706 0.115216 -0.162699
H1    H     H_    0.640876 0.889710 0.098813 0.120761
C6    C     C_R   0.762317 0.841156 0.151513 -0.146112
H2    H     H_    0.621203 0.828408 0.162520 0.100774
C7    C     C_R   0.930381 0.823432 0.174437 0.093401
C8    C     C_R   0.110563 0.841992 0.159796 -0.142965
H3    H     H_    0.242892 0.828597 0.176157 0.100827
C9    C     C_R   0.122204 0.877344 0.123159 -0.162681
H4    H     H_    0.263270 0.890825 0.112887 0.116565
C10   C     C_R   0.953819 0.895358 0.100513 -0.056443
C11   C     C_R   0.037615 0.799589 0.265835 -0.159265
H5    H     H_    0.142544 0.837129 0.278032 0.109734
C12   C     C_R   0.021066 0.765621 0.303599 -0.142262
H6    H     H_    0.114286 0.777208 0.343637 0.118281
C13   C     C_R   0.883593 0.717601 0.290304 0.084585
C14   C     C_R   0.766252 0.703059 0.237561 -0.170382
H7    H     H_    0.662462 0.665180 0.225533 0.115948
C15   C     C_R   0.781416 0.737306 0.200049 -0.151802
H8    H     H_    0.688645 0.724983 0.159765 0.111973
C16   C     C_R   0.916893 0.786195 0.213798 0.082353
C17   C     C_R   0.698623 0.678991 0.362305 0.319734
C18   C     C_R   0.691986 0.640398 0.396111 -0.181225
H9    H     H_    0.559824 0.637946 0.419350 0.135268
C19   C     C_R   0.853700 0.606138 0.401078 -0.117643
C20   C     C_R   0.024053 0.610673 0.371077 -0.164437
H10   H     H_    0.151728 0.585156 0.374082 0.133206
C21   C     C_R   0.030954 0.647181 0.335691 -0.169835
H11   H     H_    0.163290 0.648669 0.312090 0.149786
C22   C     C_R   0.868983 0.680869 0.329888 0.005279
C23   C     C_R   0.852806 0.645124 0.660692 -0.060688
C24   C     C_R   0.958957 0.853953 0.839632 -0.094449
C25   C     C_R   0.133947 0.792818 0.744808 0.065820
C26   C     C_R   0.118832 0.844965 0.800711 -0.168241
C27   C     C_R   0.812956 0.808619 0.823080 -0.256480
C28   C     C_R   0.828655 0.754284 0.769254 0.150741
C29   C     C_R   0.989519 0.745660 0.729750 0.106152
C30   C     C_R   0.000114 0.690231 0.675907 -0.253802
C31   C     C_R   0.695536 0.654815 0.700566 -0.176510
C32   C     C_R   0.684482 0.708308 0.754337 -0.182170
H12   H     H_    0.118984 0.682186 0.644392 0.120767
H13   H     H_    0.579289 0.620892 0.689871 0.124563
H14   H     H_    0.560701 0.714202 0.783838 0.121287
H15   H     H_    0.231912 0.879677 0.814600 0.118125
H16   H     H_    0.690307 0.814637 0.853071 0.124869
C33   C     C_R   0.339689 0.354332 0.339603 -0.061824
C34   C     C_R   0.468677 0.147975 0.159093 -0.130217
C35   C     C_R   0.632668 0.210359 0.256928 0.073701
C36   C     C_R   0.622355 0.157752 0.201095 -0.254698
C37   C     C_R   0.319165 0.192319 0.172655 0.205615
C38   C     C_R   0.327143 0.246519 0.228220 0.077400
C39   C     C_R   0.484733 0.255882 0.270314 0.073343
C40   C     C_R   0.489288 0.310571 0.325306 -0.233427
C41   C     C_R   0.186308 0.344306 0.297673 -0.181929
C42   C     C_R   0.181243 0.292016 0.242642 -0.173921
H17   H     H_    0.605779 0.319149 0.358493 0.118863
H18   H     H_    0.069388 0.377442 0.307333 0.122503
H19   H     H_    0.060213 0.287806 0.211967 0.127783
H20   H     H_    0.733544 0.122784 0.189644 0.137153
C43   C     C_R   0.288457 0.114265 0.868195 0.075123
C44   C     C_R   0.296981 0.154081 0.835888 -0.203480
H21   H     H_    0.174843 0.156139 0.807532 0.119593
C45   C     C_R   0.459526 0.190626 0.837974 0.045352
C46   C     C_R   0.619301 0.188685 0.875099 0.101704
C47   C     C_R   0.614898 0.147326 0.905998 -0.228782
H22   H     H_    0.737710 0.146532 0.934531 0.123850
C48   C     C_R   0.453331 0.108987 0.902862 -0.095430
C49   C     C_R   0.586117 0.220991 0.753129 -0.143969
H23   H     H_    0.700227 0.187075 0.744698 0.107205
C50   C     C_R   0.568093 0.254175 0.714633 -0.177488
H24   H     H_    0.670797 0.246151 0.678062 0.126739
C51   C     C_R   0.414164 0.295534 0.721638 0.102139
C52   C     C_R   0.281309 0.304269 0.768890 -0.095383
H25   H     H_    0.162048 0.336132 0.775489 0.122588
C53   C     C_R   0.301171 0.271834 0.807942 -0.197427
H26   H     H_    0.195853 0.278649 0.843539 0.120802
C54   C     C_R   0.453657 0.229892 0.800572 0.093096
C55   C     C_R   0.219870 0.326437 0.645649 0.316372
C56   C     C_R   0.203787 0.361700 0.608561 -0.238092
H27   H     H_    0.070849 0.359556 0.583164 0.124698
C57   C     C_R   0.359662 0.397798 0.602619 -0.084161
C58   C     C_R   0.531711 0.398919 0.635296 -0.167381
H28   H     H_    0.654346 0.426591 0.632277 0.130368
C59   C     C_R   0.547080 0.365603 0.673504 -0.223832
H29   H     H_    0.679514 0.369024 0.699466 0.129424
C60   C     C_R   0.392557 0.329276 0.679444 0.057958
O11   O     O_R   0.309730 0.065160 0.075230 -0.511902
O12   O     O_R   0.633800 0.053970 0.954410 -0.544067
O13   O     O_R   0.797580 0.934860 0.924760 -0.539490
C61   C     C_R   0.463634 0.066487 0.937608 0.683666
O14   O     O_R   0.639820 0.072410 0.076610 -0.545980
O15   O     O_R   0.803650 0.953440 0.047830 -0.540301
C62   C     C_R   0.471965 0.091612 0.100303 0.746747
O16   O     O_R   0.303670 0.046590 0.952160 -0.538246
O17   O     O_3   0.468000 0.960960 0.990410 -0.370789
V3    V     V_3+5 0.745380 0.007240 0.001780 1.387677
O18   O     O_R   0.132940 0.946010 0.045600 -0.542437
C63   C     C_R   0.964441 0.934040 0.062609 0.689748
O19   O     O_R   0.126920 0.927560 0.923400 -0.543059
C64   C     C_R   0.958594 0.908677 0.899451 0.714307
V4    V     V_3+5 0.244590 0.992720 0.998240 1.407561
O20   O     O_3   0.972110 0.039040 0.009600 -0.358848
C65   C     C_3   0.299868 0.786860 0.700607 -0.372575
C66   C     C_3   0.442325 0.842025 0.718687 -0.311584
C67   C     C_3   0.596380 0.830794 0.669661 -0.754307
H30   H     H_    0.679307 0.788090 0.663713 0.238646
H31   H     H_    0.528585 0.825580 0.624951 0.221641
H32   H     H_    0.697744 0.871012 0.683840 0.215706
H33   H     H_    0.363547 0.885334 0.723854 0.190692
H34   H     H_    0.515513 0.848413 0.762913 0.201630
H35   H     H_    0.382411 0.744249 0.695186 0.186131
H36   H     H_    0.236040 0.780744 0.655069 0.174548
C68   C     C_3   0.797915 0.218531 0.303006 -0.358193
C69   C     C_3   0.948948 0.166413 0.285587 -0.310823
C70   C     C_3   0.105259 0.180545 0.335378 -0.758681
H37   H     H_    0.176645 0.225854 0.343353 0.239805
H38   H     H_    0.041505 0.182304 0.379159 0.222445
H39   H     H_    0.216036 0.143430 0.320594 0.217736
H40   H     H_    0.878145 0.121492 0.279809 0.193040
H41   H     H_    0.019118 0.161736 0.241841 0.198249
H42   H     H_    0.874215 0.262889 0.310074 0.183660
H43   H     H_    0.734168 0.222465 0.347551 0.172886
N1    N     N_2   0.163029 0.181923 0.129817 -0.507286
H44   H     H_    0.027191 0.190188 0.148606 0.247413
C71   C     C_3   0.193369 0.206286 0.082463 -0.513818
H45   H     H_    0.201444 0.257976 0.103095 0.178847
H46   H     H_    0.071391 0.191886 0.048868 0.187785
H47   H     H_    0.328816 0.187599 0.057325 0.183256
C72   C     C_3   0.101773 0.077838 0.861253 -0.348559
C73   C     C_3   0.121239 0.011340 0.813522 -0.302325
C74   C     C_3   0.923388 0.980951 0.792817 -0.777895
H48   H     H_    0.839117 0.981544 0.832903 0.232873
H49   H     H_    0.841288 0.006200 0.768876 0.225082
H50   H     H_    0.941818 0.932063 0.760269 0.219998
H51   H     H_    0.197803 0.011753 0.772325 0.192158
H52   H     H_    0.207401 0.983540 0.833564 0.184422
H53   H     H_    0.049626 0.078600 0.905871 0.191807
H54   H     H_    0.984761 0.101014 0.845406 0.167545
C75   C     C_3   0.789780 0.232815 0.886180 -0.386490
C76   C     C_3   0.734750 0.298873 0.929541 -0.280253
C77   C     C_3   0.902199 0.344511 0.939057 -0.778475
H55   H     H_    0.031956 0.328400 0.956700 0.226073
H56   H     H_    0.936811 0.349158 0.895003 0.227636
H57   H     H_    0.861068 0.391014 0.973062 0.219370
H58   H     H_    0.609451 0.315631 0.910511 0.202910
H59   H     H_    0.693213 0.298341 0.974888 0.190179
H60   H     H_    0.912102 0.217038 0.907456 0.166975
H61   H     H_    0.844142 0.232942 0.842099 0.174587
N2    N     N_2   0.063101 0.287621 0.647876 -0.537116
H62   H     H_    0.930603 0.302728 0.639093 0.248623
C78   C     C_3   0.090228 0.222046 0.611612 -0.559196
H63   H     H_    0.965605 0.195060 0.617975 0.191476
H64   H     H_    0.223020 0.204684 0.626309 0.213067
H65   H     H_    0.100202 0.213985 0.562001 0.190349
N3    N     N_2   0.535055 0.716550 0.363193 -0.538543
H66   H     H_    0.525188 0.732647 0.328194 0.260155
C79   C     C_3   0.495282 0.764773 0.422656 -0.564691
H67   H     H_    0.365038 0.790977 0.419257 0.190784
H68   H     H_    0.619230 0.797817 0.438153 0.197266
H69   H     H_    0.466962 0.744323 0.457403 0.201573

loop_
_geom_bond_atom_site_label_1
_geom_bond_atom_site_label_2
_ccdc_geom_bond_type
C51   C52   A    
C55   C56   A    
C11   C12   A    
C20   H10   S    
O2    C1    A    
C6    H2    S    
C33   C40   A    
C71   H47   S    
C1    O6    A    
C68   C69   S    
C58   H28   S    
C24   C26   A    
C7    C16   S    
C66   H33   S    
C76   H59   S    
C24   C64   S    
C49   C54   A    
C17   C18   A    
O14   C62   A    
C5    C10   A    
N2    H62   S    
C6    C7    A    
C44   C45   A    
C69   C70   S    
C68   H42   S    
O5    C3    A    
C18   H9    S    
C34   C62   S    
N3    H66   S    
V2    O10   S    
C74   H50   S    
V4    O20   S    
O12   V3    S    
C15   H8    S    
C48   C61   S    
C72   H54   S    
C65   C66   S    
O15   C63   A    
C34   C36   A    
O16   V4    S    
C51   C60   S    
O8    V2    S    
O12   C61   A    
C49   H23   S    
C79   H68   S    
C5    H1    S    
O11   C62   A    
O1    V2    S    
O7    V1    S    
C28   C32   A    
C73   H51   S    
C79   H69   S    
C38   C39   A    
C69   H41   S    
O9    C4    A    
C78   H64   S    
C20   C21   A    
C41   C42   A    
O18   C63   A    
C58   C59   A    
C67   H31   S    
C73   C74   S    
C24   C27   A    
C74   H49   S    
O14   V3    S    
C50   C51   A    
C35   C39   A    
C76   C77   S    
C35   C36   A    
C28   C29   A    
C75   H61   S    
C9    H4    S    
C47   C48   A    
C43   C72   S    
C55   C60   A    
C17   N3    S    
O4    C2    A    
C45   C46   A    
C72   C73   S    
C25   C65   S    
C55   N2    S    
C45   C54   S    
C50   H24   S    
C1    C33   S    
C39   C40   A    
C14   C15   A    
C41   H18   S    
C70   H38   S    
C43   C44   A    
C12   H6    S    
C2    C57   S    
O13   C64   A    
C53   C54   A    
C13   C14   A    
C66   C67   S    
C57   C58   A    
C23   C31   A    
C42   H19   S    
C27   C28   A    
O17   V3    S    
C29   C30   A    
C71   H45   S    
C56   C57   A    
C21   C22   A    
C75   C76   S    
C73   H52   S    
O3    C4    A    
N1    C71   S    
C68   H43   S    
C37   N1    S    
C66   H34   S    
C3    C23   S    
C19   C20   A    
C49   C50   A    
C52   C53   A    
O6    V2    S    
O9    V2    S    
C21   H11   S    
C78   H63   S    
C8    C9    A    
C70   H39   S    
C65   H36   S    
C17   C22   A    
C79   H67   S    
O2    V1    S    
O17   V4    S    
O18   V4    S    
C67   H30   S    
C74   H48   S    
C30   H12   S    
C33   C41   A    
C61   O16   A    
C31   C32   A    
C77   H55   S    
C34   C37   A    
C59   C60   A    
C76   H58   S    
O1    C2    A    
O15   V3    S    
C75   H60   S    
C77   H57   S    
C35   C68   S    
C71   H46   S    
C47   H22   S    
O5    V1    S    
O13   V3    S    
O19   V4    S    
O8    C3    A    
C67   H32   S    
C43   C48   A    
O19   C64   A    
C11   C16   A    
C26   H15   S    
C59   H29   S    
V3    O20   S    
C27   H16   S    
C14   H7    S    
C77   H56   S    
C70   H37   S    
O7    V2    S    
C10   C63   S    
O4    V1    S    
C12   C13   A    
O3    V1    S    
V1    O10   S    
C46   C75   S    
C18   C19   A    
C44   H21   S    
C9    C10   A    
C53   H26   S    
C38   C42   A    
N3    C79   S    
C40   H17   S    
C25   C26   A    
C23   C30   A    
N2    C78   S    
C5    C6    A    
C15   C16   A    
C56   H27   S    
C69   H40   S    
O11   V4    S    
N1    H44   S    
C4    C19   S    
C46   C47   A    
C25   C29   A    
C52   H25   S    
C78   H65   S    
C72   H53   S    
C37   C38   A    
C13   C22   S    
C32   H14   S    
C11   H5    S    
C36   H20   S    
C8    H3    S    
C65   H35   S    
C7    C8    A    
C31   H13   S    
