data_mof_unit_42368.cif
_audit_creation_date              2012-12-10T17:19:01-0500
_audit_creation_method            fapswitch 2.2
_symmetry_space_group_name_H-M    P1
_symmetry_Int_Tables_number       1
_space_group_crystal_system       triclinic
_cell_length_a                    10.314674
_cell_length_b                    10.449964
_cell_length_c                    13.653813
_cell_angle_alpha                 93.347094
_cell_angle_beta                  100.494815
_cell_angle_gamma                 94.102595
_cell_volume                      1439.55713719

loop_
_atom_site_label
_atom_site_type_symbol
_atom_type_description
_atom_site_fract_x
_atom_site_fract_y
_atom_site_fract_z
_atom_type_partial_charge
C1    C     C_R   0.052756 0.734780 0.498582 0.956828
C2    C     C_2   0.042259 0.079306 0.585484 0.100053
C3    C     C_2   0.428385 0.525556 0.486285 0.111412
C4    C     C_2   0.570365 0.483147 0.495791 0.049127
C5    C     C_R   0.096264 0.524810 0.685362 0.906857
C6    C     C_R   0.904864 0.480610 0.313643 0.879854
C7    C     C_R   0.155432 0.563750 0.791017 -0.123618
C8    C     C_R   0.851424 0.460155 0.204687 -0.124214
C9    C     C_R   0.149146 0.637773 0.963428 -0.055041
C10   C     C_R   0.867855 0.400644 0.031290 -0.054157
C11   C     C_R   0.082427 0.601913 0.864410 -0.093198
C12   C     C_R   0.951733 0.266298 0.511175 0.951367
C13   C     C_R   0.928950 0.426034 0.132923 -0.088329
C14   C     C_R   0.293587 0.569902 0.817207 0.038594
C15   C     C_R   0.716231 0.472539 0.172079 0.035780
C16   C     C_R   0.352076 0.566225 0.917385 0.032990
C17   C     C_R   0.668331 0.487232 0.071112 0.040219
C18   C     C_R   0.286501 0.619037 0.991409 0.032370
C19   C     C_R   0.734486 0.430808 0.999064 0.031555
C20   C     C_R   0.477731 0.518206 0.944021 0.067609
C21   C     C_R   0.547292 0.542615 0.041791 0.066905
C22   C     C_1   0.319813 0.729113 0.165580 0.179750
C23   C     C_R   0.495775 0.624413 0.108007 -0.271145
C24   C     C_1   0.705374 0.327278 0.823012 0.175672
C25   C     C_1   0.068876 0.409193 0.162636 0.233655
C26   C     C_1   0.941595 0.614583 0.838109 0.231275
C27   C     C_1   0.072761 0.688048 0.034171 0.176466
C28   C     C_1   0.945582 0.346621 0.962974 0.177133
C29   C     C_1   0.669941 0.663760 0.599421 0.278300
C30   C     C_1   0.330427 0.313933 0.448787 0.354533
C31   C     C_R   0.531068 0.438674 0.877225 -0.268500
C32   C     C_R   0.364730 0.655294 0.087246 -0.004296
C33   C     C_R   0.659984 0.401829 0.900821 0.003520
C34   C     C_2   0.084854 0.872954 0.514744 -0.351876
C35   C     C_2   0.937846 0.132461 0.534013 -0.342703
C36   C     C_2   0.038268 0.939896 0.586272 0.064681
H1    H     H_    0.557764 0.664591 0.177043 0.155176
H2    H     H_    0.172305 0.138062 0.712087 0.182564
H3    H     H_    0.036061 0.909785 0.730546 0.182766
H4    H     H_    0.885551 0.907897 0.657654 0.214376
H5    H     H_    0.621730 0.301726 0.513046 0.213974
H6    H     H_    0.651398 0.361330 0.405233 0.256628
H7    H     H_    0.470894 0.711242 0.456244 0.173919
H8    H     H_    0.420503 0.692969 0.568623 0.199087
H9    H     H_    0.471287 0.400969 0.806755 0.152244
H10   H     H_    0.846042 0.074663 0.503202 0.127751
H11   H     H_    0.138634 0.921600 0.464248 0.149220
H12   H     H_    0.597565 0.515171 0.273882 0.205174
H13   H     H_    0.539203 0.384061 0.193312 0.206700
H14   H     H_    0.452210 0.680158 0.785456 0.202618
H15   H     H_    0.408264 0.543503 0.709603 0.197093
H16   H     H_    0.239995 0.124454 0.608887 0.197290
N1    N     N_2   0.322180 0.446120 0.460900 -0.134259
N2    N     N_1   0.008813 0.303277 0.909506 -0.200071
N3    N     N_3   0.158798 0.156076 0.636525 -0.417432
N4    N     N_3   0.980251 0.877221 0.660650 -0.415636
N5    N     N_3   0.585918 0.357243 0.454384 -0.459044
N6    N     N_3   0.406999 0.659510 0.493729 -0.398149
N7    N     N_1   0.664253 0.755327 0.649898 -0.259918
N8    N     N_1   0.335709 0.203761 0.438401 -0.247254
N9    N     N_2   0.677820 0.553880 0.539100 -0.143312
N10   N     N_1   0.285310 0.788161 0.229062 -0.185739
N11   N     N_1   0.740315 0.267851 0.759914 -0.193909
N12   N     N_3   0.624121 0.435250 0.235097 -0.457345
N13   N     N_3   0.372148 0.618279 0.747797 -0.445943
N14   N     N_1   0.180475 0.395831 0.185855 -0.200116
N15   N     N_1   0.829284 0.625588 0.818097 -0.191483
N16   N     N_1   0.010467 0.728105 0.089641 -0.192437
O1    O     O_R   0.935190 0.693030 0.507870 -0.586663
O2    O     O_R   0.064810 0.306970 0.492130 -0.589580
O3    O     O_R   0.142080 0.658430 0.482770 -0.582853
O4    O     O_R   0.857920 0.341570 0.517230 -0.630944
O5    O     O_R   0.969700 0.527180 0.651960 -0.597846
O6    O     O_R   0.030300 0.472820 0.348040 -0.601608
O7    O     O_R   0.176600 0.492580 0.626860 -0.602410
O8    O     O_R   0.823400 0.507420 0.373140 -0.615213
Zn1   Zn    Zn3+2 0.861850 0.523100 0.516760 0.954254
Zn2   Zn    Zn3+2 0.138150 0.476900 0.483240 0.978909

loop_
_geom_bond_atom_site_label_1
_geom_bond_atom_site_label_2
_ccdc_geom_bond_type
C2    C35   D    
C8    C13   A    
O2    Zn2   S    
O1    Zn1   S    
C7    C11   A    
C1    O3    A    
C22   C32   S    
C26   N15   T    
C2    N3    S    
H12   N12   S    
C10   C28   S    
H15   N13   S    
C27   N16   T    
H7    N6    S    
C7    C14   A    
H2    N3    S    
C29   N7    T    
N9    Zn1   S    
H4    N4    S    
C30   N8    T    
C4    N5    S    
C15   N12   S    
C31   C33   A    
H16   N3    S    
C12   O4    A    
H13   N12   S    
C13   C25   S    
H6    N5    S    
O7    Zn2   S    
C1    C34   S    
C6    O6    A    
C30   N1    S    
C29   N9    S    
O8    Zn1   S    
C19   C33   A    
H8    N6    S    
C5    C7    S    
C28   N2    T    
C6    C8    S    
C11   C26   S    
C23   H1    S    
C4    N9    D    
C17   C21   A    
C5    O7    A    
O4    Zn1   S    
C36   N4    S    
C22   N10   T    
H3    N4    S    
C10   C19   A    
C16   C20   A    
C12   C35   S    
C9    C11   A    
C8    C15   A    
C21   C23   A    
C31   H9    S    
C14   C16   A    
C18   C32   A    
C3    C4    S    
C9    C27   S    
C2    C36   S    
C15   C17   A    
C12   O2    A    
C25   N14   T    
C10   C13   A    
C6    O8    A    
C24   N11   T    
C24   C33   S    
C23   C32   A    
N1    Zn2   S    
H5    N5    S    
C3    N1    D    
C17   C19   A    
C14   N13   S    
C34   C36   D    
C5    O5    A    
H14   N13   S    
C1    O1    A    
C3    N6    S    
C9    C18   A    
C20   C21   A    
C16   C18   A    
O6    Zn2   S    
O5    Zn1   S    
C34   H11   S    
C35   H10   S    
O3    Zn2   S    
C20   C31   A    
