data_mof_unit_10294.cif
_audit_creation_date              2012-12-11T20:00:11-0500
_audit_creation_method            fapswitch 2.2
_symmetry_space_group_name_H-M    P1
_symmetry_Int_Tables_number       1
_space_group_crystal_system       triclinic
_cell_length_a                    8.315073
_cell_length_b                    16.460335
_cell_length_c                    26.952176
_cell_angle_alpha                 71.879758
_cell_angle_beta                  96.397583
_cell_angle_gamma                 95.592423
_cell_volume                      3476.4236485

loop_
_atom_site_label
_atom_site_type_symbol
_atom_type_description
_atom_site_fract_x
_atom_site_fract_y
_atom_site_fract_z
_atom_type_partial_charge
Ba1   Ba    Ba6+2 0.337820 0.939830 0.518500 1.727149
Ba2   Ba    Ba6+2 0.851970 0.060110 0.481480 1.736192
C1    C     C_3   0.044600 0.528327 0.645341 0.243890
C2    C     C_R   0.474327 0.424984 0.195006 0.645919
C3    C     C_2   0.297836 0.288714 0.274443 0.326757
C4    C     C_3   0.595658 0.563352 0.609135 0.763849
C5    C     C_3   0.230972 0.220474 0.322683 -0.134570
C6    C     C_1   0.478935 0.144585 0.336980 -0.020590
C7    C     C_2   0.509816 0.189352 0.287634 0.409258
C8    C     C_2   0.453589 0.280985 0.263788 0.098500
C9    C     C_R   0.610854 0.443543 0.116423 -0.089941
C10   C     C_R   0.698152 0.372026 0.144683 -0.046404
C11   C     C_R   0.818197 0.348168 0.120313 -0.069804
C12   C     C_3   0.066405 0.625368 0.621433 0.327703
C13   C     C_R   0.499667 0.470873 0.142311 -0.099206
C14   C     C_2   0.363734 0.169157 0.358502 -0.405782
C15   C     C_2   0.847971 0.845361 0.636491 -0.226948
C16   C     C_3   0.520723 0.475316 0.608669 0.395568
C17   C     C_R   0.773011 0.502565 0.983596 0.009541
C18   C     C_R   0.591995 0.612209 0.983910 0.028123
C19   C     C_R   0.695351 0.579326 0.957178 0.042867
C20   C     C_R   0.867150 0.469901 0.954414 -0.128333
C21   C     C_R   0.888013 0.512479 0.901777 -0.070064
C22   C     C_R   0.817963 0.590311 0.875795 -0.029977
C23   C     C_3   0.164917 0.079685 0.666324 0.789956
C24   C     C_R   0.722776 0.624245 0.903621 -0.081281
C25   C     C_R   0.655105 0.703152 0.877944 -0.031152
C26   C     C_R   0.682665 0.746902 0.824989 0.586367
C27   C     C_R   0.841343 0.634592 0.822533 0.583388
C28   C     C_3   0.527229 0.900410 0.340555 0.976323
C29   C     C_2   0.963604 0.769367 0.727472 -0.123562
C30   C     C_3   0.000888 0.822883 0.672108 -0.025916
C31   C     C_1   0.719943 0.858567 0.656557 0.027576
C32   C     C_2   0.681847 0.808427 0.703617 -0.158718
C33   C     C_2   0.811555 0.762210 0.743405 0.165882
C34   C     C_3   0.232716 0.102633 0.717285 0.648353
C35   C     C_R   0.753497 0.460869 0.037898 0.034164
C36   C     C_R   0.639400 0.489585 0.063217 0.001030
C37   C     C_R   0.552553 0.563208 0.035773 -0.051109
C38   C     C_R   0.845063 0.391297 0.068160 -0.106815
C39   C     C_R   0.409736 0.540925 0.114495 -0.096542
C40   C     C_3   0.472154 0.943984 0.281077 0.659768
C41   C     C_R   0.537041 0.694800 0.958206 -0.091328
C42   C     C_R   0.565373 0.738395 0.906302 -0.098041
C43   C     C_R   0.426648 0.582985 0.061348 0.392404
C44   C     C_2   0.394430 0.254473 0.499620 -0.289808
C45   C     C_3   0.646329 0.401846 0.368213 0.486150
C46   C     C_R   0.791200 0.759899 0.487986 -0.203834
C47   C     C_2   0.203365 0.330370 0.527792 -0.090790
C48   C     C_2   0.244051 0.257217 0.522560 0.073902
C49   C     C_2   0.496821 0.323920 0.482968 -0.002093
C50   C     C_3   0.445287 0.413163 0.477380 -0.093647
C51   C     C_3   0.295688 0.414979 0.505882 -0.055824
C52   C     C_3   0.577548 0.066248 0.671593 0.642770
C53   C     C_2   0.577414 0.480017 0.484387 0.372643
C54   C     C_2   0.541958 0.564028 0.465828 -0.143843
C55   C     C_R   0.782788 0.647419 0.429310 0.059287
C56   C     C_3   0.712206 0.469887 0.321073 0.317282
C57   C     C_R   0.663333 0.636454 0.463753 -0.030076
C58   C     C_R   0.910886 0.708367 0.427010 -0.127938
C59   C     C_R   0.915288 0.766066 0.455490 0.061969
C60   C     C_R   0.663915 0.695169 0.492700 -0.013703
C61   C     C_3   0.676871 0.077031 0.722297 0.685343
C62   C     C_3   0.098429 0.999883 0.356286 0.359191
C63   C     C_3   0.002242 0.048789 0.305740 0.240040
C64   C     C_3   0.597037 0.989268 0.200910 0.249731
C65   C     C_3   0.235196 0.896656 0.238709 0.068986
C66   C     C_3   0.614861 0.205657 0.613301 0.206966
C67   C     C_3   0.195482 0.383556 0.373172 0.327962
C68   C     C_3   0.754909 0.000455 0.809374 0.223915
C69   C     C_3   0.710291 0.200732 0.749707 0.071743
C70   C     C_3   0.978155 0.399641 0.629296 0.152721
C71   C     C_3   0.011544 0.102930 0.216258 0.099727
C72   C     C_3   0.991165 0.973149 0.714373 0.123331
C73   C     C_3   0.152903 0.222580 0.734898 0.077273
C74   C     C_3   0.314449 0.038004 0.806125 0.239800
C75   C     C_3   0.837547 0.605404 0.292977 0.140948
C76   C     C_3   0.696771 0.636159 0.668492 0.254465
C77   C     C_3   0.441536 0.157702 0.208098 0.223109
C78   C     C_3   0.186816 0.478645 0.365502 -0.321935
C79   C     C_3   0.091171 0.381605 0.240020 0.253229
C80   C     C_3   0.183894 0.594635 0.013157 0.144086
C81   C     C_3   0.859012 0.480756 0.498123 0.229691
C82   C     C_3   0.480716 0.374794 0.689323 0.140843
C83   C     C_3   0.732743 0.833225 0.313180 0.153111
C84   C     C_3   0.315521 0.792519 0.365405 0.233710
C85   C     C_R   0.661699 0.324905 0.196495 0.564240
H1    H     H_    0.175268 0.641748 0.598997 0.093774
H2    H     H_    0.590007 0.346462 0.355629 -0.143954
H3    H     H_    0.797447 0.440571 0.303613 0.039411
H4    H     H_    0.297842 0.375418 0.352359 -0.072409
H5    H     H_    0.215621 0.349966 0.415451 0.020530
H6    H     H_    0.092603 0.488252 0.388916 0.151815
H7    H     H_    0.890529 0.294674 0.141291 0.108557
H8    H     H_    0.941031 0.369354 0.052807 0.056649
H9    H     H_    0.316261 0.559790 0.132899 0.127824
H10   H     H_    0.477671 0.729538 0.977983 0.139653
H11   H     H_    0.518054 0.800966 0.888608 0.111489
H12   H     H_    0.482145 0.014900 0.685057 0.015853
H13   H     H_    0.559144 0.803565 0.714310 0.162568
H14   H     H_    0.383458 0.169991 0.398852 0.089280
H15   H     H_    0.846217 0.855364 0.594667 0.064027
H16   H     H_    0.107062 0.328046 0.552098 0.081531
H17   H     H_    0.428083 0.191768 0.500919 0.059465
H18   H     H_    0.617919 0.432037 0.610482 0.003144
H19   H     H_    0.423779 0.580340 0.445385 0.047756
H20   H     H_    0.619273 0.925753 0.197767 0.046024
H21   H     H_    0.691688 0.035417 0.180363 0.014433
H22   H     H_    0.478833 0.009990 0.179732 0.005310
H23   H     H_    0.228953 0.007661 0.350143 -0.029306
H24   H     H_    0.227734 0.959901 0.208242 0.068443
H25   H     H_    0.158175 0.892512 0.270526 0.107095
H26   H     H_    0.185876 0.847013 0.220144 0.061759
H27   H     H_    0.387691 0.992365 0.281006 -0.030504
H28   H     H_    0.636038 0.190098 0.577503 0.091770
H29   H     H_    0.733299 0.211657 0.635689 0.021545
H30   H     H_    0.561642 0.268824 0.601186 0.038914
H31   H     H_    0.675318 0.028408 0.829337 0.044882
H32   H     H_    0.874404 0.037214 0.805404 -0.000308
H33   H     H_    0.777658 0.934942 0.835226 0.076284
H34   H     H_    0.872220 0.027492 0.307437 0.133343
H35   H     H_    0.812132 0.175227 0.778824 0.052588
H36   H     H_    0.644700 0.240083 0.766493 0.050445
H37   H     H_    0.756360 0.243151 0.712703 0.025400
H38   H     H_    0.802650 0.100425 0.712238 0.046921
H39   H     H_    0.081069 0.030808 0.386181 0.000968
H40   H     H_    0.936777 0.376400 0.669547 -0.013780
H41   H     H_    0.101087 0.379114 0.629123 0.080802
H42   H     H_    0.892971 0.368493 0.605062 0.099148
H43   H     H_    0.029044 0.084400 0.181133 0.029178
H44   H     H_    0.087321 0.162907 0.214712 0.081660
H45   H     H_    0.958319 0.649764 0.594777 -0.024350
H46   H     H_    0.881847 0.115652 0.214589 0.124030
H47   H     H_    0.011216 0.117059 0.303203 0.020056
H48   H     H_    0.995585 0.990971 0.750583 0.112264
H49   H     H_    0.089205 0.929510 0.719399 0.021954
H50   H     H_    0.871779 0.940083 0.712475 0.076701
H51   H     H_    0.259016 0.224924 0.763459 0.026647
H52   H     H_    0.051505 0.249379 0.746568 0.054593
H53   H     H_    0.179718 0.263252 0.695071 0.050253
H54   H     H_    0.196631 0.036867 0.822223 0.031176
H55   H     H_    0.389687 0.097404 0.806454 0.057193
H56   H     H_    0.961779 0.513677 0.677201 0.094243
H57   H     H_    0.379427 0.982935 0.832590 0.058104
H58   H     H_    0.448056 0.483610 0.570985 -0.001378
H59   H     H_    0.553394 0.431293 0.382328 -0.111027
H60   H     H_    0.607883 0.492210 0.291863 0.013932
H61   H     H_    0.728883 0.635762 0.269178 0.046665
H62   H     H_    0.911600 0.582987 0.268441 0.015793
H63   H     H_    0.913167 0.655031 0.306533 0.050093
H64   H     H_    0.305409 0.506079 0.378255 0.052213
H65   H     H_    0.748697 0.684198 0.634196 -0.059876
H66   H     H_    0.787363 0.628561 0.702554 0.118865
H67   H     H_    0.237788 0.033774 0.657644 -0.109979
H68   H     H_    0.585632 0.659185 0.677530 0.086998
H69   H     H_    0.156909 0.513117 0.323487 0.113173
H70   H     H_    0.371744 0.215525 0.195881 0.008166
H71   H     H_    0.516823 0.163048 0.175622 0.049402
H72   H     H_    0.351098 0.103256 0.210565 0.033521
H73   H     H_    0.063924 0.742299 0.755129 0.127046
H74   H     H_    0.960955 0.484081 0.881479 0.118478
H75   H     H_    0.923343 0.409927 0.970860 0.064716
H76   H     H_    0.154141 0.420056 0.264522 0.070892
H77   H     H_    0.979400 0.347815 0.256721 0.100274
H78   H     H_    0.337470 0.149320 0.706879 0.080530
H79   H     H_    0.052933 0.427619 0.201649 0.045706
H80   H     H_    0.696495 0.580464 0.583198 -0.135244
H81   H     H_    0.123435 0.543371 0.044288 0.038212
H82   H     H_    0.227301 0.567031 0.984618 0.039953
H83   H     H_    0.091375 0.640075 0.991609 0.077080
H84   H     H_    0.001703 0.712425 0.400758 0.025339
H85   H     H_    0.791123 0.807350 0.508155 0.053021
H86   H     H_    0.911000 0.538904 0.507971 0.072679
H87   H     H_    0.852439 0.488826 0.455430 0.060694
H88   H     H_    0.947848 0.433184 0.516982 0.088989
H89   H     H_    0.164838 0.504398 0.663114 0.098182
H90   H     H_    0.607741 0.391322 0.702671 0.071110
H91   H     H_    0.474838 0.316492 0.676538 0.046471
H92   H     H_    0.408151 0.360780 0.723431 0.053447
H93   H     H_    0.814204 0.780469 0.329007 0.036706
H94   H     H_    0.673309 0.823926 0.276363 0.075476
H95   H     H_    0.809898 0.893317 0.306196 0.108189
H96   H     H_    0.359379 0.766838 0.336249 0.069010
H97   H     H_    0.184416 0.797320 0.354708 0.025841
H98   H     H_    0.335874 0.743568 0.403919 0.084486
N1    N     N_R   0.530978 0.343833 0.218341 -0.413533
N2    N     N_R   0.777062 0.713542 0.797539 -0.419510
O1    O     O_2   0.431310 0.922990 0.623550 -0.498096
O2    O     O_2   0.823246 0.298531 0.507930 -0.490236
O3    O     O_3   0.773081 0.375652 0.407405 -0.565016
O4    O     O_3   0.663280 0.983100 0.563360 -0.449311
O5    O     O_3   0.016420 0.932050 0.462720 -0.486850
O6    O     O_2   0.959730 0.164640 0.549160 -0.413118
O7    O     O_3   0.174261 0.157629 0.626266 -0.669370
O8    O     O_2   0.895775 0.221970 0.334066 -0.444001
O9    O     O_3   0.048567 0.351939 0.353289 -0.585924
O10   O     O_2   0.748022 0.267957 0.221909 -0.572636
O11   O     O_2   0.917798 0.602000 0.798368 -0.602489
O12   O     O_3   0.046792 0.912149 0.369598 -0.642361
O13   O     O_2   0.405501 0.458593 0.220345 -0.631085
O14   O     O_2   0.623219 0.815369 0.803616 -0.581608
O15   O     O_3   0.126250 0.812630 0.574830 -0.495055
O16   O     O_2   0.311504 0.775707 0.664716 -0.474729
O17   O     O_3   0.676580 0.044071 0.639539 -0.646032
O18   O     O_3   0.084571 0.659291 0.663433 -0.636368
O19   O     O_2   0.229950 0.835370 0.450810 -0.423203
O20   O     O_3   0.517580 0.797570 0.545130 -0.459633
O21   O     O_2   0.329976 0.694501 0.502186 -0.499960
O22   O     O_3   0.608350 0.988097 0.254019 -0.671596
O23   O     O_3   0.471369 0.621365 0.593738 -0.632821
O24   O     O_3   0.396787 0.880004 0.258802 -0.703673
O25   O     O_3   0.503902 0.143113 0.642518 -0.728525
O26   O     O_3   0.678265 0.995360 0.760763 -0.648154
O27   O     O_3   0.601111 0.134646 0.740667 -0.676899
O28   O     O_3   0.977909 0.489456 0.607289 -0.665881
O29   O     O_3   0.060067 0.036505 0.261564 -0.687708
O30   O     O_3   0.002485 0.045810 0.669552 -0.657504
O31   O     O_3   0.108066 0.137554 0.735225 -0.682147
O32   O     O_3   0.289801 0.027861 0.755662 -0.686058
O33   O     O_3   0.791932 0.538330 0.337255 -0.641706
O34   O     O_2   0.758370 0.077020 0.376420 -0.446028
O35   O     O_3   0.661111 0.555472 0.660970 -0.672786
O36   O     O_3   0.544256 0.142384 0.255613 -0.609414
O37   O     O_3   0.190912 0.324111 0.231033 -0.649564
O38   O     O_3   0.311344 0.639683 0.034816 -0.661413
O39   O     O_3   0.709835 0.452486 0.520299 -0.671088
O40   O     O_3   0.413987 0.442841 0.648707 -0.647721
O41   O     O_3   0.617296 0.825997 0.349234 -0.677704
O42   O     O_3   0.386767 0.873879 0.368154 -0.680565
O43   O     O_3   0.526390 0.016840 0.436620 -0.472784
O44   O     O_3   0.063420 0.187310 0.425160 -0.471950
O45   O     O_3   0.631298 0.956274 0.363162 -0.624052
O46   O     O_3   0.173250 0.067890 0.537260 -0.484363
O47   O     O_3   0.672100 0.202370 0.454860 -0.470089
P1    P     P_3+3 0.610630 0.953360 0.619150 1.032770
P2    P     P_3+3 0.057260 0.861390 0.437850 1.032012
P3    P     P_3+3 0.497729 0.698496 0.532690 0.944863
P4    P     P_3+3 0.579040 0.046590 0.380840 1.052008
P5    P     P_3+3 0.690566 0.303835 0.462595 0.987195
P6    P     P_3+3 0.132720 0.769540 0.642934 0.984066
P7    P     P_3+3 0.146614 0.155475 0.560940 1.020805
P8    P     P_3+3 0.064749 0.244523 0.358526 0.962799

loop_
_geom_bond_atom_site_label_1
_geom_bond_atom_site_label_2
_ccdc_geom_bond_type
C78   H64   S    
O45   P4    S    
C53   C54   D    
C71   H44   S    
C83   H95   S    
O7    P7    S    
C81   H88   S    
O18   P6    S    
C79   H76   S    
C69   H35   S    
C23   O30   S    
C64   H20   S    
C19   C24   A    
C16   H58   S    
C77   H71   S    
C80   H83   S    
C76   H65   S    
C70   H42   S    
C80   H81   S    
C10   C11   A    
C24   C25   A    
C60   P3    S    
C70   H41   S    
C1    H89   S    
C26   O14   D    
C28   O42   S    
C69   H36   S    
C17   C19   A    
C22   C24   A    
Ba1   Ba2   S    
O17   P1    S    
C73   H53   S    
C77   H72   S    
C36   C37   A    
C20   H75   S    
C47   C51   S    
C76   H68   S    
C55   C57   A    
C39   H9    S    
C15   H15   S    
C52   C61   S    
C74   O32   S    
O4    P1    S    
C45   O3    S    
C72   O30   S    
O19   P2    D    
C32   C33   S    
C28   O45   S    
C74   H55   S    
C22   C27   A    
C11   C38   A    
C17   C35   A    
C46   H85   S    
C9    C13   A    
Ba1   O43   S    
Ba2   O47   S    
C68   H33   S    
C6    C7    D    
C72   H49   S    
C32   H13   S    
C79   H79   S    
C71   O29   S    
C65   O24   S    
C63   H34   S    
C67   H5    S    
C7    C8    S    
C29   H73   S    
C31   P1    S    
C50   C53   S    
C37   C43   A    
C64   H21   S    
C74   H54   S    
C48   P7    S    
C52   O25   S    
C70   O28   S    
C45   H59   S    
C67   H4    S    
C6    C14   D    
C84   H97   S    
C45   H2    S    
C15   C31   D    
C2    N1    Am   
Ba1   O15   S    
C25   C42   A    
C34   O32   S    
C72   H50   S    
C40   H27   S    
C78   H69   S    
C85   N1    Am   
C4    C16   S    
C80   O38   S    
C70   H40   S    
C49   C50   S    
O23   P3    S    
C28   O41   S    
C69   H37   S    
O44   P8    S    
C1    H56   S    
Ba2   O4    S    
C13   C39   A    
C63   O29   S    
C26   N2    Am   
Ba1   O46   S    
C3    C5    S    
C18   C37   A    
O20   P3    S    
C56   H60   S    
Ba2   P4    S    
C55   C58   A    
C12   H45   S    
C30   P6    S    
C73   O31   S    
C44   H17   S    
C44   C49   D    
Ba2   O34   S    
C27   N2    Am   
O9    P8    S    
C58   C59   A    
C58   H84   S    
C75   H63   S    
C82   H92   S    
C41   C42   A    
C77   H70   S    
C35   C36   A    
C66   H30   S    
C56   H3    S    
C7    O36   S    
Ba2   O46   S    
C62   H23   S    
C29   C30   S    
C2    O13   D    
C68   H32   S    
C21   C22   A    
C72   H48   S    
C17   C20   A    
C31   C32   D    
C65   H25   S    
C75   O33   S    
C83   O41   S    
C43   O38   S    
C61   O26   S    
C64   O22   S    
C82   H91   S    
Ba1   O19   S    
C1    C12   S    
C75   H61   S    
C54   H19   S    
O16   P6    D    
C61   H38   S    
C40   O22   S    
C23   C34   S    
Ba2   O44   S    
C76   O35   S    
Ba1   O4    S    
C65   H24   S    
C5    C14   S    
O8    P8    D    
C66   H29   S    
C27   O11   D    
C62   H39   S    
C81   H86   S    
C84   H96   S    
C79   H77   S    
C29   C33   D    
C52   H12   S    
C12   O18   S    
C85   O10   D    
C38   H8    S    
C34   O31   S    
O2    P5    D    
C74   H57   S    
C46   C60   A    
C18   C41   A    
C50   C51   S    
C53   O39   S    
C81   H87   S    
Ba1   O1    S    
O46   P7    S    
C59   P2    S    
C79   O37   S    
C71   H43   S    
C57   C60   A    
C83   H94   S    
C10   C85   A    
C23   H67   S    
C68   O26   S    
O6    P7    D    
Ba1   O20   S    
O3    P5    S    
C41   H10   S    
Ba2   O5    S    
C67   C78   S    
C73   H51   S    
O21   P3    D    
C47   H16   S    
C9    C10   A    
C76   H66   S    
C75   H62   S    
C4    O23   S    
C6    P4    S    
C35   C38   A    
C69   O27   S    
C44   C48   S    
C56   O33   S    
O5    P2    S    
C54   C57   S    
C11   H7    S    
Ba2   O6    S    
C62   C63   S    
C2    C13   A    
C65   H26   S    
C16   H18   S    
C12   H1    S    
C3    C8    D    
C73   H52   S    
O12   P2    S    
C45   C56   S    
O15   P6    S    
C84   O42   S    
C46   C59   A    
Ba1   P1    S    
C83   H93   S    
C52   O17   S    
C5    P8    S    
C34   H78   S    
C8    N1    S    
C61   O27   S    
C63   H47   S    
O47   P5    S    
C67   O9    S    
C64   H22   S    
C82   H90   S    
C77   O36   S    
C80   H82   S    
O43   P4    S    
C16   O40   S    
Ba2   O43   S    
C66   H28   S    
C42   H11   S    
Ba1   O5    S    
C14   H14   S    
C68   H31   S    
C3    O37   S    
C18   C19   A    
C84   H98   S    
C33   N2    S    
C47   C48   D    
C71   H46   S    
C62   O12   S    
C25   C26   A    
C23   O7    S    
C15   C30   S    
C39   C43   A    
C20   C21   A    
C28   C40   S    
C9    C36   A    
C49   P5    S    
Ba1   P2    S    
C21   H74   S    
C78   H6    S    
C4    H80   S    
C82   O40   S    
C1    O28   S    
O34   P4    D    
C40   O24   S    
O1    P1    D    
C4    O35   S    
C81   O39   S    
C66   O25   S    
