data_mof_unit_24543.cif
_audit_creation_date              2013-03-05T15:41:13-0500
_audit_creation_method            fapswitch 2.2
_symmetry_space_group_name_H-M    P1
_symmetry_Int_Tables_number       1
_space_group_crystal_system       triclinic
_cell_length_a                    16.821214
_cell_length_b                    16.739874
_cell_length_c                    16.860186
_cell_angle_alpha                 67.508092
_cell_angle_beta                  67.738158
_cell_angle_gamma                 67.796606
_cell_volume                      3905.90892285

loop_
_atom_site_label
_atom_site_type_symbol
_atom_site_description
_atom_site_fract_x
_atom_site_fract_y
_atom_site_fract_z
_atom_type_partial_charge
O1    O     O_R   0.124540 0.978640 0.385460 -0.543697
O2    O     O_R   0.875460 0.021360 0.614540 -0.560893
O3    O     O_R   0.978640 0.385460 0.124540 -0.592390
O4    O     O_R   0.021360 0.614540 0.875460 -0.572685
O5    O     O_R   0.385460 0.124540 0.978640 -0.590021
O6    O     O_R   0.614540 0.875460 0.021360 -0.572921
O7    O     O_R   0.614540 0.021360 0.875460 -0.594257
O8    O     O_R   0.385460 0.978640 0.124540 -0.575505
O9    O     O_R   0.875460 0.614540 0.021360 -0.591390
O10   O     O_R   0.124540 0.385460 0.978640 -0.581107
O11   O     O_R   0.021360 0.875460 0.614540 -0.593021
O12   O     O_R   0.978640 0.124540 0.385460 -0.577907
C1    C     C_R   0.311393 0.003059 0.434809 -0.022401
C2    C     C_R   0.679267 0.039570 0.548561 -0.032578
C3    C     C_R   0.021815 0.428429 0.305337 -0.023948
C4    C     C_R   0.052528 0.544040 0.677511 -0.006088
C5    C     C_R   0.434408 0.311727 0.002343 -0.017360
C6    C     C_R   0.547902 0.678762 0.041530 -0.003534
C7    C     C_R   0.562268 0.001634 0.687630 -0.022133
C8    C     C_R   0.451253 0.962875 0.320057 0.003157
C9    C     C_R   0.687077 0.562356 0.002588 -0.019658
C10   C     C_R   0.320193 0.452533 0.960811 0.005902
C11   C     C_R   0.067205 0.671469 0.543210 -0.026355
C12   C     C_R   0.967412 0.322540 0.447869 0.006470
Cu1   Cu    Cu3+1 0.995180 0.995180 0.424630 1.103506
Cu2   Cu    Cu3+1 0.004820 0.004820 0.575370 1.109007
Cu3   Cu    Cu3+1 0.995180 0.424630 0.995180 1.110607
Cu4   Cu    Cu3+1 0.004820 0.575370 0.004820 1.121479
Cu5   Cu    Cu3+1 0.424630 0.995180 0.995180 1.105912
Cu6   Cu    Cu3+1 0.575370 0.004820 0.004820 1.101591
C13   C     C_R   0.030106 0.827948 0.564015 0.819649
C14   C     C_R   0.973022 0.171905 0.434966 0.881353
C15   C     C_R   0.830426 0.568751 0.016817 0.827822
C16   C     C_R   0.171548 0.435526 0.971822 0.890976
C17   C     C_R   0.568717 0.016628 0.830569 0.825990
C18   C     C_R   0.435003 0.972959 0.171440 0.883502
C19   C     C_R   0.431157 0.169474 0.983326 0.827418
C20   C     C_R   0.564908 0.828576 0.027186 0.878802
C21   C     C_R   0.987997 0.429781 0.168014 0.834964
C22   C     C_R   0.026998 0.565215 0.828541 0.865898
C23   C     C_R   0.169332 0.983690 0.431117 0.862670
C24   C     C_R   0.828740 0.026421 0.565179 0.840965
O13   O     O_R   0.013780 0.867370 0.487190 -0.554899
O14   O     O_R   0.986220 0.132630 0.512810 -0.517388
O15   O     O_R   0.867370 0.487190 0.013780 -0.560395
O16   O     O_R   0.132630 0.512810 0.986220 -0.507061
O17   O     O_R   0.487190 0.013780 0.867370 -0.563319
O18   O     O_R   0.512810 0.986220 0.132630 -0.523809
O19   O     O_R   0.512810 0.132630 0.986220 -0.572125
O20   O     O_R   0.487190 0.867370 0.013780 -0.538035
O21   O     O_R   0.986220 0.512810 0.132630 -0.553829
O22   O     O_R   0.013780 0.487190 0.867370 -0.534661
O23   O     O_R   0.132630 0.986220 0.512810 -0.575916
O24   O     O_R   0.867370 0.013780 0.487190 -0.582247
C25   C     C_R   0.405402 0.986534 0.401108 0.004133
C26   C     C_R   0.596711 0.018191 0.593724 -0.005290
C27   C     C_R   0.000846 0.399209 0.399807 -0.003608
C28   C     C_R   0.054191 0.584566 0.586643 -0.013057
C29   C     C_R   0.400964 0.406223 0.985211 0.003900
C30   C     C_R   0.593080 0.596577 0.019489 0.000390
H1    H     H_    0.271259 0.962861 0.271400 0.208504
H2    H     H_    0.729806 0.034102 0.729339 0.196953
H3    H     H_    0.960284 0.273044 0.272520 0.198453
H4    H     H_    0.029556 0.731024 0.730022 0.191360
H5    H     H_    0.271535 0.271592 0.960929 0.197092
H6    H     H_    0.729207 0.729844 0.035391 0.197090
C31   C     C_R   0.264198 0.985667 0.391108 -0.083011
C32   C     C_R   0.731089 0.036726 0.600532 -0.051651
C33   C     C_R   0.994453 0.388782 0.261329 -0.083765
C34   C     C_R   0.044734 0.598109 0.729797 -0.043985
C35   C     C_R   0.390995 0.264552 0.984668 -0.081813
C36   C     C_R   0.600097 0.730698 0.038394 -0.036366
C37   C     C_R   0.607888 0.015697 0.735536 -0.081814
C38   C     C_R   0.399633 0.963395 0.268922 -0.043595
C39   C     C_R   0.735216 0.607879 0.016564 -0.085336
C40   C     C_R   0.269124 0.400602 0.961226 -0.027237
C41   C     C_R   0.050565 0.727728 0.597292 -0.071459
C42   C     C_R   0.965451 0.270177 0.398542 -0.037181
C43   C     C_R   0.483776 0.970562 0.729720 0.285544
C44   C     C_R   0.546770 0.941807 0.292352 0.320129
C45   C     C_R   0.099571 0.695868 0.448153 0.286182
C46   C     C_R   0.939622 0.299565 0.542982 0.317689
C47   C     C_R   0.729058 0.483962 0.971628 0.292522
C48   C     C_R   0.292109 0.548579 0.940387 0.334029
C49   C     C_R   0.268327 0.037011 0.511010 0.286409
C50   C     C_R   0.707807 0.060337 0.453190 0.276561
C51   C     C_R   0.510314 0.268089 0.036880 0.286127
C52   C     C_R   0.452393 0.707123 0.062676 0.303186
C53   C     C_R   0.071953 0.493364 0.258980 0.309859
C54   C     C_R   0.059893 0.450109 0.711523 0.318076
C55   C     C_R   0.308725 0.968801 0.307901 -0.176128
C56   C     C_R   0.692302 0.030455 0.691462 -0.223595
C57   C     C_R   0.971154 0.308303 0.308003 -0.224856
C58   C     C_R   0.041914 0.688933 0.688926 -0.215709
C59   C     C_R   0.308045 0.309279 0.966918 -0.214216
C60   C     C_R   0.691182 0.692145 0.031845 -0.223799
H7    H     H_    0.301769 0.992943 0.785121 0.188533
H8    H     H_    0.716044 0.969196 0.223883 0.201190
H9    H     H_    0.162955 0.715187 0.267755 0.227551
H10   H     H_    0.938394 0.243031 0.720353 0.199185
H11   H     H_    0.784922 0.301125 0.993001 0.188278
H12   H     H_    0.221927 0.717063 0.971371 0.202835
H13   H     H_    0.209994 0.018946 0.691871 0.187616
H14   H     H_    0.784448 0.016736 0.292765 0.187783
H15   H     H_    0.691246 0.208845 0.019154 0.184516
H16   H     H_    0.290386 0.784268 0.020957 0.201903
H17   H     H_    0.152649 0.632032 0.189977 0.203773
H18   H     H_    0.991682 0.304530 0.790051 0.206384
C61   C     C_R   0.672350 0.028017 0.410910 -0.001351
C62   C     C_R   0.318608 0.018597 0.569678 -0.000449
C63   C     C_R   0.025588 0.413062 0.673048 0.017305
C64   C     C_R   0.079894 0.544011 0.305205 -0.000810
C65   C     C_R   0.409739 0.672327 0.030031 0.030577
C66   C     C_R   0.569220 0.318315 0.018490 -0.001916
C67   C     C_R   0.590078 0.972326 0.328599 0.024184
C68   C     C_R   0.425499 0.991024 0.678218 -0.002670
C69   C     C_R   0.327878 0.591451 0.972019 0.022125
C70   C     C_R   0.677757 0.425376 0.991597 -0.003380
C71   C     C_R   0.967444 0.336756 0.587626 0.017258
C72   C     C_R   0.095179 0.644612 0.399865 -0.011121
C73   C     C_R   0.716971 0.011712 0.326824 -0.141310
C74   C     C_R   0.280178 0.014437 0.660807 -0.120093
C75   C     C_R   0.995062 0.335962 0.720111 -0.072557
C76   C     C_R   0.122972 0.613465 0.260818 -0.148831
C77   C     C_R   0.325074 0.717099 0.014487 -0.110729
C78   C     C_R   0.660386 0.279443 0.014512 -0.125715
C79   C     C_R   0.677973 0.980786 0.288058 -0.099173
C80   C     C_R   0.333794 0.996722 0.715315 -0.121333
C81   C     C_R   0.286532 0.678930 0.982329 -0.131567
C82   C     C_R   0.715018 0.333317 0.996881 -0.130522
C83   C     C_R   0.962514 0.301044 0.679356 -0.121005
C84   C     C_R   0.129177 0.663304 0.306825 -0.136050
C85   C     C_R   0.544005 0.993267 0.410257 0.022989
C86   C     C_R   0.461680 0.003117 0.586012 0.028912
C87   C     C_R   0.001741 0.412165 0.539099 0.028913
C88   C     C_R   0.060622 0.569144 0.445959 0.030228
C89   C     C_R   0.409682 0.544910 0.993003 0.017333
C90   C     C_R   0.585532 0.461751 0.003431 0.030086
C91   C     C_R   0.588603 0.010985 0.455217 0.026700
C92   C     C_R   0.411135 0.005518 0.534770 0.029810
C93   C     C_R   0.454412 0.589018 0.011753 0.023137
C94   C     C_R   0.534373 0.411304 0.005293 0.029511
C95   C     C_R   0.022854 0.454603 0.583933 0.017472
C96   C     C_R   0.049853 0.520832 0.398932 0.023763
C97   C     C_R   0.453523 0.995314 0.448442 -0.032857
C98   C     C_R   0.548969 0.011137 0.544867 -0.035103
C99   C     C_R   0.015673 0.445122 0.446041 -0.031346
C100  C     C_R   0.045826 0.536323 0.538593 -0.035489
C101  C     C_R   0.448109 0.454223 0.994565 -0.034612
C102  C     C_R   0.544217 0.549108 0.011899 -0.033115
N1    N     N_R   0.480335 0.896468 0.810291 0.142964
O25   O     O_R   0.554273 0.839713 0.826913 -0.382942
O26   O     O_R   0.405173 0.879721 0.862743 -0.392753
N2    N     N_R   0.597419 0.872533 0.247105 0.120154
O27   O     O_R   0.566561 0.804878 0.266193 -0.327308
O28   O     O_R   0.671842 0.877410 0.184912 -0.365866
N3    N     N_R   0.149993 0.761336 0.402868 0.131169
O29   O     O_R   0.130648 0.827765 0.334720 -0.344203
O30   O     O_R   0.212057 0.757682 0.433404 -0.331528
N4    N     N_R   0.869754 0.254567 0.591202 0.113437
O31   O     O_R   0.801848 0.278051 0.559995 -0.328130
O32   O     O_R   0.876645 0.185561 0.660901 -0.360746
N5    N     N_R   0.809205 0.481146 0.898157 0.141372
O33   O     O_R   0.824245 0.555607 0.839949 -0.384385
O34   O     O_R   0.865080 0.405358 0.885907 -0.406175
N6    N     N_R   0.245695 0.600295 0.872127 0.124472
O35   O     O_R   0.263059 0.569762 0.805297 -0.337200
O36   O     O_R   0.184760 0.675834 0.876604 -0.358170
N7    N     N_R   0.187703 0.110669 0.511723 0.140757
O37   O     O_R   0.171185 0.163702 0.436437 -0.378178
O38   O     O_R   0.136875 0.132672 0.584672 -0.375265
N8    N     N_R   0.753003 0.130437 0.401685 0.146671
O39   O     O_R   0.744990 0.190365 0.437736 -0.324869
O40   O     O_R   0.792001 0.142703 0.316624 -0.367573
N9    N     N_R   0.510521 0.187183 0.110671 0.144017
O41   O     O_R   0.435007 0.170943 0.163091 -0.372110
O42   O     O_R   0.583348 0.135951 0.133258 -0.383959
N10   N     N_R   0.401414 0.752126 0.132276 0.133528
O43   O     O_R   0.438811 0.745557 0.190277 -0.321448
O44   O     O_R   0.315619 0.787681 0.147137 -0.361808
N11   N     N_R   0.129892 0.493865 0.171053 0.105775
O45   O     O_R   0.186878 0.419402 0.155997 -0.388073
O46   O     O_R   0.129262 0.568681 0.107417 -0.391518
N12   N     N_R   0.123757 0.391829 0.762250 0.139222
O47   O     O_R   0.185917 0.421222 0.760793 -0.340196
O48   O     O_R   0.129313 0.306659 0.798626 -0.366693

loop_
_geom_bond_atom_site_label_1
_geom_bond_atom_site_label_2
_geom_bond_distance
_ccdc_geom_bond_type
C7    C26   1.417682 A    
O10   Cu3   1.960718 S    
C11   C28   1.415850 A    
C2    C26   1.415032 A    
C91   C98   1.402594 A    
C4    C54   1.425950 A    
N3    O29   1.301877 A    
O5    C19   1.300529 A    
C15   O15   1.281034 A    
N7    O37   1.301980 A    
C21   O21   1.279182 A    
N5    O33   1.301966 A    
H12   C81   1.077119 S    
C10   C40   1.431402 A    
C17   O17   1.284530 A    
Cu1   O13   1.950766 S    
N10   O43   1.302179 A    
H10   C83   1.075750 S    
Cu2   O14   1.950765 S    
C62   C92   1.401335 A    
C23   C31   1.486552 S    
N11   O45   1.300665 A    
C90   C102  1.399389 A    
N5    O34   1.299140 A    
C53   C64   1.419182 A    
Cu4   O16   1.963670 S    
C13   O13   1.291211 A    
H9    C84   1.078288 S    
Cu5   O17   1.965724 S    
C50   N8    1.450344 S    
O8    Cu5   1.963344 S    
C46   C71   1.420853 A    
C47   C70   1.409516 A    
Cu6   O18   1.965722 S    
C34   C58   1.399051 A    
C64   C76   1.413159 A    
C33   C57   1.393588 A    
C96   C99   1.414988 A    
C40   C59   1.397777 A    
C86   C92   1.405373 A    
N8    O39   1.302401 A    
C66   C78   1.407439 A    
Cu4   O21   1.961730 S    
C28   C100  1.414609 A    
C25   C97   1.408136 A    
C35   C59   1.397301 A    
C78   C82   1.400185 A    
C42   C57   1.391643 A    
C41   C58   1.401168 A    
C67   C79   1.411285 A    
N12   O47   1.302350 A    
C76   C84   1.389593 A    
O8    C18   1.307938 A    
C52   C65   1.420350 A    
C12   C46   1.426210 A    
C51   C66   1.407923 A    
C89   C93   1.410651 A    
C32   C56   1.399231 A    
C15   C39   1.484659 S    
O4    C22   1.303938 A    
C65   C93   1.402076 A    
C48   C69   1.422609 A    
H2    C56   1.083386 S    
C93   C102  1.402551 A    
C71   C83   1.410338 A    
N1    O25   1.302043 A    
O6    C20   1.302573 A    
C16   O16   1.281005 A    
C69   C81   1.411302 A    
N2    O28   1.300212 A    
C63   C95   1.404277 A    
H11   C82   1.080331 S    
Cu3   O15   1.963671 S    
C87   C95   1.416723 A    
O11   C13   1.309523 A    
N3    O30   1.301395 A    
O7    Cu6   1.963346 S    
C72   C84   1.402027 A    
C43   C68   1.412751 A    
O12   C14   1.313113 A    
N1    O26   1.300080 A    
O1    Cu1   1.960476 S    
N7    O38   1.300477 A    
C89   C101  1.401349 A    
H17   C76   1.074177 S    
H7    C80   1.080636 S    
C3    C33   1.438480 A    
O4    Cu4   1.961681 S    
N8    O40   1.301129 A    
C39   C60   1.395929 A    
C13   C41   1.495853 S    
O5    Cu5   1.949353 S    
Cu5   O20   1.954060 S    
N11   O46   1.300109 A    
C48   N6    1.446092 S    
C6    C36   1.426909 A    
C95   C100  1.407369 A    
C86   C98   1.400412 A    
C20   C36   1.478351 S    
C45   N3    1.440493 S    
C8    C44   1.432905 A    
H6    C60   1.083453 S    
C63   C75   1.402732 A    
O10   C16   1.303536 A    
C9    C47   1.427476 A    
C7    C37   1.431198 A    
N6    O36   1.300044 A    
C4    C34   1.430657 A    
Cu1   O24   1.964388 S    
C2    C50   1.431940 A    
C9    C30   1.417141 A    
N9    O42   1.300305 A    
C49   C62   1.411529 A    
C90   C94   1.401134 A    
C10   C29   1.414075 A    
O3    C21   1.305461 A    
C12   C27   1.422893 A    
C4    C28   1.412383 A    
H14   C73   1.080044 S    
C67   C85   1.405155 A    
O11   Cu2   1.947434 S    
Cu1   Cu2   2.675331 S    
C22   O22   1.280220 A    
C49   N7    1.447375 S    
C72   C88   1.414008 A    
C10   C48   1.432609 A    
C38   C55   1.399266 A    
O3    Cu3   1.961680 S    
Cu5   Cu6   2.668982 S    
C70   C82   1.408157 A    
C3    C53   1.430788 A    
C19   O19   1.287164 A    
C85   C97   1.402576 A    
N9    O41   1.301961 A    
C45   C72   1.425637 A    
C44   C67   1.422218 A    
C50   C61   1.420465 A    
C31   C55   1.398528 A    
C14   O14   1.286215 A    
C8    C38   1.432848 A    
O2    Cu2   1.960476 S    
C30   C102  1.405171 A    
C11   C41   1.435660 A    
C7    C43   1.429734 A    
C85   C91   1.412942 A    
C23   O23   1.288660 A    
N2    O27   1.301747 A    
C88   C100  1.398351 A    
C22   C34   1.486722 S    
O9    C15   1.301902 A    
H15   C78   1.081024 S    
C12   C42   1.435781 A    
H8    C79   1.077124 S    
O6    Cu6   1.949353 S    
Cu6   O19   1.954061 S    
C5    C29   1.415317 A    
C5    C35   1.423558 A    
C87   C99   1.406358 A    
C27   C99   1.418143 A    
N6    O35   1.301781 A    
C29   C101  1.404550 A    
H18   C75   1.080608 S    
Cu2   O23   1.964388 S    
C66   C94   1.400143 A    
Cu3   O22   1.961731 S    
C94   C101  1.402133 A    
C43   N1    1.446604 S    
C1    C31   1.428251 A    
O1    C23   1.305676 A    
C47   N5    1.444144 S    
C17   C37   1.487660 S    
C11   C45   1.427562 A    
C75   C83   1.395634 A    
C5    C51   1.426863 A    
O7    C17   1.306630 A    
N4    O32   1.300831 A    
C69   C89   1.404764 A    
C53   N11   1.431632 S    
C37   C56   1.398089 A    
C54   N12   1.450170 S    
C92   C97   1.402826 A    
C54   C63   1.414316 A    
N10   O44   1.300278 A    
C73   C79   1.402134 A    
C44   N2    1.445773 S    
C20   O20   1.285231 A    
C51   N9    1.446601 S    
C9    C39   1.428392 A    
O12   Cu1   1.947434 S    
C61   C91   1.402535 A    
N4    O31   1.301486 A    
C64   C96   1.406116 A    
C19   C35   1.481019 S    
H4    C58   1.083259 S    
C88   C96   1.423273 A    
C62   C74   1.408189 A    
C61   C73   1.408088 A    
O2    C24   1.307179 A    
C3    C27   1.417486 A    
C65   C77   1.408706 A    
H16   C77   1.079998 S    
C21   C33   1.484964 S    
N12   O48   1.300503 A    
C18   O18   1.284520 A    
C8    C25   1.415549 A    
C24   C32   1.485222 S    
C26   C98   1.408827 A    
C71   C87   1.413624 A    
C6    C52   1.432703 A    
C14   C42   1.492491 S    
C74   C80   1.401184 A    
C36   C60   1.398289 A    
C77   C81   1.402513 A    
H5    C59   1.083472 S    
C68   C86   1.401304 A    
C6    C30   1.412570 A    
C68   C80   1.408291 A    
C1    C49   1.428534 A    
Cu3   Cu4   2.657652 S    
C2    C32   1.430169 A    
H3    C57   1.083673 S    
C70   C90   1.400608 A    
H13   C74   1.080830 S    
C46   N4    1.444376 S    
C52   N10   1.451071 S    
C18   C38   1.486837 S    
C24   O24   1.287469 A    
H1    C55   1.083467 S    
O9    Cu4   1.960719 S    
C16   C40   1.483312 S    
C1    C25   1.417347 A    
