data_mof_unit_62145.cif
_audit_creation_date              2012-10-26T20:55:34-0400
_audit_creation_method            fapswitch 2.2
_symmetry_space_group_name_H-M    P1
_symmetry_Int_Tables_number       1
_space_group_crystal_system       triclinic
_cell_length_a                    15.795781
_cell_length_b                    17.110986
_cell_length_c                    17.373465
_cell_angle_alpha                 89.692449
_cell_angle_beta                  96.750333
_cell_angle_gamma                 83.75882
_cell_volume                      4634.75094877

loop_
_atom_site_label
_atom_site_type_symbol
_atom_type_description
_atom_site_fract_x
_atom_site_fract_y
_atom_site_fract_z
_atom_type_partial_charge
C1    C     C_R   0.510133 0.348741 0.497814 0.589530
C2    C     C_R   0.475554 0.901664 0.493634 0.202272
C3    C     C_R   0.589891 0.137641 0.543783 -0.101771
C4    C     C_R   0.410124 0.862349 0.456152 -0.101769
C5    C     C_R   0.585677 0.219023 0.538390 -0.149852
C6    C     C_R   0.414336 0.780968 0.461558 -0.149937
C7    C     C_R   0.251547 0.457368 0.533101 0.036578
C8    C     C_R   0.748453 0.542612 0.466877 0.036548
C9    C     C_R   0.161980 0.459871 0.531255 -0.103291
C10   C     C_R   0.838020 0.540109 0.468724 -0.103302
C11   C     C_R   0.107468 0.517092 0.484863 0.214427
C12   C     C_R   0.489866 0.651259 0.502179 0.589416
C13   C     C_R   0.892532 0.482908 0.515140 0.214413
C14   C     C_R   0.146093 0.569881 0.441671 -0.123634
C15   C     C_R   0.853907 0.430139 0.558356 -0.123608
C16   C     C_R   0.511321 0.496393 0.650358 0.584287
C17   C     C_R   0.488679 0.503610 0.349640 0.584175
C18   C     C_R   0.235881 0.565347 0.445277 0.037726
C19   C     C_R   0.764119 0.434674 0.554749 0.037748
C20   C     C_R   0.517148 0.488986 0.734803 -0.013968
C21   C     C_R   0.482854 0.511023 0.265193 -0.014002
C22   C     C_R   0.452127 0.530278 0.771034 -0.138677
C23   C     C_R   0.515587 0.262771 0.495182 -0.013339
C24   C     C_R   0.547938 0.469822 0.228970 -0.138713
C25   C     C_R   0.452188 0.524378 0.850257 -0.124262
C26   C     C_R   0.547885 0.475738 0.149748 -0.124338
C27   C     C_R   0.517778 0.477402 0.895590 -0.007001
C28   C     C_R   0.482241 0.522638 0.104410 -0.007021
C29   C     C_R   0.584479 0.434750 0.860566 0.058499
C30   C     C_R   0.415470 0.565193 0.139419 0.058498
C31   C     C_R   0.583900 0.440181 0.779181 0.041841
C32   C     C_R   0.416042 0.559748 0.220803 0.041898
C33   C     C_2   0.512461 0.469167 0.978994 -0.084940
C34   C     C_R   0.484412 0.737229 0.504793 -0.013371
C35   C     C_2   0.487566 0.530890 0.021011 -0.084964
C36   C     C_2   0.348393 0.606239 0.258881 0.620275
C37   C     C_2   0.651465 0.393578 0.741085 0.620136
C38   C     C_2   0.653319 0.383650 0.908687 0.600725
C39   C     C_2   0.346548 0.616187 0.091283 0.600657
C40   C     C_2   0.620135 0.735503 0.600760 0.583148
C41   C     C_2   0.379845 0.264510 0.399236 0.583139
C42   C     C_R   0.450680 0.223418 0.453458 0.011808
C43   C     C_R   0.549310 0.776588 0.546521 0.011838
C44   C     C_R   0.455116 0.141578 0.460620 -0.078320
C45   C     C_R   0.544878 0.858425 0.539344 -0.078324
C46   C     C_R   0.524451 0.098333 0.506310 0.202272
Cu1   Cu    Cu3+1 0.585060 0.496170 0.503810 1.029074
Cu2   Cu    Cu3+1 0.414940 0.503830 0.496190 1.029129
H1    H     H_    0.400433 0.567233 0.737679 0.148507
H2    H     H_    0.735503 0.393187 0.587904 0.154019
H3    H     H_    0.469981 0.588548 0.993698 0.150089
H4    H     H_    0.530041 0.411514 0.006319 0.150151
H5    H     H_    0.600920 0.444886 0.124103 0.159546
H6    H     H_    0.399193 0.555303 0.875904 0.159534
H7    H     H_    0.594646 0.888405 0.571043 0.179660
H8    H     H_    0.405340 0.111602 0.428928 0.179671
H9    H     H_    0.643906 0.104971 0.578353 0.144809
H10   H     H_    0.356119 0.895014 0.421565 0.144829
H11   H     H_    0.636485 0.247990 0.569713 0.175330
H12   H     H_    0.599678 0.432928 0.262329 0.148536
H13   H     H_    0.363539 0.751994 0.430226 0.175343
H14   H     H_    0.221949 0.633981 0.264822 0.330427
H15   H     H_    0.777877 0.365536 0.735177 0.330415
H16   H     H_    0.723737 0.277873 0.923707 0.351697
H17   H     H_    0.275863 0.721830 0.076281 0.351697
H18   H     H_    0.743389 0.731198 0.648434 0.353138
H19   H     H_    0.256588 0.268812 0.351571 0.353152
H20   H     H_    0.707290 0.586426 0.430847 0.136991
H21   H     H_    0.292709 0.413538 0.569112 0.137013
H22   H     H_    0.863844 0.582437 0.434043 0.135570
H23   H     H_    0.136156 0.417526 0.565917 0.135576
H24   H     H_    0.106695 0.614741 0.405386 0.117705
H25   H     H_    0.893304 0.385296 0.594660 0.117731
H26   H     H_    0.264495 0.606853 0.412145 0.154076
N1    N     N_2   0.531591 0.015403 0.515418 -0.234225
N2    N     N_2   0.468414 0.984593 0.484520 -0.234222
N3    N     N_R   0.287170 0.509590 0.490460 -0.229791
N4    N     N_R   0.712830 0.490410 0.509540 -0.229806
N5    N     N_2   0.015271 0.524154 0.479757 -0.228768
N6    N     N_2   0.984729 0.475846 0.520247 -0.228768
O1    O     O_R   0.579730 0.382480 0.503570 -0.506566
O2    O     O_R   0.262030 0.598555 0.235300 -0.655631
O3    O     O_2   0.631438 0.347935 0.689964 -0.541951
O4    O     O_R   0.737873 0.401015 0.764732 -0.655662
O5    O     O_2   0.689770 0.408999 0.967843 -0.503774
O6    O     O_R   0.676142 0.306547 0.886404 -0.661168
O7    O     O_2   0.310220 0.590797 0.032087 -0.503800
O8    O     O_R   0.323498 0.693234 0.113596 -0.661180
O9    O     O_2   0.607655 0.679134 0.639838 -0.489639
O10   O     O_R   0.700612 0.763460 0.609416 -0.695871
O11   O     O_2   0.392312 0.320893 0.360170 -0.489584
O12   O     O_R   0.420270 0.617520 0.496430 -0.506620
O13   O     O_R   0.299372 0.236544 0.390578 -0.695869
O14   O     O_R   0.436070 0.388960 0.497130 -0.482827
O15   O     O_R   0.563930 0.611040 0.502870 -0.482837
O16   O     O_R   0.580160 0.496380 0.617190 -0.454223
O17   O     O_R   0.419840 0.503620 0.382810 -0.454197
O18   O     O_R   0.436500 0.502850 0.610750 -0.523957
O19   O     O_R   0.563500 0.497150 0.389250 -0.524007
O20   O     O_2   0.368308 0.652006 0.309923 -0.541920

loop_
_geom_bond_atom_site_label_1
_geom_bond_atom_site_label_2
_ccdc_geom_bond_type
C27   C29   A    
C41   C42   S    
C14   C18   A    
C39   O7    D    
H18   O10   S    
C27   C33   S    
C33   H4    S    
C15   C19   A    
Cu2   O17   S    
C23   C42   A    
Cu2   O14   S    
C38   O6    S    
C32   C36   S    
C6    H13   S    
C24   C26   A    
C11   C14   A    
C1    O1    A    
Cu1   O19   S    
C40   C43   S    
C41   O13   S    
C28   C35   S    
C36   O2    S    
C1    O14   A    
C22   C25   A    
C29   C38   S    
Cu1   O16   S    
C37   O4    S    
C40   O9    D    
C16   C20   S    
C7    N3    A    
H14   O2    S    
C13   N6    S    
C18   H26   S    
C8    N4    A    
C42   C44   A    
C39   O8    S    
H16   O6    S    
C46   N1    S    
C44   C46   A    
C2    C45   A    
C21   C32   A    
C16   O16   A    
C5    H11   S    
C38   O5    D    
C25   H6    S    
C4    C6    A    
C17   O19   A    
C17   C21   S    
C31   C37   S    
Cu2   N3    S    
C19   N4    A    
C2    C4    A    
N1    N2    D    
C9    C11   A    
C44   H8    S    
Cu1   Cu2   S    
C5    C23   A    
C24   H12   S    
C12   O15   A    
C43   C45   A    
C11   N5    S    
C22   H1    S    
C10   H22   S    
C41   O11   D    
C20   C22   A    
C8    H20   S    
C13   C15   A    
C35   H3    S    
C12   C34   S    
C26   H5    S    
C3    H9    S    
C2    N2    S    
H17   O8    S    
C7    C9    A    
C15   H25   S    
C14   H24   S    
C12   O12   A    
C34   C43   A    
C9    H23   S    
C3    C5    A    
C10   C13   A    
C7    H21   S    
C36   O20   D    
C1    C23   S    
C25   C27   A    
Cu2   O18   S    
C3    C46   A    
C26   C28   A    
H15   O4    S    
C28   C30   A    
C29   C31   A    
C30   C32   A    
C19   H2    S    
C16   O18   A    
C18   N3    A    
C33   C35   D    
C30   C39   S    
Cu1   O1    S    
N5    N6    D    
C6    C34   A    
C45   H7    S    
C8    C10   A    
Cu2   O12   S    
C21   C24   A    
C4    H10   S    
H19   O13   S    
Cu1   O15   S    
C37   O3    D    
Cu1   N4    S    
C40   O10   S    
C17   O17   A    
C20   C31   A    
