data_mof_unit_16866.cif
_audit_creation_date              2013-03-05T16:36:15-0500
_audit_creation_method            fapswitch 2.2
_symmetry_space_group_name_H-M    P1
_symmetry_Int_Tables_number       1
_space_group_crystal_system       triclinic
_cell_length_a                    27.82029
_cell_length_b                    9.088147
_cell_length_c                    7.779287
_cell_angle_alpha                 89.963811
_cell_angle_beta                  89.933705
_cell_angle_gamma                 90.255686
_cell_volume                      1966.85383483

loop_
_atom_site_label
_atom_site_type_symbol
_atom_site_description
_atom_site_fract_x
_atom_site_fract_y
_atom_site_fract_z
_atom_type_partial_charge
O1    O     O_R   0.500000 0.288390 0.642760 -0.580041
O2    O     O_R   0.500000 0.711610 0.357240 -0.580269
O3    O     O_R   0.500000 0.711610 0.642760 -0.565265
O4    O     O_R   0.500000 0.288390 0.357240 -0.565538
C1    C     C_R   0.500223 0.220005 0.500049 0.879385
C2    C     C_R   0.499794 0.779995 0.499951 0.878689
O5    O     O_R   0.430260 0.500000 0.642770 -0.592718
O6    O     O_R   0.569740 0.500000 0.357230 -0.593156
O7    O     O_R   0.569740 0.500000 0.642770 -0.554345
O8    O     O_R   0.430260 0.500000 0.357230 -0.554603
C3    C     C_R   0.407359 0.499981 0.500103 0.834005
C4    C     C_R   0.592646 0.500017 0.499897 0.833342
Cu1   Cu    Cu3+1 0.500000 0.500000 0.669080 1.055275
Cu2   Cu    Cu3+1 0.500000 0.500000 0.330920 1.054895
C5    C     C_R   0.178229 0.466884 0.644966 0.550837
C6    C     C_R   0.821807 0.534058 0.355247 0.550696
C7    C     C_R   0.177983 0.554552 0.356088 0.549116
C8    C     C_R   0.822054 0.446374 0.644120 0.549208
O9    O     O_2   0.203236 0.425051 0.785200 -0.505982
O10   O     O_2   0.796805 0.575885 0.215001 -0.506311
O11   O     O_2   0.202752 0.598100 0.215550 -0.504532
O12   O     O_2   0.797289 0.402713 0.784621 -0.504518
N1    N     N_R   0.202144 0.511205 0.500219 -0.466703
N2    N     N_R   0.797889 0.489649 0.499959 -0.466595
C9    C     C_R   0.279459 0.621368 0.579426 -0.056263
C10   C     C_R   0.720629 0.380070 0.418897 -0.056099
C11   C     C_R   0.277689 0.394225 0.418085 -0.171964
C12   C     C_R   0.722266 0.605384 0.583713 -0.171796
C13   C     C_R   0.329873 0.620627 0.579941 -0.094509
C14   C     C_R   0.670214 0.380563 0.418350 -0.094387
C15   C     C_R   0.327895 0.387156 0.419889 -0.032982
C16   C     C_R   0.672059 0.612283 0.581829 -0.032994
C17   C     C_R   0.253624 0.509379 0.498598 0.308020
C18   C     C_R   0.746403 0.491250 0.501493 0.307430
C19   C     C_R   0.101979 0.507359 0.500766 -0.040532
C20   C     C_R   0.898057 0.493748 0.499518 -0.040545
C21   C     C_R   0.127776 0.463559 0.647690 -0.027649
C22   C     C_R   0.872260 0.537502 0.352576 -0.027531
C23   C     C_R   0.127514 0.554059 0.353940 -0.028106
C24   C     C_R   0.872523 0.447004 0.646323 -0.028104
C25   C     C_R   0.102858 0.416514 0.793465 -0.151834
C26   C     C_R   0.897179 0.584613 0.206830 -0.151824
C27   C     C_R   0.102314 0.599027 0.208399 -0.152646
C28   C     C_R   0.897723 0.402097 0.791889 -0.152605
C29   C     C_R   0.354513 0.501949 0.500556 -0.125402
C30   C     C_R   0.645501 0.498255 0.499450 -0.125594
H1    H     H_    0.256789 0.307677 0.357541 0.143138
H2    H     H_    0.743110 0.691364 0.645588 0.143559
H3    H     H_    0.259814 0.710211 0.639663 0.181805
H4    H     H_    0.740323 0.291967 0.357391 0.182171
H5    H     H_    0.121869 0.381950 0.907986 0.193543
H6    H     H_    0.878168 0.619160 0.092300 0.193522
H7    H     H_    0.121109 0.636213 0.094163 0.193941
H8    H     H_    0.878929 0.364890 0.906117 0.193953
C31   C     C_R   0.974590 0.451878 0.649280 0.039965
C32   C     C_R   0.025446 0.549321 0.351042 0.039961
C33   C     C_R   0.974308 0.545557 0.350582 0.039911
C34   C     C_R   0.025728 0.455643 0.649741 0.039913
C35   C     C_R   0.949218 0.497022 0.499772 0.073708
C36   C     C_R   0.050818 0.504153 0.500540 0.073713
C37   C     C_R   0.947606 0.404060 0.793638 -0.220451
C38   C     C_R   0.052430 0.597133 0.206680 -0.220444
C39   C     C_R   0.947050 0.588805 0.205479 -0.220588
C40   C     C_R   0.052986 0.412393 0.794844 -0.220582
H9    H     H_    0.963662 0.367058 0.911546 0.147208
H10   H     H_    0.036374 0.634166 0.088786 0.147206
H11   H     H_    0.962875 0.626824 0.087292 0.146983
H12   H     H_    0.037161 0.374411 0.913046 0.146984
C41   C     C_1   0.500093 0.065374 0.500060 -0.115568
C42   C     C_1   0.499927 0.934625 0.499941 -0.115876
N3    N     N_1   0.500000 0.500000 0.076820 -0.036260
N4    N     N_1   0.500000 0.500000 0.923180 -0.036181
C43   C     C_2   0.350075 0.255090 0.340340 0.406454
H13   H     H_    0.328946 0.186904 0.253967 0.092004
O13   O     O_2   0.390964 0.216951 0.374184 -0.545839
C44   C     C_2   0.649806 0.743458 0.663075 0.405526
H14   H     H_    0.670767 0.810222 0.751444 0.092404
O14   O     O_2   0.609070 0.782540 0.628362 -0.545572
C45   C     C_2   0.356019 0.747083 0.658501 0.412403
H15   H     H_    0.394662 0.757907 0.646131 0.061101
O15   O     O_2   0.334494 0.842470 0.737483 -0.517516
C46   C     C_2   0.644154 0.254763 0.338029 0.412645
H16   H     H_    0.605558 0.243039 0.351224 0.061505
O16   O     O_2   0.665704 0.160920 0.256646 -0.517307

loop_
_geom_bond_atom_site_label_1
_geom_bond_atom_site_label_2
_geom_bond_distance
_ccdc_geom_bond_type
O5    Cu1   1.951188 S    
C31   C35   1.422369 A    
Cu2   N3    1.976716 S    
C20   C35   1.423485 A    
C11   C17   1.393517 A    
C5    O9    1.349890 S    
C7    N1    1.366652 A    
O1    C1    1.272673 A    
C40   H12   1.075096 S    
C19   C21   1.408468 A    
C44   O14   1.219682 D    
C22   C26   1.394396 A    
C10   H4    1.083526 S    
C7    C23   1.404168 A    
C15   C43   1.486924 S    
C34   C36   1.422496 A    
C32   C33   1.422966 A    
C43   H13   1.085905 S    
O7    Cu1   1.950714 S    
C5    C21   1.403937 A    
C8    C24   1.404164 A    
C27   H7    1.083661 S    
N1    C17   1.432380 S    
C1    C41   1.405295 S    
C8    N2    1.366709 A    
O3    Cu1   1.933883 S    
C6    O10   1.349890 S    
O3    C2    1.272665 A    
C5    N1    1.366800 A    
C12   C18   1.393568 A    
C6    N2    1.366859 A    
Cu1   Cu2   2.630644 S    
C21   C25   1.394389 A    
C43   O13   1.219658 D    
O2    C2    1.272673 A    
C10   C18   1.394051 A    
C33   C39   1.416970 A    
C9    C13   1.402597 A    
C39   H11   1.075094 S    
C38   H10   1.075093 S    
C11   C15   1.398581 A    
C12   C16   1.398536 A    
C44   H14   1.085861 S    
C4    C30   1.470609 S    
O8    Cu2   1.950717 S    
C45   O15   1.221496 D    
C23   C27   1.394343 A    
C34   C40   1.416980 A    
N2    C18   1.432511 S    
C32   C36   1.422376 A    
C13   C29   1.421636 A    
C19   C36   1.423471 A    
C14   C46   1.489204 S    
C19   C23   1.408624 A    
C28   H8    1.083663 S    
O5    C3    1.280361 A    
C13   C45   1.489240 S    
C20   C24   1.408611 A    
O6    C4    1.280423 A    
C9    C17   1.393968 A    
C10   C14   1.402598 A    
C46   O16   1.221469 D    
C32   C38   1.417072 A    
C3    C29   1.470360 S    
O1    Cu1   1.934141 S    
C11   H1    1.084264 S    
C2    C42   1.405291 S    
C12   H2    1.084264 S    
O6    Cu2   1.951186 S    
C8    O12   1.349825 S    
C16   C30   1.423246 A    
C14   C30   1.421685 A    
O4    C1    1.272668 A    
C16   C44   1.486799 S    
Cu1   N4    1.976716 S    
C28   C37   1.387886 A    
C20   C22   1.408455 A    
N3    N4    1.195210 T    
C31   C37   1.417064 A    
O4    Cu2   1.933884 S    
C41   C42   1.188255 T    
O2    Cu2   1.934140 S    
O7    C4    1.280529 A    
C9    H3    1.083525 S    
C33   C35   1.422488 A    
O8    C3    1.280467 A    
C45   H15   1.083271 S    
C37   H9    1.075091 S    
C24   C28   1.394350 A    
C46   H16   1.083302 S    
C15   C29   1.423227 A    
C31   C34   1.422961 A    
C6    C22   1.403945 A    
C25   C40   1.387801 A    
C26   C39   1.387801 A    
C25   H5    1.083656 S    
C27   C38   1.387889 A    
C26   H6    1.083660 S    
C7    O11   1.349823 S    
