data_mof_unit_35422.cif
_audit_creation_date              2012-12-10T17:24:57-0500
_audit_creation_method            fapswitch 2.2
_symmetry_space_group_name_H-M    P1
_symmetry_Int_Tables_number       1
_space_group_crystal_system       triclinic
_cell_length_a                    10.283341
_cell_length_b                    10.618863
_cell_length_c                    19.00833
_cell_angle_alpha                 91.996125
_cell_angle_beta                  84.989183
_cell_angle_gamma                 92.285789
_cell_volume                      2065.05718028

loop_
_atom_site_label
_atom_site_type_symbol
_atom_type_description
_atom_site_fract_x
_atom_site_fract_y
_atom_site_fract_z
_atom_type_partial_charge
C1    C     C_R   0.551586 0.732946 0.492727 0.886894
C2    C     C_R   0.495980 0.498408 0.365729 0.845154
C3    C     C_R   0.494812 0.617916 0.747971 0.109845
C4    C     C_R   0.565212 0.608468 0.255208 0.112525
C5    C     C_R   0.516419 0.623759 0.818890 -0.228980
C6    C     C_R   0.560150 0.620038 0.183139 -0.220780
C7    C     C_R   0.566640 0.522152 0.850900 -0.028653
C8    C     C_R   0.474839 0.543953 0.145850 -0.039135
C9    C     C_R   0.604236 0.412651 0.810753 0.161568
C10   C     C_R   0.384263 0.459296 0.181468 0.142139
C11   C     C_R   0.566498 0.398249 0.740837 0.123497
C12   C     C_R   0.448246 0.266635 0.499831 0.914729
C13   C     C_R   0.402146 0.432348 0.252389 0.126348
C14   C     C_R   0.516636 0.503724 0.709285 -0.117131
C15   C     C_R   0.488681 0.511893 0.290027 -0.142980
C16   C     C_R   0.498089 0.539957 0.068967 0.296573
C17   C     C_R   0.556892 0.526222 0.927939 0.297364
C18   C     C_3   0.449266 0.735754 0.715797 -0.392488
C19   C     C_3   0.563848 0.809646 0.678464 -0.866640
C20   C     C_3   0.657596 0.698522 0.291679 -0.402248
C21   C     C_3   0.798505 0.657271 0.279238 -0.778682
C22   C     C_3   0.689112 0.316760 0.841286 -0.398484
C23   C     C_2   0.574014 0.865751 0.478458 -0.452640
C24   C     C_3   0.826120 0.315757 0.802729 -0.900964
C25   C     C_3   0.269066 0.401797 0.143851 -0.377242
C26   C     C_3   0.136479 0.428917 0.183310 -0.862657
C27   C     C_3   0.571342 0.270379 0.700979 -0.432212
C28   C     C_3   0.434239 0.212863 0.694560 -0.884788
C29   C     C_3   0.348466 0.308000 0.282770 -0.404322
C30   C     C_3   0.233108 0.322262 0.338146 -0.834402
C31   C     C_3   0.627606 0.122836 0.398201 -0.353576
C32   C     C_3   0.689448 0.037850 0.338897 -0.951930
C33   C     C_3   0.375967 0.869383 0.408976 -0.362435
C34   C     C_2   0.427043 0.132048 0.486279 -0.467612
C35   C     C_3   0.323066 0.945132 0.351256 -0.929154
C36   C     C_3   0.075465 0.325579 0.529019 -0.421203
C37   C     C_3   0.112627 0.293594 0.602351 -0.832783
C38   C     C_3   0.868088 0.582685 0.582039 -0.380534
C39   C     C_3   0.863789 0.514627 0.651657 -0.889866
C40   C     C_3   0.118148 0.689659 0.446061 -0.278600
C41   C     C_3   0.876010 0.331697 0.372727 -0.261144
C42   C     C_2   0.493431 0.929156 0.441185 0.202266
C43   C     C_2   0.511092 0.065082 0.441885 0.219416
C44   C     C_2   0.918338 0.500159 0.519165 0.297409
C45   C     C_2   0.059885 0.465808 0.521658 0.301206
C46   C     C_R   0.503764 0.499709 0.633886 0.901439
H1    H     H_    0.491075 0.708203 0.849969 0.165047
H2    H     H_    0.862585 0.720708 0.309957 0.238209
H3    H     H_    0.806413 0.559300 0.296331 0.299073
H4    H     H_    0.833023 0.662027 0.222345 0.236389
H5    H     H_    0.651548 0.793980 0.270552 0.200394
H6    H     H_    0.630043 0.708434 0.349020 0.218055
H7    H     H_    0.824061 0.284768 0.746623 0.251659
H8    H     H_    0.873423 0.411521 0.805319 0.271149
H9    H     H_    0.886659 0.249707 0.828576 0.257493
H10   H     H_    0.705331 0.339175 0.897181 0.225409
H11   H     H_    0.641259 0.221255 0.840695 0.206892
H12   H     H_    0.627043 0.686826 0.155474 0.168614
H13   H     H_    0.108785 0.356357 0.222716 0.265037
H14   H     H_    0.137563 0.524130 0.209488 0.265698
H15   H     H_    0.059627 0.424700 0.145594 0.244695
H16   H     H_    0.265363 0.443033 0.091330 0.219716
H17   H     H_    0.279051 0.298848 0.134147 0.197670
H18   H     H_    0.376177 0.273897 0.664269 0.260578
H19   H     H_    0.440812 0.119658 0.666390 0.247954
H20   H     H_    0.383174 0.199596 0.747879 0.266647
H21   H     H_    0.623086 0.279104 0.647659 0.222631
H22   H     H_    0.625243 0.199902 0.726957 0.221925
H23   H     H_    0.341922 0.085569 0.513533 0.151095
H24   H     H_    0.268669 0.316321 0.390761 0.266770
H25   H     H_    0.184712 0.413245 0.334661 0.284525
H26   H     H_    0.160474 0.243203 0.332337 0.223314
H27   H     H_    0.318970 0.240772 0.240698 0.210432
H28   H     H_    0.427901 0.260469 0.306119 0.178388
H29   H     H_    0.729443 0.953192 0.360520 0.272994
H30   H     H_    0.617155 0.009746 0.300874 0.264807
H31   H     H_    0.771518 0.090353 0.309769 0.244640
H32   H     H_    0.595262 0.207391 0.373024 0.199110
H33   H     H_    0.703719 0.148673 0.434456 0.213330
H34   H     H_    0.659187 0.913610 0.498702 0.148030
H35   H     H_    0.288906 0.037906 0.372476 0.271028
H36   H     H_    0.398555 0.959216 0.306698 0.267013
H37   H     H_    0.238541 0.892184 0.330512 0.245185
H38   H     H_    0.400323 0.775411 0.385198 0.208174
H39   H     H_    0.299880 0.861071 0.453290 0.241095
H40   H     H_    0.185398 0.363017 0.621873 0.285608
H41   H     H_    0.024875 0.292588 0.640706 0.234964
H42   H     H_    0.153739 0.198292 0.600294 0.246857
H43   H     H_    0.981598 0.273017 0.521942 0.175465
H44   H     H_    0.141719 0.286319 0.486234 0.219354
H45   H     H_    0.634868 0.841124 0.716844 0.261828
H46   H     H_    0.964057 0.507557 0.668182 0.259004
H47   H     H_    0.805866 0.568647 0.693643 0.266535
H48   H     H_    0.818970 0.418558 0.646080 0.266429
H49   H     H_    0.931383 0.668311 0.587543 0.229850
H50   H     H_    0.775553 0.624187 0.575697 0.247651
H51   H     H_    0.031315 0.641093 0.426455 0.189491
H52   H     H_    0.205915 0.658664 0.413307 0.197063
H53   H     H_    0.102742 0.790569 0.437942 0.158043
H54   H     H_    0.774718 0.328440 0.358173 0.202664
H55   H     H_    0.897292 0.251497 0.405387 0.137102
H56   H     H_    0.614166 0.750709 0.636132 0.246578
H57   H     H_    0.939052 0.323806 0.322594 0.155787
H58   H     H_    0.527798 0.893915 0.654372 0.246801
H59   H     H_    0.373629 0.712897 0.678813 0.237014
H60   H     H_    0.401741 0.798774 0.757512 0.200899
N1    N     N_R   0.570880 0.637455 0.964290 -0.176636
N2    N     N_R   0.486673 0.428534 0.032752 -0.191123
N3    N     N_R   0.542892 0.644040 0.033810 -0.177991
N4    N     N_R   0.512910 0.422325 0.963284 -0.189693
N5    N     N_2   0.842710 0.448880 0.471430 0.050248
N6    N     N_2   0.157290 0.551120 0.528570 0.090155
O1    O     O_R   0.431050 0.692470 0.505750 -0.569836
O2    O     O_3   0.905367 0.447290 0.406053 -0.579225
O3    O     O_R   0.568950 0.307530 0.494250 -0.622605
O4    O     O_R   0.651120 0.659650 0.487410 -0.626314
O5    O     O_R   0.348880 0.340350 0.512590 -0.621521
O6    O     O_R   0.389930 0.516430 0.611030 -0.618093
O7    O     O_R   0.610070 0.483570 0.388970 -0.595325
O8    O     O_R   0.610000 0.483610 0.592700 -0.631723
O9    O     O_R   0.390000 0.516390 0.407300 -0.629621
O10   O     O_3   0.128151 0.672325 0.518973 -0.555898
Zn1   Zn    Zn3+2 0.353060 0.521920 0.512240 0.960027
Zn2   Zn    Zn3+2 0.646940 0.478080 0.487760 0.935217

loop_
_geom_bond_atom_site_label_1
_geom_bond_atom_site_label_2
_ccdc_geom_bond_type
C36   H43   S    
C6    H12   S    
C37   H42   S    
C41   O2    S    
C17   N4    A    
C40   H53   S    
C21   H3    S    
C30   H25   S    
C35   H35   S    
C45   N6    D    
C14   C46   S    
O7    Zn2   S    
C24   H9    S    
C38   C44   S    
C5    H1    S    
C23   C42   D    
C31   C43   S    
C33   C42   S    
C13   C29   S    
C36   C37   S    
C26   H15   S    
C20   H5    S    
C17   N1    A    
C40   H52   S    
C38   C39   S    
C19   H56   S    
C9    C22   S    
C29   H27   S    
C24   H8    S    
C46   O6    A    
C3    C18   S    
C18   C19   S    
C25   H17   S    
C33   H39   S    
C39   H47   S    
C27   H22   S    
C33   C35   S    
C32   H31   S    
N2    N4    A    
C7    C17   S    
C38   H49   S    
C1    O4    A    
C23   H34   S    
C26   H13   S    
C25   H16   S    
C21   H2    S    
C8    C16   S    
N1    N3    A    
C1    O1    A    
C22   H11   S    
C21   H4    S    
C30   H24   S    
C35   H36   S    
C16   N3    A    
C37   H40   S    
C27   H21   S    
N6    Zn1   S    
C4    C6    A    
C40   H51   S    
C5    C7    A    
C35   H37   S    
C6    C8    A    
C29   H28   S    
C24   H7    S    
C41   H57   S    
C28   H20   S    
C18   H60   S    
C39   H48   S    
N6    O10   S    
C29   C30   S    
C32   H29   S    
C19   H58   S    
C31   C32   S    
O1    Zn1   S    
C11   C27   S    
C41   H54   S    
C46   O8    A    
C36   C45   S    
C2    C15   S    
C9    C11   A    
C34   H23   S    
C3    C14   A    
C28   H18   S    
C10   C25   S    
C1    C23   S    
C13   C15   A    
C22   C24   S    
C42   C43   S    
C12   C34   S    
C39   H46   S    
C44   C45   S    
C31   H32   S    
C2    O9    A    
C36   H44   S    
C7    C9    A    
O3    Zn2   S    
O4    Zn2   S    
N5    Zn2   S    
C37   H41   S    
C34   C43   D    
C3    C5    A    
C10   C13   A    
C32   H30   S    
C30   H26   S    
C2    O7    A    
C31   H33   S    
C40   O10   S    
C22   H10   S    
C12   O3    A    
C4    C15   A    
C28   H19   S    
C25   C26   S    
C18   H59   S    
C20   H6    S    
C11   C14   A    
C41   H55   S    
N5    O2    S    
O6    Zn1   S    
O5    Zn1   S    
C33   H38   S    
O9    Zn1   S    
C19   H45   S    
C16   N2    A    
C12   O5    A    
C4    C20   S    
C44   N5    D    
C20   C21   S    
C8    C10   A    
C38   H50   S    
C27   C28   S    
C26   H14   S    
O8    Zn2   S    
