data_mof_unit_7293.cif
_audit_creation_date              2012-12-11T14:14:23-0500
_audit_creation_method            fapswitch 2.2
_symmetry_space_group_name_H-M    P1
_symmetry_Int_Tables_number       1
_space_group_crystal_system       triclinic
_cell_length_a                    17.002938
_cell_length_b                    7.247616
_cell_length_c                    16.963767
_cell_angle_alpha                 89.999987
_cell_angle_beta                  99.514027
_cell_angle_gamma                 90.0
_cell_volume                      2061.70408931

loop_
_atom_site_label
_atom_site_type_symbol
_atom_type_description
_atom_site_fract_x
_atom_site_fract_y
_atom_site_fract_z
_atom_type_partial_charge
O1    O     O_R   0.414560 0.494370 0.416770 -0.536788
O2    O     O_R   0.585440 0.994370 0.583230 -0.536788
O3    O     O_R   0.578370 0.819590 0.429320 -0.533638
O4    O     O_R   0.421630 0.319590 0.570680 -0.533638
C1    C     C_R   0.604833 0.654105 0.413847 0.724565
C2    C     C_R   0.395167 0.154105 0.586153 0.724566
O5    O     O_R   0.414740 0.823790 0.407360 -0.542896
O6    O     O_R   0.585260 0.323790 0.592640 -0.542897
O7    O     O_R   0.420650 0.998510 0.561120 -0.541599
O8    O     O_R   0.579350 0.498510 0.438880 -0.541599
C3    C     C_R   0.387890 0.655001 0.385252 0.735302
C4    C     C_R   0.612110 0.155001 0.614748 0.735301
O9    O     O_3   0.502130 0.662240 0.550470 -0.380537
O10   O     O_3   0.497870 0.162240 0.449530 -0.380537
V1    V     V_3+5 0.499600 0.935390 0.490640 1.432309
V2    V     V_3+5 0.500400 0.435390 0.509360 1.432309
C5    C     C_2   0.785069 0.271774 0.788327 -0.116993
C6    C     C_2   0.214931 0.771774 0.211673 -0.116993
C7    C     C_2   0.820878 0.113457 0.817055 -0.287295
C8    C     C_2   0.179122 0.613457 0.182945 -0.287295
H1    H     H_    0.806451 0.401990 0.815446 0.141699
H2    H     H_    0.193549 0.901990 0.184553 0.141699
H3    H     H_    0.801403 0.981823 0.790620 0.133654
H4    H     H_    0.198597 0.481823 0.209380 0.133654
C9    C     C_2   0.717244 0.284599 0.720235 -0.130922
C10   C     C_2   0.282756 0.784599 0.279765 -0.130921
C11   C     C_2   0.678936 0.138563 0.682547 -0.291520
C12   C     C_2   0.321064 0.638563 0.317453 -0.291520
H5    H     H_    0.698115 0.422805 0.701128 0.140086
H6    H     H_    0.301885 0.922805 0.298872 0.140086
H7    H     H_    0.696535 0.999525 0.701010 0.134125
H8    H     H_    0.303465 0.499525 0.298990 0.134125
C13   C     C_R   0.331795 0.133371 0.636555 -0.108685
C14   C     C_R   0.668205 0.633371 0.363445 -0.108682
C15   C     C_R   0.166308 0.133098 0.862004 -0.097309
C16   C     C_R   0.833692 0.633098 0.137996 -0.097309
C17   C     C_R   0.273939 0.316836 0.823238 -0.078912
C18   C     C_R   0.726061 0.816837 0.176763 -0.078914
C19   C     C_R   0.220293 0.281287 0.875334 -0.128291
C20   C     C_R   0.779707 0.781288 0.124667 -0.128292
C21   C     C_R   0.168000 0.018488 0.795538 -0.133937
C22   C     C_R   0.832000 0.518488 0.204462 -0.133939
C23   C     C_R   0.221543 0.053884 0.741265 0.023369
C24   C     C_R   0.778457 0.553884 0.258735 0.023372
C25   C     C_R   0.274665 0.206438 0.755632 0.121693
C26   C     C_R   0.725336 0.706438 0.244369 0.121694
C27   C     C_R   0.328493 0.246242 0.702913 -0.175188
C28   C     C_R   0.671507 0.746243 0.297087 -0.175189
C29   C     C_R   0.278574 0.983849 0.622022 -0.241755
C30   C     C_R   0.721426 0.483849 0.377978 -0.241761
C31   C     C_R   0.223528 0.943066 0.672759 0.409241
C32   C     C_R   0.776473 0.443066 0.327241 0.409234
H9    H     H_    0.369818 0.360583 0.715228 0.122754
H10   H     H_    0.630183 0.860584 0.284772 0.122753
H11   H     H_    0.280777 0.896616 0.570648 0.161992
H12   H     H_    0.719222 0.396615 0.429352 0.161987
H13   H     H_    0.314252 0.433040 0.835308 0.109173
H14   H     H_    0.685749 0.933042 0.164693 0.109174
H15   H     H_    0.220445 0.371999 0.926120 0.115284
H16   H     H_    0.779555 0.872000 0.073880 0.115284
H17   H     H_    0.125448 0.906845 0.785556 0.200220
H18   H     H_    0.874552 0.406843 0.214443 0.200220
O11   O     O_R   0.920750 0.773600 0.061260 -0.530841
O12   O     O_R   0.079250 0.273600 0.938740 -0.530840
O13   O     O_R   0.085340 0.439850 0.092570 -0.543058
O14   O     O_R   0.914660 0.939850 0.907430 -0.543058
C33   C     C_R   0.112183 0.608305 0.114743 0.732334
C34   C     C_R   0.887817 0.108305 0.885257 0.732333
O15   O     O_R   0.921720 0.444130 0.070790 -0.540682
O16   O     O_R   0.078280 0.944130 0.929210 -0.540682
O17   O     O_R   0.914480 0.269530 0.916840 -0.536604
O18   O     O_R   0.085520 0.769530 0.083160 -0.536604
C35   C     C_R   0.896012 0.613639 0.086299 0.692159
C36   C     C_R   0.103988 0.113639 0.913701 0.692159
O19   O     O_3   0.997840 0.601520 0.949550 -0.373822
O20   O     O_3   0.002160 0.101520 0.050450 -0.373822
V3    V     V_3+5 0.000400 0.328340 0.009360 1.457032
V4    V     V_3+5 0.999600 0.828340 0.990640 1.457032
S1    S     S_3+6 0.159420 0.750884 0.648696 0.022588
O21   O     O_2   0.171506 0.616238 0.716948 -0.324459
O22   O     O_2   0.074127 0.814808 0.635376 -0.308987
O23   O     O_3   0.178190 0.642787 0.565987 -0.479309
H19   H     H_    0.152353 0.719943 0.520820 0.354453
S2    S     S_3+6 0.840581 0.250886 0.351305 0.022592
O24   O     O_2   0.828494 0.116237 0.283054 -0.324458
O25   O     O_2   0.925874 0.314811 0.364622 -0.308984
O26   O     O_3   0.821814 0.142794 0.434016 -0.479302
H20   H     H_    0.847642 0.219966 0.479181 0.354445

loop_
_geom_bond_atom_site_label_1
_geom_bond_atom_site_label_2
_ccdc_geom_bond_type
O14   C34   A    
O26   H20   S    
C15   C36   S    
C20   H16   S    
O16   V4    S    
O12   V3    S    
C8    C33   S    
O15   V3    S    
C6    C10   S    
S2    O26   S    
C21   H17   S    
O2    C4    A    
C2    O7    A    
C28   H10   S    
S2    O25   D    
C15   C19   A    
C13   C29   A    
C33   O18   A    
C32   S2    S    
O18   V4    S    
C18   H14   S    
C16   C22   A    
C8    H4    S    
C29   C31   A    
O1    C3    A    
O16   C36   A    
C30   C32   A    
O15   C35   A    
C22   H18   S    
C27   H9    S    
C24   C32   A    
O5    V1    S    
O6    V2    S    
C21   C23   A    
C22   C24   A    
C24   C26   A    
C25   C27   A    
C9    H5    S    
O14   V4    S    
C26   C28   A    
C14   C30   A    
O13   V3    S    
C4    C11   S    
C11   H7    S    
C12   H8    S    
O20   V3    S    
O4    C2    A    
S1    O22   D    
C7    H3    S    
O11   C35   A    
O13   C33   A    
C29   H11   S    
C30   H12   S    
O4    V2    S    
O5    C3    A    
C16   C20   A    
O6    C4    A    
C19   H15   S    
C1    C14   S    
C7    C34   S    
O1    V2    S    
S2    O24   D    
O2    V1    S    
C23   C25   A    
C10   H6    S    
C13   C27   A    
C14   C28   A    
C17   C25   A    
O17   V3    S    
O3    V1    S    
C6    H2    S    
O3    C1    A    
S1    O23   S    
C9    C11   D    
C10   C12   D    
C2    C13   S    
C5    C9    S    
O7    V1    S    
C1    O8    A    
C17   C19   A    
O8    V2    S    
C18   C20   A    
C23   C31   A    
C3    C12   S    
C34   O17   A    
C5    C7    D    
C6    C8    D    
C15   C21   A    
O19   V4    S    
C31   S1    S    
C18   C26   A    
C16   C35   S    
S1    O21   D    
O23   H19   S    
O9    V2    S    
O12   C36   A    
O10   V1    S    
C17   H13   S    
O11   V4    S    
C5    H1    S    
