data_mof_unit_27691.cif
_audit_creation_date              2012-12-10T16:42:56-0500
_audit_creation_method            fapswitch 2.2
_symmetry_space_group_name_H-M    P1
_symmetry_Int_Tables_number       1
_space_group_crystal_system       triclinic
_cell_length_a                    7.492826
_cell_length_b                    8.742912
_cell_length_c                    13.012984
_cell_angle_alpha                 87.439203
_cell_angle_beta                  80.196014
_cell_angle_gamma                 103.044868
_cell_volume                      815.268887402

loop_
_atom_site_label
_atom_site_type_symbol
_atom_type_description
_atom_site_fract_x
_atom_site_fract_y
_atom_site_fract_z
_atom_type_partial_charge
C1    C     C_R   0.452309 0.200006 0.508243 0.781888
C2    C     C_R   0.546239 0.799115 0.501394 0.794914
C3    C     C_R   0.467113 0.494099 0.701177 0.774339
C4    C     C_R   0.531641 0.498780 0.299272 0.813441
C5    C     C_R   0.548814 0.490766 0.186518 -0.154298
C6    C     C_R   0.447196 0.487426 0.814837 -0.150210
C7    C     C_R   0.255318 0.472287 0.986114 -0.291177
C8    C     C_R   0.740600 0.496639 0.016019 -0.288055
C9    C     C_R   0.269280 0.464756 0.878874 0.484530
C10   C     C_R   0.719745 0.482049 0.124522 0.482288
C11   C     C_R   0.605293 0.500999 0.860685 -0.331259
C12   C     C_R   0.394610 0.490651 0.139721 -0.307312
C13   C     C_R   0.587195 0.496367 0.969104 0.100899
C14   C     C_R   0.411770 0.487169 0.031855 0.102145
C15   C     C_2   0.423531 0.031614 0.520403 0.173222
C16   C     C_2   0.571122 0.965071 0.511973 0.173265
Cu1   Cu    Cu3+1 0.686350 0.517570 0.488220 0.998412
Cu2   Cu    Cu3+1 0.313650 0.482430 0.511780 0.989629
H1    H     H_    0.261079 0.491661 0.187027 0.205568
H2    H     H_    0.741624 0.512686 0.812491 0.202351
H3    H     H_    0.121425 0.461893 0.033651 0.202240
H4    H     H_    0.874516 0.503124 0.968771 0.202596
H5    H     H_    0.935683 0.384592 0.587312 0.226413
H6    H     H_    0.064514 0.618470 0.414117 0.247057
N1    N     N_2   0.033570 0.455950 0.529530 -0.198831
N2    N     N_2   0.966430 0.544050 0.470470 -0.188800
O1    O     O_R   0.621060 0.286250 0.492350 -0.562346
O2    O     O_R   0.378940 0.713750 0.507650 -0.563021
O3    O     O_R   0.306310 0.256580 0.512240 -0.558022
O4    O     O_R   0.693690 0.743420 0.487760 -0.547199
O5    O     O_R   0.631800 0.512400 0.642670 -0.616143
O6    O     O_R   0.368200 0.487600 0.357330 -0.598936
O7    O     O_R   0.317060 0.482730 0.662570 -0.539681
O8    O     O_R   0.682940 0.517270 0.337430 -0.530304
O9    O     O_3   0.868213 0.461787 0.169182 -0.590636
C17   C     C_3   0.846945 0.298599 0.192911 -0.295218
H7    H     H_    0.850710 0.234770 0.120781 0.135638
H8    H     H_    0.715993 0.245852 0.249650 0.170575
H9    H     H_    0.964702 0.281365 0.229826 0.202648
O10   O     O_3   0.108870 0.442862 0.836832 -0.584380
C18   C     C_3   0.025111 0.280081 0.845645 -0.357935
H10   H     H_    0.975665 0.233195 0.928990 0.157323
H11   H     H_    0.121952 0.212655 0.805541 0.153332
H12   H     H_    0.901775 0.261712 0.807037 0.175020
O11   O     O_3   0.240976 0.942750 0.536224 -0.547847
C19   C     C_3   0.176908 0.906783 0.645058 -0.246789
H13   H     H_    0.168722 0.015279 0.685092 0.109608
H14   H     H_    0.266416 0.842637 0.681280 0.146400
H15   H     H_    0.035001 0.828246 0.658095 0.196726
O12   O     O_3   0.750683 0.051902 0.511647 -0.541463
C20   C     C_3   0.779477 0.051002 0.616073 -0.269148
H16   H     H_    0.756463 0.929011 0.652849 0.140082
H17   H     H_    0.688179 0.115776 0.664014 0.111139
H18   H     H_    0.925975 0.111941 0.616250 0.205326

loop_
_geom_bond_atom_site_label_1
_geom_bond_atom_site_label_2
_ccdc_geom_bond_type
C8    H4    S    
C8    C13   A    
C1    C15   S    
C2    C16   S    
C11   C13   A    
C18   H10   S    
O9    C17   S    
C2    O4    A    
C3    C6    S    
C20   H18   S    
C6    C9    A    
C1    O3    A    
O12   C20   S    
C5    C10   A    
Cu2   O3    S    
C7    H3    S    
C13   C14   A    
C3    O5    A    
Cu1   O4    S    
C18   H11   S    
C19   H15   S    
C4    O6    A    
Cu2   N1    S    
Cu1   N2    S    
C12   H1    S    
C17   H8    S    
O10   C18   S    
Cu2   O7    S    
C12   C14   A    
Cu1   Cu2   S    
C4    O8    A    
C7    C14   A    
Cu1   O5    S    
C18   H12   S    
C19   H14   S    
C11   H2    S    
Cu2   O6    S    
Cu1   O8    S    
C3    O7    A    
C20   H16   S    
Cu1   O1    S    
C7    C9    A    
H5    N1    S    
Cu2   O2    S    
C10   O9    S    
C5    C12   A    
C8    C10   A    
C6    C11   A    
C1    O1    A    
C15   O11   S    
C19   H13   S    
C17   H7    S    
C2    O2    A    
C20   H17   S    
N1    N2    D    
O11   C19   S    
C17   H9    S    
C9    O10   S    
C15   C16   D    
C16   O12   S    
C4    C5    S    
H6    N2    S    
