data_mof_unit_18980.cif
_audit_creation_date              2012-12-10T17:27:08-0500
_audit_creation_method            fapswitch 2.2
_symmetry_space_group_name_H-M    P1
_symmetry_Int_Tables_number       1
_space_group_crystal_system       triclinic
_cell_length_a                    18.398163
_cell_length_b                    18.121008
_cell_length_c                    11.965905
_cell_angle_alpha                 89.99855
_cell_angle_beta                  85.640544
_cell_angle_gamma                 90.000692
_cell_volume                      3977.81003275

loop_
_atom_site_label
_atom_site_type_symbol
_atom_type_description
_atom_site_fract_x
_atom_site_fract_y
_atom_site_fract_z
_atom_type_partial_charge
C1    C     C_R   0.400253 0.100674 0.521799 0.905786
C2    C     C_R   0.535224 0.998044 0.020088 0.023974
C3    C     C_R   0.964783 0.497902 0.979912 0.023981
C4    C     C_R   0.035217 0.502099 0.020088 0.023989
C5    C     C_R   0.587143 0.996326 0.827129 0.003087
C6    C     C_R   0.412857 0.003675 0.172871 0.003055
C7    C     C_R   0.087130 0.503940 0.827129 0.003055
C8    C     C_R   0.912870 0.496061 0.172871 0.003091
C9    C     C_R   0.597253 0.995153 0.942303 0.115929
C10   C     C_R   0.402747 0.004849 0.057697 0.115926
C11   C     C_R   0.097235 0.505198 0.942301 0.115914
C12   C     C_R   0.599739 0.899317 0.478204 0.905805
C13   C     C_R   0.902765 0.494804 0.057699 0.115917
C14   C     C_R   0.458807 0.002792 0.862900 -0.077682
C15   C     C_R   0.541193 0.997209 0.137100 -0.077661
C16   C     C_R   0.958817 0.497007 0.862901 -0.077678
C17   C     C_R   0.041182 0.502993 0.137099 -0.077698
C18   C     C_R   0.654673 0.157045 0.465328 -0.107833
C19   C     C_R   0.345330 0.842951 0.534672 -0.107763
C20   C     C_R   0.344769 0.156441 0.534863 -0.107679
C21   C     C_R   0.655206 0.843534 0.465151 -0.107638
C22   C     C_R   0.155230 0.656445 0.465132 -0.107599
C23   C     C_R   0.599640 0.100796 0.478232 0.905667
C24   C     C_R   0.844789 0.343536 0.534857 -0.107560
C25   C     C_R   0.845372 0.657089 0.534650 -0.107839
C26   C     C_R   0.154628 0.342909 0.465349 -0.107759
C27   C     C_R   0.272687 0.757372 0.650678 0.225703
C28   C     C_R   0.727426 0.242510 0.349276 0.225694
C29   C     C_R   0.728696 0.758840 0.348793 0.226166
C30   C     C_R   0.271380 0.241236 0.651200 0.226292
C31   C     C_R   0.771463 0.258671 0.651159 0.226238
C32   C     C_R   0.228485 0.741383 0.348846 0.226350
C33   C     C_R   0.227351 0.257418 0.349323 0.225574
C34   C     C_R   0.400356 0.899207 0.521769 0.905623
C35   C     C_R   0.772514 0.742439 0.650733 0.225543
C36   C     C_R   0.325762 0.812334 0.639634 -0.233123
C37   C     C_R   0.674332 0.187569 0.360331 -0.233123
C38   C     C_R   0.675229 0.813407 0.360018 -0.232958
C39   C     C_R   0.324835 0.186655 0.639967 -0.232867
C40   C     C_R   0.824884 0.313287 0.639948 -0.232945
C41   C     C_R   0.175068 0.686760 0.360063 -0.232870
C42   C     C_R   0.174267 0.312365 0.360363 -0.233190
C43   C     C_R   0.825622 0.687519 0.639678 -0.233192
C44   C     C_R   0.312586 0.820065 0.439546 -0.273075
C45   C     C_R   0.900375 0.600812 0.521761 0.905670
C46   C     C_R   0.687346 0.180003 0.560480 -0.272988
C47   C     C_R   0.688076 0.820775 0.560219 -0.273158
C48   C     C_R   0.311806 0.179105 0.439833 -0.273167
C49   C     C_R   0.811835 0.320869 0.439821 -0.273254
C50   C     C_R   0.188258 0.679038 0.560138 -0.273256
C51   C     C_R   0.187286 0.319933 0.560509 -0.273037
C52   C     C_R   0.812804 0.680157 0.439459 -0.272941
C53   C     C_R   0.260763 0.765019 0.446441 0.072842
C54   C     C_R   0.739220 0.234999 0.553557 0.072970
C55   C     C_R   0.740255 0.766087 0.553158 0.074429
C56   C     C_R   0.099630 0.399193 0.478237 0.905629
C57   C     C_R   0.259665 0.233831 0.446882 0.074486
C58   C     C_R   0.759729 0.266106 0.446846 0.074310
C59   C     C_R   0.240337 0.733826 0.553123 0.074363
C60   C     C_R   0.239145 0.264922 0.553596 0.072809
C61   C     C_R   0.760882 0.735105 0.446408 0.072958
C62   C     C_3   0.795550 0.232661 0.849575 -0.801334
C63   C     C_3   0.204464 0.767196 0.150323 -0.801413
C64   C     C_3   0.202270 0.229907 0.151875 -0.802172
C65   C     C_3   0.797493 0.769875 0.848244 -0.802133
C66   C     C_3   0.297725 0.730047 0.848233 -0.802297
C67   C     C_R   0.099753 0.600669 0.478197 0.905772
C68   C     C_3   0.702478 0.269755 0.151660 -0.802256
C69   C     C_3   0.704722 0.732861 0.150342 -0.801243
C70   C     C_3   0.295311 0.267010 0.849762 -0.801351
C71   C     C_3   0.673647 0.990659 0.979353 -0.959259
C72   C     C_3   0.326354 0.009345 0.020648 -0.959272
C73   C     C_3   0.173610 0.510018 0.979348 -0.959285
C74   C     C_3   0.826390 0.489986 0.020651 -0.959275
C75   C     C_R   0.900253 0.399325 0.521800 0.905798
C76   C     C_R   0.464775 0.001957 0.979912 0.023983
H1    H     H_    0.366408 0.005903 0.233987 0.140660
H2    H     H_    0.327535 0.845842 0.359516 0.182357
H3    H     H_    0.326990 0.153569 0.359695 0.181352
H4    H     H_    0.672804 0.846220 0.640395 0.181394
H5    H     H_    0.173171 0.653395 0.640228 0.181168
H6    H     H_    0.826988 0.346443 0.359701 0.181187
H7    H     H_    0.827947 0.654590 0.359336 0.182612
H8    H     H_    0.172257 0.345624 0.640575 0.182462
H9    H     H_    0.648929 0.167552 0.287581 0.174638
H10   H     H_    0.351220 0.832297 0.712367 0.174639
H11   H     H_    0.350367 0.166684 0.712627 0.173650
H12   H     H_    0.633592 0.994098 0.766013 0.140712
H13   H     H_    0.649769 0.833435 0.287326 0.173640
H14   H     H_    0.149487 0.666838 0.287419 0.173616
H15   H     H_    0.850407 0.333252 0.712620 0.173613
H16   H     H_    0.850951 0.667439 0.712458 0.174668
H17   H     H_    0.148870 0.332378 0.287603 0.174667
H18   H     H_    0.693584 0.236512 0.782641 0.222399
H19   H     H_    0.774650 0.195347 0.918257 0.245552
H20   H     H_    0.796573 0.289789 0.883083 0.229325
H21   H     H_    0.851534 0.214507 0.820685 0.254055
H22   H     H_    0.306363 0.763820 0.217473 0.222407
H23   H     H_    0.866430 0.493672 0.233987 0.140709
H24   H     H_    0.225329 0.804491 0.081593 0.245549
H25   H     H_    0.148405 0.785218 0.179032 0.254001
H26   H     H_    0.203640 0.710024 0.116949 0.229373
H27   H     H_    0.304742 0.235603 0.217056 0.222628
H28   H     H_    0.222979 0.192172 0.083620 0.245809
H29   H     H_    0.200566 0.286722 0.117325 0.230595
H30   H     H_    0.146588 0.211547 0.182075 0.254422
H31   H     H_    0.695048 0.764091 0.782966 0.222604
H32   H     H_    0.776737 0.807576 0.916514 0.245806
H33   H     H_    0.853167 0.788284 0.818098 0.254431
H34   H     H_    0.133570 0.506329 0.766012 0.140659
H35   H     H_    0.799234 0.713055 0.882762 0.230555
H36   H     H_    0.195305 0.735229 0.782840 0.222642
H37   H     H_    0.277079 0.692300 0.916518 0.245816
H38   H     H_    0.299199 0.786900 0.882687 0.230629
H39   H     H_    0.353493 0.711857 0.818199 0.254370
H40   H     H_    0.804871 0.264557 0.217150 0.222619
H41   H     H_    0.723151 0.307483 0.083367 0.245813
H42   H     H_    0.646705 0.287961 0.181638 0.254368
H43   H     H_    0.701005 0.212894 0.117236 0.230607
H44   H     H_    0.806668 0.736993 0.217328 0.222376
H45   H     H_    0.593732 0.994519 0.171664 0.152028
H46   H     H_    0.725726 0.695622 0.081631 0.245547
H47   H     H_    0.703558 0.789996 0.116883 0.229304
H48   H     H_    0.648780 0.714554 0.179202 0.254091
H49   H     H_    0.193428 0.263451 0.782555 0.222381
H50   H     H_    0.274373 0.304249 0.918514 0.245543
H51   H     H_    0.351339 0.285140 0.821080 0.254032
H52   H     H_    0.296234 0.209832 0.883097 0.229370
H53   H     H_    0.715028 0.988628 0.906799 0.250057
H54   H     H_    0.685155 0.039932 0.030291 0.243584
H55   H     H_    0.679691 0.939923 0.029878 0.241404
H56   H     H_    0.406268 0.005481 0.828336 0.152054
H57   H     H_    0.284972 0.011378 0.093202 0.250056
H58   H     H_    0.320310 0.060081 0.970121 0.241404
H59   H     H_    0.314843 0.960073 0.969710 0.243613
H60   H     H_    0.214983 0.512193 0.906793 0.250070
H61   H     H_    0.179455 0.560797 0.029850 0.241351
H62   H     H_    0.185311 0.460812 0.030310 0.243689
H63   H     H_    0.785017 0.487813 0.093206 0.250070
H64   H     H_    0.814690 0.539192 0.969689 0.243662
H65   H     H_    0.820543 0.439207 0.970150 0.241352
H66   H     H_    0.093712 0.505878 0.171661 0.152064
H67   H     H_    0.906288 0.494122 0.828339 0.152039
H68   H     H_    0.672303 0.154328 0.640557 0.182469
N1    N     N_R   0.480750 1.000000 0.209750 -0.124922
N2    N     N_2   0.750563 0.272923 0.241861 -0.314142
N3    N     N_2   0.752213 0.728847 0.241243 -0.313290
N4    N     N_2   0.247938 0.271311 0.758737 -0.313191
N5    N     N_R   0.519250 0.000000 0.790250 -0.124941
N6    N     N_R   0.980750 0.500000 0.209750 -0.124939
N7    N     N_R   0.019250 0.500000 0.790250 -0.124920
N8    N     N_2   0.748059 0.228552 0.758681 -0.313260
N9    N     N_2   0.251843 0.771558 0.241334 -0.313181
N10   N     N_2   0.250491 0.227013 0.241916 -0.314215
N11   N     N_2   0.749297 0.772754 0.758167 -0.314203
N12   N     N_2   0.249608 0.726893 0.758072 -0.314150
O1    O     O_R   0.418020 0.076820 0.422210 -0.630475
O2    O     O_R   0.569630 0.923170 0.391410 -0.629146
O3    O     O_R   0.569630 0.076830 0.391410 -0.627734
O4    O     O_R   0.430370 0.923170 0.608590 -0.627749
O5    O     O_R   0.930370 0.576830 0.608590 -0.627664
O6    O     O_R   0.069630 0.423170 0.391410 -0.627677
O7    O     O_R   0.069630 0.576830 0.391410 -0.629231
O8    O     O_R   0.930370 0.423170 0.608590 -0.629215
O9    O     O_R   0.581980 0.923180 0.577790 -0.630485
O10   O     O_R   0.581980 0.076820 0.577790 -0.628570
O11   O     O_R   0.418020 0.923180 0.422210 -0.628572
O12   O     O_R   0.918020 0.576820 0.422210 -0.628524
O13   O     O_R   0.081980 0.423180 0.577790 -0.628523
O14   O     O_R   0.081980 0.576820 0.577790 -0.630530
O15   O     O_R   0.918020 0.423180 0.422210 -0.630538
O16   O     O_R   0.430370 0.076830 0.608590 -0.629162
Zn1   Zn    Zn3+2 0.491750 1.000000 0.375560 0.938305
Zn2   Zn    Zn3+2 0.508250 1.000000 0.624440 0.938297
Zn3   Zn    Zn3+2 0.991750 0.500000 0.375560 0.938296
Zn4   Zn    Zn3+2 0.008250 0.500000 0.624440 0.938304

loop_
_geom_bond_atom_site_label_1
_geom_bond_atom_site_label_2
_ccdc_geom_bond_type
C70   H51   S    
O12   Zn3   S    
C66   N12   S    
C8    C13   A    
C66   H37   S    
C62   H20   S    
C56   O13   A    
C73   H61   S    
C42   H17   S    
C17   N6    A    
C39   H11   S    
C63   H25   S    
O7    Zn3   S    
C25   C43   A    
C53   C59   A    
C68   N2    S    
C48   C57   A    
C14   H56   S    
C7    C11   A    
C38   H13   S    
C41   H14   S    
C62   N8    S    
C50   C59   A    
C28   C37   A    
C48   H3    S    
C37   H9    S    
C18   C37   A    
C35   N11   S    
C52   C61   A    
C68   H43   S    
C22   C41   A    
C73   H62   S    
C69   H47   S    
H18   N8    S    
C62   H21   S    
C64   N10   S    
C24   C49   A    
C5    N5    A    
C31   C40   A    
N5    Zn2   S    
C45   O5    A    
C65   H35   S    
H27   N10   S    
C68   H42   S    
C5    H12   S    
C10   C76   A    
C44   C53   A    
C21   C38   A    
C23   O3    A    
C29   C38   A    
C32   C41   A    
O3    Zn1   S    
C35   C43   A    
C65   H32   S    
C3    C13   A    
O11   Zn1   S    
C70   H50   S    
N6    Zn3   S    
H22   N9    S    
C40   H15   S    
C62   H19   S    
C47   H4    S    
C63   H26   S    
C18   C46   A    
O16   Zn2   S    
C67   O14   A    
C29   C61   A    
O10   Zn2   S    
C66   H39   S    
C35   C55   A    
C18   C23   S    
C34   O4    A    
C64   H29   S    
C16   H67   S    
C63   N9    S    
C11   C73   S    
C12   O9    A    
C15   N1    A    
O5    Zn4   S    
C33   N10   S    
C72   H59   S    
C46   H68   S    
O6    Zn3   S    
C69   H48   S    
C36   H10   S    
O9    Zn2   S    
O15   Zn3   S    
C12   C21   S    
C19   C34   S    
C49   C58   A    
C56   O6    A    
C30   C60   A    
C17   H66   S    
C14   C76   A    
C49   H6    S    
C52   H7    S    
C8    N6    A    
C5    C9    A    
C63   H24   S    
C68   H41   S    
C71   H53   S    
C23   O10   A    
O2    Zn1   S    
C72   H58   S    
C73   H60   S    
C46   C54   A    
C4    C11   A    
C64   H30   S    
C2    C15   A    
C65   H33   S    
C20   C48   A    
C7    N7    A    
C4    C17   A    
C74   H65   S    
N1    Zn1   S    
C75   O15   A    
C69   N3    S    
C70   N4    S    
C33   C42   A    
C34   O11   A    
C25   C45   S    
C32   C53   A    
C2    C76   A    
C19   C44   A    
C26   C42   A    
C47   C55   A    
C54   C58   A    
C70   H52   S    
C27   N12   S    
C64   H28   S    
C1    C20   S    
C33   C57   A    
N7    Zn4   S    
C66   H38   S    
O4    Zn2   S    
C8    H23   S    
C9    C71   S    
C6    H1    S    
H49   N4    S    
C26   C56   S    
C29   N3    S    
C24   C75   S    
C30   N4    S    
C28   C58   A    
C27   C36   A    
C74   H63   S    
C1    O16   A    
C28   N2    S    
C43   H16   S    
C7    H34   S    
C22   C50   A    
C19   C36   A    
C44   H2    S    
C20   C39   A    
C25   C52   A    
C65   N11   S    
C27   C59   A    
C26   C51   A    
C71   H54   S    
H40   N2    S    
C31   N8    S    
C72   H57   S    
C74   H64   S    
C69   H46   S    
C55   C61   A    
C14   N5    A    
C1    O1    A    
C24   C40   A    
O13   Zn4   S    
C30   C39   A    
O8    Zn4   S    
C16   N7    A    
C31   C54   A    
C15   H45   S    
C45   O12   A    
C22   C67   S    
C6    N1    A    
C6    C10   A    
C71   H55   S    
C32   N9    S    
C67   O7    A    
C57   C60   A    
O14   Zn4   S    
C13   C74   S    
H44   N3    S    
H36   N12   S    
C75   O8    A    
C51   C60   A    
C12   O2    A    
C2    C9    A    
C51   H8    S    
H31   N11   S    
C3    C16   A    
C3    C4    A    
C50   H5    S    
O1    Zn1   S    
C21   C47   A    
C10   C72   S    
