data_mof_unit_44246.cif
_audit_creation_date              2013-03-05T15:54:38-0500
_audit_creation_method            fapswitch 2.2
_symmetry_space_group_name_H-M    P1
_symmetry_Int_Tables_number       1
_space_group_crystal_system       triclinic
_cell_length_a                    14.032648
_cell_length_b                    14.046264
_cell_length_c                    30.086542
_cell_angle_alpha                 97.098853
_cell_angle_beta                  97.121782
_cell_angle_gamma                 61.314729
_cell_volume                      5148.28505966

loop_
_atom_site_label
_atom_site_type_symbol
_atom_site_description
_atom_site_fract_x
_atom_site_fract_y
_atom_site_fract_z
_atom_type_partial_charge
O1    O     O_R   0.688580 0.499770 0.460490 -0.493889
O2    O     O_R   0.480400 0.672610 0.462660 -0.505977
C1    C     C_R   0.385135 0.712235 0.442317 0.865596
O3    O     O_R   0.315310 0.685650 0.451800 -0.510180
O4    O     O_R   0.346220 0.474990 0.446280 -0.515343
C2    C     C_R   0.398626 0.381125 0.426544 0.801233
O5    O     O_R   0.492270 0.312460 0.441630 -0.542678
O6    O     O_R   0.669740 0.350480 0.455640 -0.546881
C3    C     C_R   0.710583 0.405006 0.442548 0.831227
O7    O     O_R   0.691150 0.501150 0.557860 -0.525630
O8    O     O_R   0.482790 0.673890 0.552920 -0.528547
C4    C     C_R   0.389721 0.711690 0.568226 0.810408
O9    O     O_R   0.317880 0.687030 0.549170 -0.511526
O10   O     O_R   0.348600 0.476260 0.536540 -0.508956
C5    C     C_R   0.401816 0.382785 0.552375 0.869118
O11   O     O_R   0.494840 0.313840 0.539010 -0.538128
O12   O     O_R   0.672120 0.351750 0.545910 -0.523445
C6    C     C_R   0.712902 0.407859 0.568565 0.809098
Cr1   Cr    Cr6+3 0.581000 0.584320 0.508140 1.100961
Cr2   Cr    Cr6+3 0.339110 0.576430 0.496080 1.091097
Cr3   Cr    Cr6+3 0.579910 0.339270 0.495810 1.016743
O13   O     O_3   0.500010 0.500010 0.500010 -0.376253
C7    C     C_1   0.364370 0.364018 0.381039 -0.088576
C8    C     C_R   0.242216 0.434301 0.270466 0.231699
C9    C     C_R   0.233778 0.427555 0.223093 0.291122
C10   C     C_R   0.392143 0.246779 0.222959 0.263639
C11   C     C_R   0.399475 0.254161 0.269661 -0.217132
C12   C     C_R   0.325158 0.346844 0.293432 -0.063733
C13   C     C_R   0.309642 0.333247 0.199456 -0.139376
C14   C     C_1   0.300108 0.321264 0.151230 0.147063
C15   C     C_1   0.342731 0.354773 0.341405 0.093184
C16   C     C_1   0.290515 0.303193 0.111314 -0.051335
H1    H     H_    0.464425 0.187753 0.287512 0.193078
H2    H     H_    0.933982 0.424544 0.114671 0.218032
H3    H     H_    0.893804 0.431174 0.190982 0.201110
C17   C     C_R   0.765090 0.365072 0.400208 -0.171997
C18   C     C_R   0.739146 0.293218 0.370873 -0.190608
C19   C     C_R   0.767866 0.269774 0.326972 -0.142118
C20   C     C_R   0.823745 0.316779 0.311548 -0.019593
C21   C     C_R   0.858957 0.381541 0.340983 0.262502
C22   C     C_R   0.830407 0.405327 0.385838 0.267755
C23   C     C_R   0.881533 0.374598 0.166032 -0.128880
C24   C     C_R   0.903358 0.371162 0.122180 -0.162757
C25   C     C_R   0.853954 0.226351 0.100786 0.320201
C26   C     C_R   0.831612 0.230502 0.145746 0.224274
C27   C     C_R   0.850009 0.302130 0.178231 -0.045120
C28   C     C_1   0.840795 0.301787 0.224870 0.090911
C29   C     C_1   0.834699 0.306090 0.264448 0.076328
C30   C     C_R   0.895690 0.293709 0.089657 -0.215720
H4    H     H_    0.690068 0.260104 0.380831 0.178618
H5    H     H_    0.741327 0.219306 0.304346 0.176372
H6    H     H_    0.201397 0.824797 0.171367 0.191749
H7    H     H_    0.199491 0.830869 0.304827 0.197455
C31   C     C_R   0.363298 0.774299 0.402163 -0.292943
C32   C     C_R   0.445021 0.796077 0.389309 0.282019
C33   C     C_R   0.441560 0.820517 0.344950 0.230546
C34   C     C_R   0.355488 0.827098 0.314274 -0.085460
C35   C     C_R   0.268257 0.820461 0.328404 -0.185689
C36   C     C_R   0.270035 0.796189 0.372047 0.272236
C37   C     C_R   0.256318 0.841387 0.155263 -0.144361
C38   C     C_R   0.236463 0.860333 0.109878 0.260050
C39   C     C_R   0.402695 0.877129 0.113359 0.333423
C40   C     C_R   0.419349 0.860345 0.159295 -0.145800
C41   C     C_R   0.343669 0.847485 0.180334 -0.036910
C42   C     C_1   0.353685 0.841075 0.227827 0.062684
C43   C     C_1   0.356387 0.836171 0.267500 0.100120
C44   C     C_R   0.303837 0.889375 0.089339 -0.255472
H8    H     H_    0.491194 0.857199 0.178622 0.207574
C45   C     C_R   0.366966 0.361870 0.593032 -0.223564
C46   C     C_R   0.443550 0.273487 0.617279 -0.176425
C47   C     C_R   0.429174 0.265341 0.661200 0.312235
C48   C     C_R   0.337390 0.346396 0.681852 -0.143836
C49   C     C_R   0.253584 0.429159 0.656844 0.351691
C50   C     C_R   0.267402 0.435926 0.611879 0.223344
C51   C     C_R   0.231784 0.420440 0.836934 0.264519
C52   C     C_R   0.216751 0.400637 0.879620 0.284228
C53   C     C_R   0.399300 0.246570 0.882358 -0.242393
C54   C     C_R   0.416215 0.267441 0.840601 0.357537
C55   C     C_R   0.329361 0.350149 0.816735 -0.188228
C56   C     C_1   0.332761 0.351381 0.769348 0.235365
C57   C     C_1   0.334051 0.349480 0.729455 0.229291
C58   C     C_R   0.298630 0.308493 0.901221 -0.272195
H9    H     H_    0.518784 0.213419 0.603212 0.218762
H10   H     H_    0.464327 0.179015 0.899526 0.223844
C59   C     C_1   0.760504 0.377302 0.612762 -0.065085
C60   C     C_R   0.813571 0.417998 0.728909 -0.095997
C61   C     C_R   0.832673 0.403412 0.774646 -0.108526
C62   C     C_R   0.848573 0.221985 0.759915 0.307595
C63   C     C_R   0.829200 0.236801 0.713277 0.309087
C64   C     C_R   0.812261 0.335498 0.698135 -0.051985
C65   C     C_R   0.849997 0.306402 0.790389 -0.070759
C66   C     C_1   0.874992 0.293728 0.837834 0.131458
C67   C     C_1   0.788653 0.356090 0.651304 0.125806
C68   C     C_1   0.904118 0.283080 0.877067 -0.046169
H11   H     H_    0.799768 0.494118 0.717466 0.186324
H12   H     H_    0.834563 0.468029 0.797889 0.201935
C69   C     C_1   0.376677 0.757968 0.613603 -0.032733
C70   C     C_R   0.386745 0.718756 0.727475 0.322949
C71   C     C_R   0.374164 0.738689 0.774013 0.260293
C72   C     C_R   0.315639 0.930105 0.768048 -0.220589
C73   C     C_R   0.328250 0.912264 0.721753 0.386123
C74   C     C_R   0.362054 0.805992 0.701180 -0.183952
C75   C     C_R   0.337467 0.844845 0.793975 -0.065624
C76   C     C_1   0.317107 0.870500 0.840844 0.129163
C77   C     C_1   0.369139 0.784607 0.653167 0.204153
C78   C     C_1   0.295001 0.900863 0.879215 -0.077649
H13   H     H_    0.288465 0.011419 0.784162 0.184025
O14   O     O_R   0.167510 0.972920 0.030390 -0.508061
O15   O     O_R   0.990840 0.178580 0.027590 -0.506821
C79   C     C_R   0.949898 0.273600 0.047977 0.850046
O16   O     O_R   0.972840 0.345510 0.038590 -0.540040
O17   O     O_R   0.181550 0.320660 0.045200 -0.528325
C80   C     C_R   0.275391 0.270175 0.065411 0.801225
O18   O     O_R   0.346150 0.177650 0.050510 -0.510472
O19   O     O_R   0.314200 0.996600 0.036060 -0.508601
C81   C     C_R   0.262258 0.951218 0.048307 0.849753
O20   O     O_R   0.168690 0.969990 0.933130 -0.512402
O21   O     O_R   0.991920 0.175870 0.937430 -0.519645
C82   C     C_R   0.951938 0.269257 0.922173 0.816260
O22   O     O_R   0.974010 0.342590 0.941330 -0.506614
O23   O     O_R   0.182630 0.317940 0.955040 -0.500934
C83   C     C_R   0.276700 0.267237 0.939769 0.857478
O24   O     O_R   0.347320 0.174720 0.953250 -0.540507
O25   O     O_R   0.315290 0.993890 0.945900 -0.531972
C84   C     C_R   0.261756 0.950490 0.922978 0.808915
Cr4   Cr    Cr6+3 0.082090 0.079210 0.982490 1.108119
Cr5   Cr    Cr6+3 0.082460 0.324610 0.994920 1.085778
Cr6   Cr    Cr6+3 0.323630 0.087860 0.996130 1.076720
O26   O     O_3   0.162730 0.163890 0.991180 -0.385588
Br1   Br    Br    0.138781 0.560733 0.303788 -0.275675
Br2   Br    Br    0.773627 0.141953 0.163037 -0.304182
N1    N     N_R   0.833050 0.156148 0.066682 0.150912
O27   O     O_R   0.781626 0.193253 0.028499 -0.339962
O28   O     O_R   0.867853 0.054383 0.072957 -0.270511
Br3   Br    Br    0.116479 0.843208 0.079015 -0.279459
Br4   Br    Br    0.141547 0.793661 0.386633 -0.337413
N2    N     N_R   0.531083 0.793965 0.421069 0.157951
O29   O     O_R   0.508029 0.855409 0.458394 -0.335140
O30   O     O_R   0.632367 0.728014 0.413599 -0.287663
N3    N     N_R   0.487362 0.878763 0.091489 0.143446
O31   O     O_R   0.551897 0.913193 0.113752 -0.292301
O32   O     O_R   0.512359 0.828197 0.052006 -0.334475
N4    N     N_R   0.148791 0.515781 0.199208 0.147041
O33   O     O_R   0.084820 0.497980 0.168114 -0.360263
O34   O     O_R   0.137899 0.613540 0.207188 -0.310904
Br5   Br    Br    0.553358 0.846119 0.326197 -0.335755
N5    N     N_R   0.119291 0.474984 0.900909 0.164151
O35   O     O_R   0.028367 0.472547 0.888295 -0.321735
O36   O     O_R   0.124010 0.537092 0.936025 -0.313162
N6    N     N_R   0.147638 0.510893 0.813763 0.180449
O37   O     O_R   0.049165 0.523113 0.807029 -0.286887
O38   O     O_R   0.171654 0.575388 0.795620 -0.279028
N7    N     N_R   0.156377 0.508021 0.677527 0.168723
O39   O     O_R   0.103271 0.476467 0.699349 -0.317191
O40   O     O_R   0.125293 0.611456 0.677523 -0.252129
Br6   Br    Br    0.147101 0.542461 0.576751 -0.285791
N8    N     N_R   0.520326 0.201872 0.822166 0.154000
O41   O     O_R   0.558861 0.244995 0.798291 -0.307700
O42   O     O_R   0.582738 0.102881 0.833628 -0.301582
Br7   Br    Br    0.541259 0.145573 0.692730 -0.213754
Br8   Br    Br    0.497289 0.116637 0.192637 -0.363357
N9    N     N_R   0.863687 0.123206 0.776148 0.178316
O43   O     O_R   0.944338 0.071382 0.805147 -0.334773
O44   O     O_R   0.796415 0.084854 0.762093 -0.227091
N10   N     N_R   0.830703 0.150724 0.681561 0.161073
O45   O     O_R   0.910205 0.052032 0.684212 -0.276713
O46   O     O_R   0.753749 0.170753 0.649494 -0.335995
N11   N     N_R   0.423607 0.610123 0.706916 0.117334
O47   O     O_R   0.515798 0.531027 0.721203 -0.346906
O48   O     O_R   0.366264 0.590216 0.673312 -0.367124
Br9   Br    Br    0.400260 0.622389 0.809723 -0.320515
N12   N     N_R   0.305781 0.002666 0.696521 0.131969
O49   O     O_R   0.357687 0.988020 0.661241 -0.343272
O50   O     O_R   0.241385 0.101815 0.711407 -0.353282
Br10  Br    Br    0.941646 0.440664 0.319112 -0.363757
Br11  Br    Br    0.882560 0.490277 0.426648 -0.276456

loop_
_geom_bond_atom_site_label_1
_geom_bond_atom_site_label_2
_geom_bond_distance
_ccdc_geom_bond_type
C25   C30   1.417431 A    
O6    C3    1.273636 A    
C71   C75   1.402654 A    
C32   C33   1.408024 A    
N10   O45   1.301254 A    
C61   C65   1.397553 A    
N6    O37   1.300553 A    
C49   C50   1.411117 A    
C31   C32   1.426270 A    
N5    O35   1.300688 A    
C34   C43   1.430740 S    
C44   C81   1.489597 S    
Cr6   O26   1.975276 S    
C76   C78   1.204561 T    
O24   Cr6   2.036707 S    
O22   Cr5   2.025506 S    
O4    Cr2   1.912596 S    
C53   C54   1.397285 A    
C11   H1    1.084219 S    
C47   Br7   1.920463 S    
N2    O30   1.300952 A    
C78   C84   1.431940 S    
O8    Cr1   1.916833 S    
C10   C11   1.390695 A    
N8    O41   1.301373 A    
C39   C44   1.424544 A    
C74   C77   1.444481 S    
C17   C18   1.408196 A    
N5    O36   1.300757 A    
C18   C19   1.382953 A    
N3    O32   1.301629 A    
O23   Cr5   1.920485 S    
C19   C20   1.388900 A    
C56   C57   1.199431 T    
C1    C31   1.491789 S    
C71   Br9   1.928459 S    
C51   N6    1.438441 S    
N4    O33   1.301144 A    
C36   Br4   1.925166 S    
C33   C34   1.398808 A    
C73   N12   1.443154 S    
C23   C27   1.389740 A    
H3    C23   1.084675 S    
O21   C82   1.274597 A    
O17   Cr5   1.910521 S    
H6    C37   1.084387 S    
C79   O16   1.268413 A    
C59   C67   1.203454 T    
N7    O39   1.301217 A    
C52   N5    1.432481 S    
N1    O27   1.301322 A    
C3    C17   1.474973 S    
C46   C47   1.387684 A    
C16   C80   1.425119 S    
N7    O40   1.301058 A    
O20   Cr4   2.032343 S    
C48   C57   1.433408 S    
O25   Cr6   1.910805 S    
C69   C77   1.204681 T    
C62   C63   1.417515 A    
N11   O48   1.300875 A    
N10   O46   1.301223 A    
Cr3   O13   1.976144 S    
C17   C22   1.415262 A    
C9    N4    1.436398 S    
O17   C80   1.272115 A    
N12   O50   1.301828 A    
O6    Cr3   1.920882 S    
N9    O44   1.301174 A    
C31   C36   1.420131 A    
C9    C13   1.412417 A    
C5    C45   1.482153 S    
O1    Cr1   2.034546 S    
C6    C59   1.429754 S    
C5    O11   1.274311 A    
C73   C74   1.414573 A    
O10   Cr2   1.918983 S    
Cr1   O13   1.976214 S    
O1    C3    1.275808 A    
N3    O31   1.301002 A    
C80   O18   1.266299 A    
C60   C64   1.396949 A    
C52   C58   1.418747 A    
C65   C66   1.439137 S    
C54   C55   1.407338 A    
C24   C30   1.405636 A    
C19   H5    1.084410 S    
C53   H10   1.083019 S    
C35   C36   1.391170 A    
C70   C74   1.418241 A    
C72   C75   1.398570 A    
O12   Cr3   1.909428 S    
O19   Cr6   1.920109 S    
C55   C56   1.434909 S    
C37   C38   1.391875 A    
C7    C15   1.200324 T    
N8    O42   1.301490 A    
C51   C52   1.408192 A    
Cr5   O26   1.976187 S    
C13   C14   1.436881 S    
C8    Br1   1.926629 S    
O18   Cr6   2.027753 S    
C68   C82   1.429665 S    
C38   C44   1.421110 A    
C54   N8    1.439852 S    
C28   C29   1.196419 T    
C62   C65   1.412984 A    
O7    Cr1   2.028982 S    
C82   O22   1.266650 A    
C61   H12   1.084047 S    
C39   C40   1.402790 A    
C66   C68   1.203342 T    
O12   C6    1.271508 A    
C4    C69   1.431200 S    
C50   Br6   1.931187 S    
C45   C50   1.418119 A    
C27   C28   1.425835 S    
C8    C9    1.410668 A    
C46   H9    1.083031 S    
C63   N10   1.438118 S    
O23   C83   1.275862 A    
C21   C22   1.409786 A    
C22   Br11  1.928820 S    
Cr2   O13   1.975504 S    
C26   Br2   1.927734 S    
O16   Cr5   2.037399 S    
N6    O38   1.301201 A    
C23   C24   1.380973 A    
Cr4   O26   1.976236 S    
C1    O3    1.275856 A    
C20   C21   1.407045 A    
N12   O49   1.301300 A    
C38   Br3   1.923751 S    
C64   C67   1.439344 S    
N9    O43   1.301234 A    
N4    O34   1.301019 A    
C40   H8    1.083839 S    
N11   O47   1.301178 A    
C72   H13   1.084359 S    
O9    Cr2   2.028273 S    
O2    Cr1   1.913881 S    
C60   C61   1.390277 A    
C12   C15   1.433477 S    
H2    C24   1.083141 S    
C8    C12   1.406754 A    
C48   C49   1.408868 A    
C21   Br10  1.928349 S    
H7    C35   1.084531 S    
O11   Cr3   2.037347 S    
C2    O5    1.267537 A    
C25   N1    1.436735 S    
N2    O29   1.301203 A    
C10   Br8   1.919160 S    
C32   N2    1.434909 S    
C37   C41   1.390804 A    
O14   Cr4   2.031787 S    
C41   C42   1.428111 S    
O14   C81   1.274788 A    
O2    C1    1.280049 A    
C83   O24   1.276568 A    
C47   C48   1.398937 A    
O5    Cr3   2.026635 S    
O15   C79   1.279291 A    
C14   C16   1.200879 T    
C18   H4    1.083298 S    
C34   C35   1.391480 A    
O4    C2    1.271102 A    
C51   C55   1.406857 A    
C53   C58   1.404090 A    
O7    C6    1.268840 A    
C62   N9    1.438025 S    
C2    C7    1.424644 S    
C72   C73   1.402305 A    
C42   C43   1.198973 T    
C33   Br5   1.928753 S    
C45   C46   1.406046 A    
C25   C26   1.414088 A    
C60   H11   1.083929 S    
C40   C41   1.392919 A    
O3    Cr2   2.035415 S    
C26   C27   1.406351 A    
O15   Cr4   1.917277 S    
O25   C84   1.272332 A    
C4    O9    1.267992 A    
C10   C13   1.405309 A    
N1    O28   1.300418 A    
C70   C71   1.409611 A    
C49   N7    1.436846 S    
C75   C76   1.440643 S    
O10   C5    1.278160 A    
C30   C79   1.474332 S    
O21   Cr4   1.913823 S    
C39   N3    1.438347 S    
C63   C64   1.413801 A    
O20   C84   1.268340 A    
C58   C83   1.483712 S    
C70   N11   1.437643 S    
O19   C81   1.282210 A    
O8    C4    1.273827 A    
C20   C29   1.426030 S    
C11   C12   1.394749 A    
