data_mof_unit_66366.cif
_audit_creation_date              2012-12-10T16:57:49-0500
_audit_creation_method            fapswitch 2.2
_symmetry_space_group_name_H-M    P1
_symmetry_Int_Tables_number       1
_space_group_crystal_system       triclinic
_cell_length_a                    10.673382
_cell_length_b                    10.962547
_cell_length_c                    9.753691
_cell_angle_alpha                 90.637988
_cell_angle_beta                  90.085333
_cell_angle_gamma                 90.419242
_cell_volume                      1141.15182167

loop_
_atom_site_label
_atom_site_type_symbol
_atom_type_description
_atom_site_fract_x
_atom_site_fract_y
_atom_site_fract_z
_atom_type_partial_charge
C1    C     C_R   0.495171 0.265704 0.499113 0.790840
C2    C     C_3   0.958464 0.600734 0.438178 0.465651
C3    C     C_3   0.039252 0.501281 0.371181 0.207853
C4    C     C_3   0.123907 0.500118 0.498856 -0.465309
C5    C     C_2   0.500253 0.933015 0.392691 0.538895
C6    C     C_2   0.530525 0.865853 0.502367 0.199397
C7    C     C_2   0.522068 0.065376 0.393596 0.361918
C8    C     C_2   0.474629 0.133918 0.496567 0.259945
C9    C     C_2   0.435935 0.422821 0.922269 0.771642
C10   C     C_2   0.420897 0.437385 0.075823 0.802625
C11   C     C_R   0.259932 0.500055 0.499690 0.981886
C12   C     C_R   0.506713 0.734329 0.500665 0.775810
C13   C     C_R   0.740056 0.499988 0.500307 0.957669
C14   C     C_3   0.041481 0.399315 0.561840 0.493405
C15   C     C_3   0.957092 0.400474 0.433253 0.498911
C16   C     C_3   0.876054 0.499937 0.501134 -0.462443
C17   C     C_3   0.960675 0.498788 0.628823 0.187652
C18   C     C_3   0.042852 0.599578 0.566747 0.494472
Cu1   Cu    Cu3+1 0.500030 0.500020 0.638630 1.134145
Cu2   Cu    Cu3+1 0.499970 0.499980 0.361370 1.170370
N1    N     N_2   0.498620 0.498660 0.846910 -0.086224
N2    N     N_2   0.498590 0.498630 0.153040 -0.084995
O1    O     O_R   0.500020 0.321960 0.617040 -0.554204
O2    O     O_R   0.499980 0.321920 0.382900 -0.522506
O3    O     O_R   0.316870 0.499990 0.617050 -0.544812
O4    O     O_R   0.316830 0.499950 0.382910 -0.506769
O5    O     O_R   0.500020 0.678080 0.617100 -0.602219
O6    O     O_R   0.499980 0.678040 0.382960 -0.537893
O7    O     O_R   0.683170 0.500050 0.617090 -0.547378
O8    O     O_R   0.683130 0.500010 0.382950 -0.577754
F1    F     F_    0.911785 0.298729 0.363756 -0.533410
O9    O     O_3   0.400028 0.079914 0.595498 -0.649180
H1    H     H_    0.364989 0.144218 0.656141 0.405740
F2    F     F_    0.378058 0.325923 0.861005 -0.611934
O10   O     O_3   0.514777 0.610535 0.901979 -0.605071
H2    H     H_    0.575077 0.652185 0.841338 0.391748
F3    F     F_    0.321742 0.380573 0.135116 -0.583230
O11   O     O_3   0.613353 0.514932 0.099603 -0.610989
H3    H     H_    0.655518 0.574776 0.160823 0.400938
F4    F     F_    0.085444 0.296375 0.626313 -0.536653
O12   O     O_3   0.917565 0.497482 0.764086 -0.589615
H4    H     H_    0.994021 0.496857 0.821878 0.383050
F5    F     F_    0.088103 0.701346 0.636232 -0.540488
F6    F     F_    0.914525 0.703680 0.373705 -0.562799
O13   O     O_3   0.082147 0.502779 0.235863 -0.553591
H5    H     H_    0.005612 0.502670 0.178177 0.378079
F7    F     F_    0.449356 0.881849 0.277384 -0.600681
O14   O     O_3   0.591020 0.921128 0.612925 -0.671766
H6    H     H_    0.615819 0.858085 0.679456 0.364974
O15   O     O_3   0.590065 0.118458 0.289005 -0.656327
H7    H     H_    0.618104 0.052990 0.225354 0.380624

loop_
_geom_bond_atom_site_label_1
_geom_bond_atom_site_label_2
_ccdc_geom_bond_type
Cu1   O1    S    
C15   F1    S    
N1    O10   S    
C2    C18   S    
C1    C8    S    
C2    C16   S    
C9    C10   S    
O10   H2    S    
C4    C18   S    
O9    H1    S    
C1    O1    A    
C17   C18   S    
C3    C15   S    
C7    C8    D    
Cu1   O7    S    
Cu2   O8    S    
C18   F5    S    
C10   N2    D    
C4    C11   S    
C6    C12   S    
C5    F7    S    
C14   C17   S    
C9    N1    D    
C5    C6    D    
C6    O14   S    
C12   O6    A    
C10   F3    S    
C13   O7    A    
O14   H6    S    
Cu1   N1    S    
Cu2   N2    S    
C2    C3    S    
C4    C14   S    
C9    F2    S    
Cu1   O3    S    
C17   O12   S    
C11   O3    A    
C12   O5    A    
C14   F4    S    
C15   C16   S    
C8    O9    S    
Cu2   O2    S    
C13   O8    A    
Cu1   O5    S    
C1    O2    A    
O12   H4    S    
C13   C16   S    
C5    C7    S    
C14   C15   S    
Cu2   O6    S    
C11   O4    A    
O15   H7    S    
O13   H5    S    
C3    O13   S    
C3    C4    S    
Cu1   Cu2   S    
C7    O15   S    
C2    F6    S    
C16   C17   S    
Cu2   O4    S    
N2    O11   S    
O11   H3    S    
