data_mof_unit_41217.cif
_audit_creation_date              2012-12-10T17:48:57-0500
_audit_creation_method            fapswitch 2.2
_symmetry_space_group_name_H-M    P1
_symmetry_Int_Tables_number       1
_space_group_crystal_system       triclinic
_cell_length_a                    10.836884
_cell_length_b                    14.75146
_cell_length_c                    14.818332
_cell_angle_alpha                 64.050723
_cell_angle_beta                  105.543729
_cell_angle_gamma                 104.167906
_cell_volume                      2029.77946746

loop_
_atom_site_label
_atom_site_type_symbol
_atom_type_description
_atom_site_fract_x
_atom_site_fract_y
_atom_site_fract_z
_atom_type_partial_charge
C1    C     C_R   0.480317 0.120364 0.311705 0.909527
C2    C     C_3   0.876412 0.002516 0.498307 -0.184923
C3    C     C_3   0.930812 0.915998 0.599031 0.043935
C4    C     C_3   0.961042 0.106679 0.491193 0.209378
C5    C     C_R   0.453868 0.188742 0.202643 -0.091845
C6    C     C_R   0.515643 0.811581 0.795728 -0.039743
C7    C     C_R   0.345797 0.213545 0.028502 0.382835
C8    C     C_R   0.384254 0.149288 0.130214 -0.298915
C9    C     C_R   0.490401 0.294249 0.172111 0.349584
C10   C     C_R   0.433136 0.361034 0.074748 -0.058888
C11   C     C_R   0.368046 0.320586 0.000254 -0.087222
C12   C     C_R   0.259005 0.998179 0.501010 0.992667
C13   C     C_R   0.440338 0.466786 0.049391 0.043469
C14   C     C_R   0.413632 0.534193 0.945622 -0.039178
C15   C     C_R   0.343913 0.492765 0.872683 0.336115
C16   C     C_R   0.323626 0.387854 0.900545 -0.088796
C17   C     C_R   0.466127 0.506769 0.124749 -0.139478
C18   C     C_R   0.488249 0.611449 0.098513 -0.204966
C19   C     C_R   0.490877 0.678595 0.997127 0.162010
C20   C     C_R   0.456835 0.640056 0.919995 0.075376
C21   C     C_R   0.529725 0.783452 0.971934 -0.181039
C22   C     C_R   0.540788 0.849737 0.871558 -0.098004
C23   C     C_R   0.519756 0.879746 0.688161 0.862174
C24   C     C_R   0.477105 0.706996 0.821300 -0.227377
C25   C     C_R   0.735383 0.292018 0.657128 -0.262899
C26   C     C_R   0.692496 0.206954 0.633004 0.122457
C27   C     C_R   0.515983 0.283798 0.511128 0.065402
C28   C     C_R   0.555471 0.373520 0.531296 0.003016
C29   C     C_R   0.667765 0.375765 0.606162 0.160007
C30   C     C_R   0.489554 0.460972 0.479085 0.007025
C31   C     C_R   0.531207 0.546200 0.508024 0.105621
C32   C     C_R   0.648854 0.546790 0.577920 -0.205848
C33   C     C_R   0.714294 0.462762 0.627090 -0.180819
C34   C     C_R   0.739265 0.002036 0.497953 0.919931
C35   C     C_R   0.388648 0.468236 0.394853 -0.220480
C36   C     C_R   0.332951 0.556329 0.337651 0.446679
C37   C     C_R   0.364530 0.636623 0.371339 -0.095760
C38   C     C_R   0.458829 0.630790 0.460301 -0.147340
C39   C     C_R   0.301344 0.721941 0.317983 -0.230153
C40   C     C_R   0.329825 0.801311 0.349608 0.564894
C41   C     C_R   0.475615 0.710554 0.496290 0.543237
C42   C     C_3   0.020352 0.966537 0.407827 0.655452
C43   C     C_3   0.881802 0.981201 0.405911 -0.538261
C44   C     C_3   0.080591 0.919508 0.607900 0.555377
C45   C     C_3   0.101046 0.106382 0.483924 0.097287
C46   C     C_3   0.118363 0.996499 0.499451 -0.287900
Cu1   Cu    Cu3+1 0.465900 0.918260 0.475680 1.054495
Cu2   Cu    Cu3+1 0.534100 0.081740 0.524320 1.055353
H1    H     H_    0.965772 0.114610 0.563306 0.214137
H2    H     H_    0.268974 0.360179 0.842764 0.231397
H3    H     H_    0.466248 0.677652 0.764068 0.212484
H4    H     H_    0.569725 0.930509 0.853514 0.179216
H5    H     H_    0.509794 0.639608 0.158283 0.151208
H6    H     H_    0.359215 0.067720 0.153324 0.234005
H7    H     H_    0.467008 0.457569 0.204448 0.194500
H8    H     H_    0.553036 0.813930 0.030059 0.152349
H9    H     H_    0.803574 0.466634 0.680963 0.164316
H10   H     H_    0.821898 0.292872 0.714298 0.175072
H11   H     H_    0.745732 0.142875 0.671137 0.153739
H12   H     H_    0.430743 0.274434 0.456809 0.134088
H13   H     H_    0.841252 0.041339 0.334489 0.205205
H14   H     H_    0.696433 0.613605 0.592398 0.206330
H15   H     H_    0.356957 0.409410 0.365746 0.157122
H16   H     H_    0.227718 0.728941 0.250471 0.206507
H17   H     H_    0.810531 0.913287 0.404369 0.239712
H18   H     H_    0.876777 0.842757 0.595843 0.195892
H19   H     H_    0.167392 0.126265 0.546333 0.173201
N1    N     N_R   0.585360 0.204570 0.560800 -0.190685
N2    N     N_R   0.414550 0.795430 0.439160 -0.238820
O1    O     O_R   0.455060 0.022100 0.338110 -0.619072
O2    O     O_R   0.512640 0.160150 0.379180 -0.527332
O3    O     O_R   0.288900 0.930980 0.479450 -0.553872
O4    O     O_R   0.346480 0.069030 0.520520 -0.562405
O5    O     O_R   0.487360 0.839850 0.620820 -0.528389
O6    O     O_R   0.544940 0.977900 0.661890 -0.577615
O7    O     O_R   0.653520 0.930970 0.479480 -0.590595
O8    O     O_R   0.711100 0.069020 0.520550 -0.553218
S1    S     S_3+6 0.002456 0.831406 0.423895 0.047279
O9    O     O_2   0.934190 0.821342 0.325419 -0.214877
O10   O     O_2   0.127177 0.789315 0.457050 -0.246105
O11   O     O_3   0.908618 0.752865 0.509875 -0.583781
H20   H     H_    0.905378 0.684065 0.512516 0.383169
S2    S     S_3+6 0.175079 0.950821 0.716763 0.020637
O12   O     O_2   0.316744 0.977319 0.713382 -0.314582
O13   O     O_2   0.131128 0.037760 0.720977 -0.228483
O14   O     O_3   0.155131 0.847940 0.825497 -0.523449
H21   H     H_    0.216470 0.865662 0.880323 0.391265
O15   O     O_3   0.902963 0.922533 0.683436 -0.680181
H22   H     H_    0.900508 0.853170 0.738961 0.361498
S3    S     S_3+6 0.264293 0.156148 0.941100 0.035718
O16   O     O_2   0.127821 0.179656 0.903032 -0.242173
O17   O     O_2   0.332251 0.198453 0.851700 -0.276203
O18   O     O_3   0.259557 0.028779 0.996971 -0.477442
H23   H     H_    0.348189 0.017356 0.002654 0.346721
O19   O     O_3   0.589435 0.328912 0.235572 -0.713831
H24   H     H_    0.641469 0.390117 0.192228 0.339587
S4    S     S_3+6 0.062556 0.050686 0.280604 0.055461
O20   O     O_2   0.991612 0.141442 0.229166 -0.264017
O21   O     O_2   0.204277 0.090546 0.290108 -0.336731
O22   O     O_3   0.026445 0.991263 0.200437 -0.433955
H25   H     H_    0.068357 0.038660 0.141440 0.399993
O23   O     O_3   0.280892 0.550151 0.777160 -0.716577
H26   H     H_    0.252398 0.606548 0.782029 0.351167
O24   O     O_3   0.546874 0.702094 0.590548 -0.716391
H27   H     H_    0.523054 0.631382 0.639152 0.313483
O25   O     O_3   0.268615 0.884414 0.286289 -0.679447
H28   H     H_    0.259885 0.917976 0.327752 0.406819
O26   O     O_3   0.245595 0.559854 0.249644 -0.701476
H29   H     H_    0.264261 0.627901 0.195058 0.319530
O27   O     O_3   0.105932 0.822321 0.629378 -0.667997
H30   H     H_    0.069818 0.772691 0.690811 0.355783
O28   O     O_3   0.135881 0.182104 0.392259 -0.627255
H31   H     H_    0.152887 0.248631 0.398480 0.353002
O29   O     O_3   0.905910 0.191293 0.412561 -0.674709
H32   H     H_    0.900623 0.188771 0.346045 0.386599

loop_
_geom_bond_atom_site_label_1
_geom_bond_atom_site_label_2
_ccdc_geom_bond_type
O18   H23   S    
C36   O26   S    
O19   H24   S    
C44   S2    S    
S4    O20   D    
C45   O28   S    
C7    C8    A    
C45   C46   S    
C7    C11   A    
C39   H16   S    
C1    O2    A    
C30   C35   A    
S2    O12   D    
C1    C5    S    
C4    O29   S    
C36   C37   A    
C19   C21   A    
C16   H2    S    
Cu1   O7    S    
C27   H12   S    
C34   O8    A    
C30   C31   A    
S1    O10   D    
O25   H28   S    
C15   C16   A    
C6    C22   A    
C29   C33   A    
O26   H29   S    
C18   C19   A    
C42   C46   S    
C20   C24   A    
O27   H30   S    
O28   H31   S    
C27   N1    A    
C18   H5    S    
Cu1   N2    S    
C19   C20   A    
C45   H19   S    
C9    C10   A    
C17   H7    S    
C2    C34   S    
C24   H3    S    
C12   O3    A    
C21   C22   A    
Cu2   O6    S    
C12   O4    A    
O24   H27   S    
S4    O21   D    
C44   C46   S    
O11   H20   S    
C4    C45   S    
C25   C29   A    
C3    C44   S    
C40   N2    A    
C14   C20   A    
C38   C41   A    
C12   C46   S    
C42   S4    S    
C8    H6    S    
C39   C40   A    
O14   H21   S    
C25   C26   A    
C7    S3    S    
C35   C36   A    
Cu2   O8    S    
C2    C4    S    
Cu1   O1    S    
C5    C9    A    
C37   C38   A    
C21   H8    S    
C11   C16   A    
S3    O17   D    
Cu1   Cu2   S    
C2    C43   S    
C43   H17   S    
C6    C24   A    
C17   C18   A    
Cu2   N1    S    
S2    O13   D    
C42   S1    S    
C3    H18   S    
C42   C43   S    
C23   O5    A    
S4    O22   S    
C43   H13   S    
S3    O18   S    
C40   O25   S    
C26   H11   S    
C9    O19   S    
C28   C29   A    
C33   H9    S    
C3    O15   S    
S1    O9    D    
Cu2   O4    S    
C31   C32   A    
Cu1   O5    S    
C23   O6    A    
C10   C13   A    
C5    C8    A    
C41   O24   S    
O29   H32   S    
C1    O1    A    
C31   C38   A    
C13   C17   A    
C4    H1    S    
C26   N1    A    
C32   C33   A    
C28   C30   A    
C2    C3    S    
C32   H14   S    
C37   C39   A    
S1    O11   S    
S3    O16   D    
C6    C23   S    
O22   H25   S    
C22   H4    S    
C15   O23   S    
O23   H26   S    
Cu1   O3    S    
C10   C11   A    
S2    O14   S    
O15   H22   S    
C25   H10   S    
C27   C28   A    
C14   C15   A    
C35   H15   S    
Cu2   O2    S    
C13   C14   A    
C41   N2    A    
C34   O7    A    
C44   O27   S    
