data_mof_unit_46628.cif
_audit_creation_date              2012-12-11T14:38:13-0500
_audit_creation_method            fapswitch 2.2
_symmetry_space_group_name_H-M    P1
_symmetry_Int_Tables_number       1
_space_group_crystal_system       triclinic
_cell_length_a                    19.675708
_cell_length_b                    11.088043
_cell_length_c                    19.61292
_cell_angle_alpha                 90.130469
_cell_angle_beta                  96.758374
_cell_angle_gamma                 89.904236
_cell_volume                      4249.10670744

loop_
_atom_site_label
_atom_site_type_symbol
_atom_type_description
_atom_site_fract_x
_atom_site_fract_y
_atom_site_fract_z
_atom_type_partial_charge
C1    C     C_R   0.724321 0.954905 0.360677 0.541099
C2    C     C_R   0.275865 0.955078 0.639233 0.552045
C3    C     C_R   0.224320 0.454907 0.360677 0.547733
C4    C     C_R   0.775864 0.455077 0.639233 0.545634
C5    C     C_3   0.681534 0.450166 0.457305 -0.233193
C6    C     C_3   0.319304 0.447867 0.542628 -0.232842
C7    C     C_3   0.181535 0.950167 0.457304 -0.233137
C8    C     C_3   0.819306 0.947863 0.542626 -0.232906
C9    C     C_3   0.824128 0.483710 0.530921 -0.210001
C10   C     C_3   0.176961 0.483317 0.469412 -0.209226
C11   C     C_3   0.324129 0.983715 0.530919 -0.211296
C12   C     C_3   0.676964 0.983310 0.469411 -0.207929
C13   C     C_3   0.763481 0.293023 0.553768 -0.263366
C14   C     C_3   0.237012 0.292381 0.445670 -0.262079
C15   C     C_3   0.263484 0.793026 0.553765 -0.262893
C16   C     C_3   0.737015 0.792376 0.445667 -0.262543
C17   C     C_3   0.763287 0.428247 0.566458 0.065903
C18   C     C_3   0.237366 0.427547 0.433444 0.063571
C19   C     C_3   0.263288 0.928250 0.566456 0.064127
C20   C     C_3   0.737369 0.927542 0.433442 0.065350
C21   C     C_3   0.747425 0.393396 0.434919 0.054441
C22   C     C_3   0.253211 0.392030 0.564906 0.055249
C23   C     C_3   0.247425 0.893398 0.434918 0.055490
C24   C     C_3   0.753213 0.892025 0.564904 0.054170
C25   C     C_3   0.807949 0.479376 0.452435 -0.256879
C26   C     C_3   0.193085 0.478929 0.547769 -0.254801
C27   C     C_3   0.307949 0.979380 0.452433 -0.256373
C28   C     C_3   0.693088 0.978924 0.547767 -0.255282
C29   C     C_3   0.765201 0.275667 0.476719 -0.221411
C30   C     C_3   0.235255 0.274578 0.522706 -0.222514
C31   C     C_3   0.265203 0.775670 0.476718 -0.221543
C32   C     C_3   0.735257 0.774572 0.522704 -0.222382
C33   C     C_3   0.531618 0.299669 0.953833 -0.238465
C34   C     C_3   0.545538 0.305916 0.031417 -0.232045
C35   C     C_3   0.954244 0.806091 0.968845 -0.232274
C36   C     C_3   0.968141 0.799684 0.046422 -0.238220
C37   C     C_3   0.437785 0.146580 0.975066 -0.097559
C38   C     C_3   0.586301 0.089557 0.023476 -0.098772
C39   C     C_3   0.913846 0.589698 0.976242 -0.098580
C40   C     C_3   0.062249 0.646641 0.024824 -0.098212
C41   C     C_3   0.553128 0.076652 0.947102 -0.208205
C42   C     C_3   0.466097 0.133997 0.051212 -0.208311
C43   C     C_3   0.033974 0.634234 0.948636 -0.208551
C44   C     C_3   0.947034 0.576629 0.052577 -0.208262
C45   C     C_R   0.561113 0.183503 0.347832 0.544737
C46   C     C_R   0.465061 0.180107 0.662307 0.536736
C47   C     C_R   0.061100 0.683501 0.347830 0.541963
C48   C     C_R   0.965058 0.680107 0.662306 0.545442
C49   C     C_3   0.497736 0.175684 0.931588 0.006338
C50   C     C_3   0.541377 0.177120 0.062501 0.002044
C51   C     C_3   0.958623 0.677380 0.937457 0.004030
C52   C     C_3   0.002249 0.675641 0.068375 0.004057
C53   C     C_1   0.759434 0.418594 0.902009 0.000289
C54   C     C_1   0.219541 0.473043 0.085399 0.028080
C55   C     C_1   0.280247 0.973056 0.914647 0.027940
C56   C     C_1   0.740527 0.918286 0.097976 0.001118
C57   C     C_1   0.745488 0.399411 0.032649 0.034107
C58   C     C_1   0.240404 0.438603 0.957318 0.028959
C59   C     C_1   0.259478 0.938323 0.042715 0.029300
C60   C     C_1   0.754531 0.899424 0.967363 0.033331
C61   C     C_1   0.750653 0.405868 0.961429 0.033695
C62   C     C_1   0.229520 0.458151 0.026428 0.036731
C63   C     C_1   0.270287 0.958040 0.973603 0.036118
C64   C     C_1   0.749340 0.905630 0.038555 0.033285
C65   C     C_1   0.741975 0.388702 0.093342 0.002981
C66   C     C_1   0.250313 0.411890 0.899648 0.019603
C67   C     C_1   0.249638 0.911598 0.100362 0.021068
C68   C     C_1   0.758043 0.888879 0.906663 0.002711
C69   C     C_R   0.738852 0.360625 0.361936 0.539674
C70   C     C_R   0.261423 0.359626 0.637831 0.540478
C71   C     C_R   0.238853 0.860625 0.361936 0.536496
C72   C     C_R   0.761424 0.859624 0.637830 0.543682
C73   C     C_R   0.722952 0.951348 0.164470 0.521863
C74   C     C_R   0.294088 0.995564 0.845468 0.561660
C75   C     C_R   0.205811 0.495539 0.154624 0.562314
C76   C     C_R   0.777034 0.451445 0.835534 0.520269
C77   C     C_R   0.562795 0.182653 0.137309 0.529099
C78   C     C_R   0.469556 0.179519 0.858455 0.525349
C79   C     C_R   0.030421 0.679483 0.141540 0.533959
C80   C     C_R   0.937200 0.682909 0.862679 0.526992
C81   C     C_R   0.735708 0.357851 0.163350 0.530250
C82   C     C_R   0.262882 0.362267 0.834629 0.546837
C83   C     C_R   0.237094 0.862161 0.165351 0.549509
C84   C     C_R   0.764270 0.857981 0.836623 0.527868
C85   C     C_1   0.493019 0.172394 0.598310 -0.028315
C86   C     C_1   0.540296 0.176680 0.415267 -0.036080
C87   C     C_1   0.993003 0.672393 0.598302 -0.028735
C88   C     C_1   0.040271 0.676677 0.415259 -0.035652
C89   C     C_1   0.526208 0.172558 0.473303 -0.067782
C90   C     C_1   0.510128 0.170510 0.541393 -0.064591
C91   C     C_1   0.026179 0.672554 0.473293 -0.068020
C92   C     C_1   0.010103 0.670507 0.541383 -0.064761
C93   C     C_3   0.691286 0.472644 0.534699 -0.236590
C94   C     C_3   0.309325 0.471639 0.465324 -0.237676
C95   C     C_3   0.191287 0.972647 0.534697 -0.237026
C96   C     C_3   0.809327 0.971634 0.465322 -0.237243
Cr1   Cr    Cr6+3 0.765780 0.160710 0.267420 1.007438
Cr2   Cr    Cr6+3 0.234220 0.160710 0.732580 1.025658
Cr3   Cr    Cr6+3 0.265780 0.660710 0.267420 1.024749
Cr4   Cr    Cr6+3 0.734220 0.660710 0.732580 1.008657
Cr5   Cr    Cr6+3 0.612200 0.009560 0.248850 1.015384
Cr6   Cr    Cr6+3 0.387800 0.009560 0.751150 1.013488
Cr7   Cr    Cr6+3 0.112200 0.509560 0.248850 1.015240
Cr8   Cr    Cr6+3 0.887800 0.509560 0.751150 1.012827
Cr9   Cr    Cr6+3 0.616030 0.323720 0.248510 1.012496
Cr10  Cr    Cr6+3 0.383970 0.323720 0.751490 1.010146
Cr11  Cr    Cr6+3 0.116030 0.823720 0.248510 1.008714
Cr12  Cr    Cr6+3 0.883970 0.823720 0.751490 1.013140
H1    H     H_    0.682473 0.567055 0.545921 0.132429
H2    H     H_    0.317590 0.566443 0.454965 0.131789
H3    H     H_    0.182475 0.067058 0.545918 0.131967
H4    H     H_    0.817591 0.066439 0.454962 0.132258
H5    H     H_    0.818603 0.250702 0.469606 0.133676
H6    H     H_    0.181765 0.250410 0.529660 0.132603
H7    H     H_    0.318605 0.750707 0.469604 0.133700
H8    H     H_    0.681767 0.750405 0.529657 0.132588
H9    H     H_    0.870612 0.427246 0.544809 0.139404
H10   H     H_    0.130013 0.428377 0.455164 0.140312
H11   H     H_    0.370613 0.927254 0.544808 0.139390
H12   H     H_    0.630016 0.928369 0.455163 0.140396
H13   H     H_    0.854025 0.448050 0.429443 0.133039
H14   H     H_    0.146867 0.448472 0.570664 0.131818
H15   H     H_    0.354025 0.948055 0.429441 0.133611
H16   H     H_    0.646869 0.948469 0.570663 0.131373
H17   H     H_    0.499504 0.379167 0.937039 0.135437
H18   H     H_    0.596415 0.347832 0.046404 0.136403
H19   H     H_    0.903304 0.848004 0.953951 0.136284
H20   H     H_    0.000084 0.879217 0.063432 0.135553
H21   H     H_    0.580327 0.310035 0.930738 0.166624
H22   H     H_    0.506569 0.366254 0.050612 0.152085
H23   H     H_    0.993120 0.866437 0.949807 0.151628
H24   H     H_    0.919398 0.809988 0.069519 0.167685
H25   H     H_    0.434624 0.185437 0.085067 0.179599
H26   H     H_    0.590955 0.081459 0.909383 0.176551
H27   H     H_    0.909203 0.581361 0.090313 0.178626
H28   H     H_    0.065376 0.685734 0.914940 0.177324
H29   H     H_    0.529080 0.986017 0.939907 0.108188
H30   H     H_    0.463229 0.037590 0.066433 0.125879
H31   H     H_    0.037002 0.537857 0.933129 0.125377
H32   H     H_    0.971234 0.485991 0.059503 0.108166
H33   H     H_    0.587422 0.998979 0.047862 0.117219
H34   H     H_    0.414966 0.058385 0.957565 0.129168
H35   H     H_    0.085192 0.558416 0.042071 0.128423
H36   H     H_    0.912880 0.499160 0.951595 0.118088
H37   H     H_    0.650556 0.424125 0.558563 0.118049
H38   H     H_    0.350097 0.423847 0.440927 0.121106
H39   H     H_    0.150557 0.924128 0.558561 0.119379
H40   H     H_    0.850099 0.923844 0.440923 0.119635
H41   H     H_    0.637425 0.388048 0.444791 0.138856
H42   H     H_    0.363111 0.384630 0.554575 0.145683
H43   H     H_    0.137426 0.888046 0.444791 0.139299
H44   H     H_    0.863113 0.884625 0.554572 0.145136
H45   H     H_    0.669206 0.536203 0.429584 0.119086
H46   H     H_    0.332157 0.533385 0.570904 0.118675
H47   H     H_    0.169205 0.036202 0.429581 0.119058
H48   H     H_    0.832159 0.033381 0.570901 0.118716
H49   H     H_    0.341936 0.073269 0.549647 0.106625
H50   H     H_    0.660725 0.073324 0.451449 0.093772
H51   H     H_    0.841937 0.573262 0.549649 0.106314
H52   H     H_    0.160721 0.573333 0.451451 0.093896
H53   H     H_    0.294809 0.068410 0.430918 0.112372
H54   H     H_    0.706644 0.067904 0.569482 0.111156
H55   H     H_    0.794810 0.568407 0.430920 0.111822
H56   H     H_    0.206640 0.567908 0.569485 0.111659
H57   H     H_    0.808333 0.247571 0.582805 0.128530
H58   H     H_    0.192140 0.247430 0.416407 0.129760
H59   H     H_    0.308336 0.747574 0.582801 0.128654
H60   H     H_    0.692144 0.747424 0.416403 0.129637
H61   H     H_    0.716330 0.254417 0.570398 0.109247
H62   H     H_    0.284150 0.253914 0.428786 0.111788
H63   H     H_    0.216332 0.754419 0.570395 0.110643
H64   H     H_    0.784154 0.753911 0.428782 0.110289
H65   H     H_    0.730969 0.204007 0.457232 0.120443
H66   H     H_    0.269386 0.202278 0.541794 0.124275
H67   H     H_    0.230971 0.704009 0.457230 0.120164
H68   H     H_    0.769388 0.702273 0.541793 0.124545
O1    O     O_R   0.783100 0.287550 0.345460 -0.527180
O2    O     O_R   0.216900 0.287550 0.654540 -0.532319
O3    O     O_R   0.283100 0.787550 0.345460 -0.530438
O4    O     O_R   0.716900 0.787550 0.654540 -0.529010
O5    O     O_R   0.554710 0.081900 0.170950 -0.498795
O6    O     O_R   0.445290 0.081900 0.829050 -0.519845
O7    O     O_R   0.054710 0.581900 0.170950 -0.515326
O8    O     O_R   0.945290 0.581900 0.829050 -0.505535
O9    O     O_R   0.545650 0.284910 0.163740 -0.509781
O10   O     O_R   0.454350 0.284910 0.836260 -0.530382
O11   O     O_R   0.045650 0.784910 0.163740 -0.526984
O12   O     O_R   0.954350 0.784910 0.836260 -0.515200
O13   O     O_R   0.677950 0.374280 0.185410 -0.513664
O14   O     O_R   0.322050 0.374280 0.814590 -0.505866
O15   O     O_R   0.177950 0.874280 0.185410 -0.505979
O16   O     O_R   0.822050 0.874280 0.814590 -0.513555
O17   O     O_3   0.664670 0.164660 0.254930 -0.295876
O18   O     O_3   0.335330 0.164660 0.745070 -0.274862
O19   O     O_3   0.164670 0.664660 0.254930 -0.291724
O20   O     O_3   0.835330 0.664660 0.745070 -0.279219
O21   O     O_R   0.760020 0.037400 0.337700 -0.512542
O22   O     O_R   0.239980 0.037400 0.662300 -0.510957
O23   O     O_R   0.260020 0.537400 0.337700 -0.511201
O24   O     O_R   0.739980 0.537400 0.662300 -0.512206
O25   O     O_R   0.666600 0.921990 0.332020 -0.527939
O26   O     O_R   0.333400 0.921990 0.667980 -0.521882
O27   O     O_R   0.166600 0.421990 0.332020 -0.526194
O28   O     O_R   0.833400 0.421990 0.667980 -0.523509
O29   O     O_R   0.557260 0.082670 0.312540 -0.483957
O30   O     O_R   0.442740 0.082670 0.687460 -0.499853
O31   O     O_R   0.057260 0.582670 0.312540 -0.491642
O32   O     O_R   0.942740 0.582670 0.687460 -0.494294
O33   O     O_R   0.548410 0.285740 0.316480 -0.498111
O34   O     O_R   0.451590 0.285740 0.683520 -0.511949
O35   O     O_R   0.048410 0.785740 0.316480 -0.504625
O36   O     O_R   0.951590 0.785740 0.683520 -0.507649
O37   O     O_R   0.680500 0.375040 0.327000 -0.515537
O38   O     O_R   0.319500 0.375040 0.673000 -0.505279
O39   O     O_R   0.180500 0.875040 0.327000 -0.516654
O40   O     O_R   0.819500 0.875040 0.673000 -0.504039
O41   O     O_R   0.780350 0.286720 0.192720 -0.505249
O42   O     O_R   0.219650 0.286720 0.807280 -0.506053
O43   O     O_R   0.280350 0.786720 0.192720 -0.503948
O44   O     O_R   0.719650 0.786720 0.807280 -0.507411
O45   O     O_R   0.757470 0.036630 0.196110 -0.500040
O46   O     O_R   0.242530 0.036630 0.803890 -0.484379
O47   O     O_R   0.257470 0.536630 0.196110 -0.481906
O48   O     O_R   0.742530 0.536630 0.803890 -0.501866
O49   O     O_R   0.663840 0.921160 0.179280 -0.517575
O50   O     O_R   0.336160 0.921160 0.820720 -0.510693
O51   O     O_R   0.163840 0.421160 0.179280 -0.509654
O52   O     O_R   0.836160 0.421160 0.820720 -0.518100
C97   C     C_2   0.380647 0.238340 0.967541 0.195914
H69   H     H_    0.387315 0.325874 0.944953 0.138315
O53   O     O_2   0.326795 0.216137 0.989994 -0.544623
C98   C     C_2   0.659427 0.134580 0.029200 0.185350
H70   H     H_    0.686432 0.151477 0.079620 0.108694
O54   O     O_2   0.688853 0.153356 0.978829 -0.541391
C99   C     C_2   0.840640 0.634651 0.970654 0.185523
H71   H     H_    0.813626 0.651727 0.920288 0.109146
O55   O     O_2   0.811152 0.653155 0.021079 -0.540792
C100  C     C_2   0.119242 0.738392 0.032607 0.195206
H72   H     H_    0.112392 0.826002 0.055295 0.138307
O56   O     O_2   0.173164 0.716126 0.010187 -0.545328

loop_
_geom_bond_atom_site_label_1
_geom_bond_atom_site_label_2
_ccdc_geom_bond_type
C94   H38   S    
C39   C51   S    
C29   H65   S    
C58   C62   S    
C8    C24   S    
Cr4   O44   S    
C47   O35   A    
C76   O52   A    
C77   O9    A    
C14   C18   S    
C1    O21   A    
C35   C36   S    
C8    C96   S    
C2    O26   A    
C14   H62   S    
C11   H11   S    
Cr11  O19   S    
C9    C25   S    
Cr10  O18   S    
C31   H67   S    
C76   O48   A    
C67   C83   S    
C32   H68   S    
C11   C19   S    
C79   O11   A    
C48   O32   A    
C12   C28   S    
C42   H25   S    
Cr7   O7    S    
Cr8   O28   S    
C13   C29   S    
C8    H44   S    
C10   C18   S    
C15   C19   S    
C73   O45   A    
C36   H24   S    
C65   C81   S    
C16   H60   S    
C7    C23   S    
C4    O28   A    
Cr11  O35   S    
Cr4   O48   S    
Cr7   O51   S    
C6    C22   S    
Cr3   O19   S    
Cr6   O50   S    
C86   C89   T    
C5    H41   S    
C49   C78   S    
Cr2   O18   S    
C3    C18   S    
Cr5   O49   S    
C95   H3    S    
Cr1   O17   S    
C37   C42   S    
C51   C80   S    
C40   C100  S    
C84   O44   A    
C69   O1    A    
C43   C51   S    
C12   H12   S    
C55   C74   S    
Cr1   O1    S    
C58   C66   T    
C40   C43   S    
C48   O36   A    
Cr1   O45   S    
C6    C94   S    
C55   C63   T    
C77   O5    A    
C99   H71   S    
C56   C64   T    
C93   H37   S    
C78   O10   A    
Cr8   O32   S    
C23   C27   S    
C14   H58   S    
C52   C79   S    
C93   H1    S    
C75   O47   A    
C41   H29   S    
C36   C52   S    
C16   C20   S    
C46   C85   S    
C59   C67   T    
C44   C52   S    
C44   H27   S    
C13   H61   S    
C20   C96   S    
C1    O25   A    
C44   H32   S    
Cr3   O23   S    
C87   C92   T    
C82   O14   A    
C99   O55   D    
C15   H59   S    
Cr12  O20   S    
C36   H20   S    
Cr7   O19   S    
C14   C30   S    
Cr10  O38   S    
Cr6   O18   S    
C31   H7    S    
C41   H26   S    
Cr12  O36   S    
Cr5   O17   S    
Cr8   O52   S    
C100  O56   D    
Cr4   O20   S    
C24   C72   S    
C80   O12   A    
C96   H40   S    
Cr3   O47   S    
C34   C50   S    
Cr9   O37   S    
C37   H34   S    
Cr2   O22   S    
C28   H54   S    
C68   C84   S    
Cr1   O21   S    
C95   H39   S    
Cr10  O10   S    
C38   C41   S    
C21   C25   S    
C57   C65   T    
C91   C92   S    
C27   H15   S    
C70   O2    A    
C38   C98   S    
C54   C62   T    
C46   O34   A    
C21   C29   S    
C15   C31   S    
C94   H2    S    
C45   O33   A    
C21   C69   S    
C78   O6    A    
Cr6   O6    S    
C37   C97   S    
C24   C32   S    
Cr3   O3    S    
C97   H69   S    
C10   H10   S    
C23   C71   S    
C66   C82   S    
C37   C49   S    
C16   H64   S    
C13   H57   S    
C82   O42   A    
C88   C91   T    
C11   C27   S    
C34   H18   S    
C81   O41   A    
C12   C20   S    
C22   C70   S    
C33   H17   S    
C33   C34   S    
Cr8   O20   S    
C48   C87   S    
C69   O37   A    
Cr12  O40   S    
C32   H8    S    
C3    O23   A    
C35   H19   S    
C7    H47   S    
Cr6   O30   S    
C81   O13   A    
C6    H46   S    
Cr5   O29   S    
C42   C50   S    
C7    H43   S    
C4    C17   S    
Cr4   O24   S    
C9    C17   S    
C72   O40   A    
Cr3   O43   S    
Cr2   O42   S    
C35   C51   S    
C15   H63   S    
C38   H33   S    
Cr1   O41   S    
C53   C76   S    
C17   C93   S    
Cr10  O14   S    
Cr9   O33   S    
C53   C61   T    
Cr4   O4    S    
C50   C77   S    
C10   H52   S    
C19   C95   S    
C11   H49   S    
Cr2   O2    S    
C30   H6    S    
C33   H21   S    
C46   O30   A    
C29   H5    S    
C100  H72   S    
C1    C20   S    
C45   O29   A    
C56   C73   S    
C22   C30   S    
Cr8   O8    S    
C2    C19   S    
C2    O22   A    
Cr12  O12   S    
C83   O15   A    
C24   C28   S    
Cr7   O31   S    
Cr11  O39   S    
C98   O54   D    
C5    C93   S    
C85   C90   T    
C28   H16   S    
C57   C61   S    
C39   C44   S    
C38   C50   S    
C47   O31   A    
C43   H31   S    
C16   C32   S    
C41   C49   S    
C7    C95   S    
C74   O46   A    
C59   C63   S    
C6    H42   S    
C13   C17   S    
C60   C64   S    
C60   C68   T    
C47   C88   S    
C72   O4    A    
C75   O51   A    
C45   C86   S    
Cr6   O26   S    
C35   H23   S    
C97   O53   D    
C40   C52   S    
C27   H53   S    
C39   C99   S    
Cr9   O17   S    
C10   C26   S    
C25   H13   S    
C25   H55   S    
C71   O39   A    
Cr2   O46   S    
C26   H56   S    
C98   H70   S    
C96   H4    S    
Cr9   O13   S    
C79   O7    A    
C84   O16   A    
C70   O38   A    
C80   O8    A    
C43   H28   S    
C8    H48   S    
Cr5   O5    S    
Cr7   O27   S    
C73   O49   A    
Cr9   O9    S    
C71   O3    A    
C54   C75   S    
C5    H45   S    
C4    O24   A    
C5    C21   S    
C39   H36   S    
C34   H22   S    
C74   O50   A    
C83   O43   A    
C22   C26   S    
C40   H35   S    
Cr11  O15   S    
C18   C94   S    
C9    H51   S    
C3    O27   A    
Cr12  O16   S    
Cr11  O11   S    
Cr5   O25   S    
C42   H30   S    
C26   H14   S    
C12   H50   S    
C89   C90   S    
C33   C49   S    
C30   H66   S    
C9    H9    S    
C23   C31   S    
Cr10  O34   S    
