data_mof_unit_14269.cif
_audit_creation_date              2013-03-05T16:18:53-0500
_audit_creation_method            fapswitch 2.2
_symmetry_space_group_name_H-M    P1
_symmetry_Int_Tables_number       1
_space_group_crystal_system       triclinic
_cell_length_a                    9.969216
_cell_length_b                    10.890083
_cell_length_c                    16.722183
_cell_angle_alpha                 88.410197
_cell_angle_beta                  84.166057
_cell_angle_gamma                 90.168584
_cell_volume                      1805.32530298

loop_
_atom_site_label
_atom_site_type_symbol
_atom_site_description
_atom_site_fract_x
_atom_site_fract_y
_atom_site_fract_z
_atom_type_partial_charge
O1    O     O_R   0.383960 0.685090 0.500020 -0.518269
O2    O     O_R   0.616040 0.685320 0.499960 -0.644652
C1    C     C_R   0.501131 0.741739 0.502671 0.992524
O3    O     O_R   0.370240 0.499890 0.615830 -0.580931
O4    O     O_R   0.602330 0.500120 0.615770 -0.647204
C2    C     C_R   0.480382 0.507518 0.652588 0.905417
Zn1   Zn    Zn3+2 0.345040 0.499850 0.500040 1.131869
Zn2   Zn    Zn3+2 0.654960 0.500150 0.499960 1.016836
O5    O     O_R   0.383960 0.314680 0.500040 -0.549176
O6    O     O_R   0.616040 0.314910 0.499980 -0.576566
O7    O     O_R   0.397670 0.499880 0.384230 -0.549157
O8    O     O_R   0.629760 0.500110 0.384170 -0.557279
C3    C     C_R   0.500883 0.258518 0.502216 1.039876
C4    C     C_R   0.521112 0.500465 0.347268 1.049467
C5    C     C_R   0.472484 0.543735 0.736614 -0.097971
C6    C     C_R   0.577038 0.619645 0.757954 -0.210498
C7    C     C_R   0.591710 0.639648 0.837950 -0.060898
C8    C     C_R   0.503368 0.582008 0.897073 0.104804
C9    C     C_R   0.391580 0.516350 0.877107 -0.069591
C10   C     C_R   0.372386 0.500328 0.796843 0.436881
C11   C     C_R   0.509281 0.391370 0.138185 0.495324
C12   C     C_R   0.482247 0.403788 0.220936 -0.246461
C13   C     C_R   0.643894 0.572100 0.218245 0.496522
C14   C     C_R   0.675041 0.558868 0.135026 0.284311
C15   C     C_R   0.603241 0.470847 0.095237 -0.154037
C16   C     C_2   0.537742 0.575285 0.978884 -0.319749
C17   C     C_2   0.603424 0.478484 0.007990 0.333766
C18   C     C_R   0.544250 0.496082 0.260165 -0.183783
H1    H     H_    0.651541 0.659141 0.712695 0.157552
H2    H     H_    0.414024 0.340255 0.254862 0.258020
H3    H     H_    0.321645 0.474435 0.923958 0.193378
H4    H     H_    0.495472 0.645399 0.019013 0.195192
H5    H     H_    0.677632 0.691554 0.853736 0.171455
C19   C     C_3   0.453362 0.932704 0.424218 0.546591
C20   C     C_3   0.454628 0.075919 0.423758 -0.056594
H6    H     H_    0.349318 0.104888 0.424751 0.211251
C21   C     C_3   0.426775 0.927286 0.584433 -0.066687
C22   C     C_3   0.654871 0.928890 0.510194 0.110244
C23   C     C_3   0.506857 0.878907 0.504351 -0.317238
H7    H     H_    0.688956 0.894329 0.568248 0.131004
C24   C     C_3   0.506410 0.122179 0.502876 -0.338279
C25   C     C_3   0.415444 0.070118 0.578566 0.136645
C26   C     C_3   0.654099 0.071900 0.507607 0.181230
H8    H     H_    0.718291 0.103362 0.452834 0.264881
H9    H     H_    0.492916 0.911050 0.633575 0.101712
H10   H     H_    0.455311 0.107284 0.632791 0.180400
C27   C     C_3   0.917113 0.626201 0.486940 0.202683
H11   H     H_    0.864516 0.686293 0.532749 0.133015
C28   C     C_3   0.077916 0.632854 0.493847 0.531836
H12   H     H_    0.867322 0.529093 0.627717 0.172584
H13   H     H_    0.093368 0.506689 0.629418 0.167026
C29   C     C_3   0.904087 0.462002 0.581508 -0.534782
C30   C     C_3   0.925440 0.410830 0.444986 0.272053
N1    N     N_3   0.861190 0.500250 0.501720 -0.178560
H14   H     H_    0.896633 0.319197 0.472585 0.200771
N2    N     N_3   0.138550 0.503270 0.501080 -0.247860
C31   C     C_3   0.064974 0.451256 0.579050 0.043345
C32   C     C_3   0.086560 0.427963 0.430711 0.310053
H15   H     H_    0.850092 0.376332 0.603357 0.284716
O9    O     O_3   0.771696 0.635249 0.094238 -0.712354
H16   H     H_    0.799115 0.602955 0.040306 0.360936
O10   O     O_3   0.319339 0.896587 0.421304 -0.645035
H17   H     H_    0.265228 0.919132 0.471280 0.361460
N3    N     N_R   0.530789 0.883006 0.351612 0.293404
O11   O     O_R   0.474172 0.803272 0.308993 -0.260723
O12   O     O_R   0.648075 0.926755 0.322918 -0.237261
N4    N     N_R   0.519288 0.132279 0.348089 0.244851
O13   O     O_R   0.465620 0.113894 0.281603 -0.286134
O14   O     O_R   0.622123 0.206545 0.345888 -0.395829
N5    N     N_R   0.302941 0.858652 0.614838 0.283920
O15   O     O_R   0.184538 0.909373 0.621830 -0.264640
O16   O     O_R   0.316541 0.756833 0.655711 -0.397806
O17   O     O_3   0.282722 0.113222 0.582777 -0.581575
H18   H     H_    0.238531 0.086039 0.536321 0.389577
O18   O     O_3   0.749273 0.885617 0.449929 -0.634752
H19   H     H_    0.839696 0.910824 0.463855 0.399912
O19   O     O_3   0.715447 0.119597 0.572682 -0.714840
H20   H     H_    0.675480 0.078990 0.623328 0.334430
O20   O     O_3   0.882648 0.676169 0.413509 -0.588658
H21   H     H_    0.793508 0.645769 0.403288 0.448010
N6    N     N_R   0.137935 0.708404 0.424591 0.320513
O21   O     O_R   0.083876 0.814212 0.409144 -0.237327
O22   O     O_R   0.246919 0.678613 0.380768 -0.252442
O23   O     O_3   0.104483 0.699645 0.561697 -0.701056
H22   H     H_    0.027576 0.695478 0.604142 0.309917
O24   O     O_3   0.708112 0.658338 0.260463 -0.658742
H23   H     H_    0.776901 0.703826 0.224279 0.430246
O25   O     O_3   0.865027 0.413631 0.372837 -0.640671
H24   H     H_    0.894904 0.338937 0.343374 0.377155
N7    N     N_R   0.117350 0.489102 0.348104 0.249668
O26   O     O_R   0.037650 0.569833 0.319818 -0.240389
O27   O     O_R   0.201468 0.442528 0.292901 -0.315337
N8    N     N_R   0.148423 0.302969 0.426791 0.216636
O28   O     O_R   0.262500 0.287394 0.383840 -0.351804
O29   O     O_R   0.077029 0.203479 0.443165 -0.376935
N9    N     N_R   0.107112 0.325952 0.599125 0.273681
O30   O     O_R   0.203409 0.313375 0.645387 -0.273230
O31   O     O_R   0.024653 0.233522 0.596770 -0.285977
N10   N     N_R   0.660357 0.379356 0.959742 0.256531
O32   O     O_R   0.683038 0.390540 0.881887 -0.360853
O33   O     O_R   0.704680 0.281768 0.995030 -0.270277
O34   O     O_3   0.441473 0.305938 0.097437 -0.671687
H25   H     H_    0.377844 0.258916 0.136353 0.384137
O35   O     O_3   0.259600 0.437637 0.780201 -0.680884
H26   H     H_    0.219967 0.487183 0.738221 0.363230

loop_
_geom_bond_atom_site_label_1
_geom_bond_atom_site_label_2
_geom_bond_distance
_ccdc_geom_bond_type
C16   H4    1.087992 S    
N8    O28   1.296076 A    
C24   C25   1.571516 S    
C20   H6    1.095764 S    
C8    C16   1.443684 S    
C27   O20   1.404184 S    
O18   H19   0.993457 S    
C9    H3    1.084190 S    
C3    C24   1.485703 S    
N6    O21   1.303961 A    
C27   C28   1.620459 S    
O19   H20   0.990529 S    
Zn1   O7    1.954250 S    
C17   N10   1.448201 S    
C16   C17   1.348078 D    
C28   O23   1.411476 S    
C32   N8    1.496385 S    
C8    C9    1.396031 A    
C25   H10   1.112051 S    
O4    C2    1.309470 A    
O7    C4    1.319706 A    
C5    C6    1.408565 A    
C19   O10   1.397661 S    
N2    C31   1.523477 S    
C19   C20   1.559435 S    
O17   H18   0.983235 S    
C28   N6    1.476322 S    
C21   C25   1.560970 S    
O5    C3    1.321238 A    
C2    C5    1.464416 S    
N10   O32   1.300825 A    
C6    C7    1.383503 A    
C13   O24   1.383970 S    
N9    O31   1.301700 A    
H12   C29   1.113803 S    
C13   C14   1.406153 A    
N5    O15   1.300556 A    
H13   C31   1.108886 S    
C14   O9    1.384115 S    
C1    C23   1.495838 S    
N8    O29   1.301851 A    
C12   C18   1.392112 A    
C11   C12   1.393043 A    
C24   C26   1.581099 S    
C7    H5    1.083660 S    
Zn1   N2    2.057303 S    
O3    Zn1   1.977663 S    
O35   H26   0.988256 S    
N6    O22   1.294656 A    
C29   N1    1.490888 S    
C22   O18   1.399830 S    
C30   H14   1.112242 S    
C5    C10   1.414253 A    
N4    O13   1.301939 A    
C14   C15   1.414941 A    
O3    C2    1.315251 A    
Zn2   N1    2.059147 S    
O24   H23   0.989343 S    
C6    H1    1.084074 S    
C30   N1    1.479867 S    
C31   N9    1.468962 S    
C19   C23   1.589591 S    
O9    H16   0.989844 S    
N4    O14   1.300870 A    
N3    O12   1.301673 A    
C26   H8    1.108143 S    
O10   H17   0.984989 S    
C29   H15   1.109862 S    
N7    O27   1.297585 A    
C27   H11   1.112737 S    
C20   N4    1.477194 S    
Zn2   O8    1.977665 S    
N9    O30   1.297962 A    
C19   N3    1.487029 S    
C7    C8    1.390119 A    
C13   C18   1.408867 A    
O23   H22   0.990475 S    
C32   N7    1.518980 S    
C27   N1    1.483882 S    
C11   O34   1.382737 S    
N10   O33   1.301473 A    
O8    C4    1.299906 A    
C15   C17   1.458836 S    
C21   H9    1.115393 S    
Zn1   O5    2.054625 S    
C11   C15   1.402242 A    
C25   O17   1.400911 S    
C12   H2    1.077093 S    
O1    Zn1   2.053118 S    
O2    Zn2   2.054628 S    
O6    C3    1.297055 A    
O4    Zn2   1.954250 S    
C30   C32   1.609222 S    
C10   O35   1.370190 S    
C26   O19   1.411674 S    
C28   N2    1.543328 S    
C4    C18   1.453489 S    
N3    O11   1.301405 A    
C9    C10   1.390524 A    
O2    C1    1.298834 A    
C22   C26   1.556848 S    
C21   C23   1.591388 S    
C22   H7    1.116725 S    
N7    O26   1.298233 A    
C22   C23   1.584527 S    
N2    C32   1.581424 S    
C30   O25   1.401802 S    
O34   H25   0.991859 S    
C20   C24   1.563640 S    
C29   C31   1.604961 S    
O20   H21   0.980198 S    
O25   H24   0.993457 S    
Zn2   O6    2.053117 S    
N5    O16   1.301030 A    
O1    C1    1.324696 A    
C21   N5    1.478886 S    
