data_mof_unit_49820.cif
_audit_creation_date              2012-12-10T20:54:03-0500
_audit_creation_method            fapswitch 2.2
_symmetry_space_group_name_H-M    P1
_symmetry_Int_Tables_number       1
_space_group_crystal_system       triclinic
_cell_length_a                    25.994504
_cell_length_b                    34.349994
_cell_length_c                    21.581292
_cell_angle_alpha                 89.991194
_cell_angle_beta                  127.474246
_cell_angle_gamma                 89.978944
_cell_volume                      15293.3257593

loop_
_atom_site_label
_atom_site_type_symbol
_atom_type_description
_atom_site_fract_x
_atom_site_fract_y
_atom_site_fract_z
_atom_type_partial_charge
C1    C     C_R   0.000059 0.644168 0.500054 0.818131
C2    C     C_R   0.000044 0.355819 0.500038 0.813499
C3    C     C_R   0.499988 0.144179 0.499990 0.810689
C4    C     C_R   0.499927 0.855823 0.499937 0.815335
C5    C     C_R   0.322490 0.719003 0.081313 -0.106464
C6    C     C_R   0.672174 0.272081 0.917575 -0.078036
C7    C     C_R   0.674318 0.721624 0.918641 -0.111984
C8    C     C_R   0.327159 0.272721 0.082232 -0.086903
C9    C     C_R   0.814058 0.215932 0.081112 -0.108834
C10   C     C_R   0.165349 0.765231 0.918533 -0.103231
C11   C     C_R   0.186659 0.215717 0.919024 -0.107402
C12   C     C_R   0.836922 0.761757 0.081792 -0.095353
C13   C     C_R   0.185418 0.778627 0.042442 0.347430
C14   C     C_R   0.772112 0.183494 0.957016 0.350216
C15   C     C_R   0.817702 0.773598 0.957954 0.325169
C16   C     C_R   0.229083 0.183239 0.043259 0.349656
C17   C     C_R   0.692051 0.290699 0.039003 0.319615
C18   C     C_R   0.288871 0.692753 0.956040 0.348136
C19   C     C_R   0.308189 0.290672 0.960994 0.353224
C20   C     C_R   0.705438 0.696638 0.043564 0.356019
C21   C     C_R   0.145716 0.782448 0.960810 0.388132
C22   C     C_R   0.818052 0.185395 0.039508 0.420203
C23   C     C_R   0.858828 0.775966 0.039968 0.385373
C24   C     C_R   0.183036 0.185087 0.960762 0.419379
C25   C     C_R   0.654407 0.293915 0.957262 0.394024
C26   C     C_R   0.333396 0.693453 0.038374 0.430002
C27   C     C_R   0.344335 0.294926 0.042254 0.392916
C28   C     C_R   0.661069 0.697892 0.961462 0.430005
C29   C     C_R   0.494027 0.581698 0.437101 0.335789
C30   C     C_R   0.506489 0.418061 0.560342 0.325498
C31   C     C_R   0.505509 0.581738 0.558800 0.345427
C32   C     C_R   0.492334 0.417777 0.437306 0.326512
C33   C     C_R   0.989506 0.081864 0.436056 0.340273
C34   C     C_R   0.011222 0.918287 0.563822 0.344066
C35   C     C_R   0.010942 0.081831 0.563968 0.341032
C36   C     C_R   0.988861 0.918261 0.436074 0.347373
C37   C     C_R   0.499918 0.602018 0.498172 -0.257016
C38   C     C_R   0.499815 0.397873 0.499244 -0.238178
C39   C     C_R   0.000109 0.102162 0.499964 -0.261491
C40   C     C_R   0.999956 0.898104 0.499931 -0.260776
C41   C     C_R   0.505011 0.540928 0.558616 0.019982
C42   C     C_R   0.491357 0.458674 0.436298 0.020277
C43   C     C_R   0.492809 0.540794 0.436786 0.024432
C44   C     C_R   0.506468 0.458933 0.560146 0.020250
C45   C     C_R   0.013180 0.041058 0.564850 0.028611
C46   C     C_R   0.985990 0.959082 0.434432 0.027914
C47   C     C_R   0.987512 0.041078 0.435276 0.028795
C48   C     C_R   0.014543 0.959084 0.565632 0.030603
C49   C     C_R   0.498705 0.520399 0.497689 -0.033665
C50   C     C_R   0.498778 0.479293 0.497995 -0.017645
C51   C     C_R   0.000323 0.020632 0.500049 -0.034829
C52   C     C_R   0.000273 0.979556 0.500028 -0.028345
C53   C     C_R   0.511925 0.520258 0.619443 -0.193891
C54   C     C_R   0.483617 0.479349 0.375031 -0.202575
C55   C     C_R   0.485116 0.519831 0.375748 -0.183112
C56   C     C_R   0.513538 0.479822 0.620749 -0.199592
C57   C     C_R   0.029077 0.020282 0.630424 -0.184097
C58   C     C_R   0.969947 0.979869 0.368894 -0.207967
C59   C     C_R   0.971975 0.020306 0.369873 -0.184335
C60   C     C_R   0.031139 0.979855 0.631412 -0.209909
C61   C     C_R   0.783213 0.883663 0.424871 -0.156866
C62   C     C_R   0.165431 0.119991 0.526739 -0.112876
C63   C     C_R   0.217665 0.881976 0.581565 -0.152851
C64   C     C_R   0.834169 0.120131 0.472236 -0.112212
C65   C     C_R   0.285467 0.385480 0.433807 -0.155400
C66   C     C_R   0.668092 0.620002 0.529483 -0.111913
C67   C     C_R   0.711877 0.385375 0.563956 -0.156483
C68   C     C_R   0.330528 0.621164 0.463700 -0.100491
C69   C     C_R   0.780886 0.851118 0.462100 -0.179942
C70   C     C_R   0.172196 0.156132 0.502613 -0.103801
C71   C     C_R   0.220871 0.850217 0.543442 -0.175683
C72   C     C_R   0.827479 0.156187 0.496691 -0.103949
C73   C     C_R   0.278966 0.352327 0.466138 -0.189297
C74   C     C_R   0.674718 0.655803 0.504136 -0.102332
C75   C     C_R   0.719188 0.352264 0.532251 -0.188917
C76   C     C_R   0.322946 0.655728 0.491600 -0.105229
C77   C     C_R   0.999978 0.855763 0.500008 0.905828
C78   C     C_R   0.000027 0.144309 0.499979 0.896952
C79   C     C_R   0.499987 0.355682 0.499749 0.914746
C80   C     C_R   0.500104 0.644267 0.499236 0.899704
C81   C     C_R   0.760324 0.815095 0.423913 0.153996
C82   C     C_R   0.227883 0.178843 0.553526 0.140993
C83   C     C_R   0.241396 0.813797 0.580098 0.153869
C84   C     C_R   0.771900 0.179049 0.445917 0.141685
C85   C     C_R   0.261945 0.316476 0.427124 0.139634
C86   C     C_R   0.728750 0.679539 0.555771 0.143561
C87   C     C_R   0.737488 0.316623 0.572195 0.139623
C88   C     C_R   0.269989 0.680375 0.440782 0.138881
C89   C     C_R   0.740395 0.812157 0.347374 -0.093261
C90   C     C_R   0.276701 0.164647 0.628758 -0.153179
C91   C     C_R   0.260436 0.809686 0.656103 -0.094523
C92   C     C_R   0.723124 0.165101 0.370486 -0.153258
C93   C     C_R   0.247553 0.314831 0.352957 -0.070568
C94   C     C_R   0.775859 0.666920 0.632780 -0.144813
C95   C     C_R   0.752227 0.315172 0.646569 -0.071882
C96   C     C_R   0.224586 0.669801 0.362031 -0.141058
C97   C     C_R   0.743494 0.844555 0.310539 -0.128564
C98   C     C_R   0.269897 0.128388 0.652456 -0.148228
C99   C     C_R   0.256528 0.841315 0.693852 -0.125300
C100  C     C_R   0.729840 0.128916 0.346473 -0.148444
C101  C     C_R   0.254364 0.347965 0.320904 -0.122669
C102  C     C_R   0.768889 0.631190 0.657911 -0.135372
C103  C     C_R   0.744522 0.348254 0.677948 -0.120855
C104  C     C_R   0.232391 0.635209 0.334432 -0.147134
C105  C     C_R   0.765119 0.880293 0.349412 -0.090659
C106  C     C_R   0.214403 0.106029 0.601405 -0.132577
C107  C     C_R   0.234932 0.877440 0.656460 -0.095268
C108  C     C_R   0.785216 0.106398 0.397389 -0.132547
C109  C     C_R   0.273780 0.383217 0.361564 -0.103790
C110  C     C_R   0.715257 0.607643 0.606153 -0.127712
C111  C     C_R   0.723880 0.383273 0.636399 -0.101301
C112  C     C_R   0.285240 0.610883 0.385249 -0.127846
C113  C     C_R   0.703718 0.779543 0.464104 -0.256327
C114  C     C_R   0.291648 0.218012 0.527048 -0.256959
C115  C     C_R   0.297227 0.778937 0.537960 -0.257136
C116  C     C_R   0.708225 0.218144 0.472632 -0.257112
C117  C     C_R   0.203893 0.279737 0.464483 -0.257765
C118  C     C_R   0.792655 0.718381 0.529239 -0.249812
C119  C     C_R   0.795964 0.279829 0.535354 -0.257840
C120  C     C_R   0.206762 0.718613 0.469384 -0.246869
C121  C     C_R   0.694552 0.747773 0.496919 -0.054911
C122  C     C_R   0.301818 0.250350 0.496327 -0.045481
C123  C     C_R   0.305522 0.747707 0.503243 -0.055773
C124  C     C_R   0.698042 0.250439 0.503420 -0.044836
C125  C     C_R   0.194392 0.247684 0.496539 -0.048083
C126  C     C_R   0.802195 0.750346 0.497125 -0.056797
C127  C     C_R   0.805533 0.247776 0.503333 -0.047495
C128  C     C_R   0.197998 0.750121 0.503240 -0.056658
C129  C     C_R   0.738563 0.716161 0.527917 -0.004808
C130  C     C_R   0.256202 0.281301 0.462475 -0.008120
C131  C     C_R   0.260802 0.716469 0.470616 -0.006275
C132  C     C_R   0.743574 0.281403 0.537229 -0.007635
C133  C     C_R   0.237811 0.215762 0.526264 -0.005036
C134  C     C_R   0.756112 0.780953 0.462333 -0.011655
C135  C     C_R   0.762067 0.215903 0.473442 -0.004577
C136  C     C_R   0.244911 0.780233 0.539875 -0.011635
C137  C     C_R   0.498924 0.918667 0.442843 -0.257582
C138  C     C_R   0.501835 0.081333 0.557666 -0.255675
C139  C     C_R   0.500185 0.918661 0.556444 -0.258854
C140  C     C_R   0.497867 0.081353 0.442077 -0.255142
C141  C     C_R   0.003579 0.418658 0.446415 -0.258325
C142  C     C_R   0.998098 0.581303 0.554984 -0.259032
C143  C     C_R   0.997177 0.418644 0.554238 -0.258595
C144  C     C_R   0.002780 0.581304 0.445767 -0.259399
C145  C     C_R   0.499685 0.898326 0.499741 -0.037168
C146  C     C_R   0.499908 0.101678 0.499918 -0.040418
C147  C     C_R   0.000248 0.398316 0.500218 -0.041992
C148  C     C_R   0.000299 0.601650 0.500262 -0.041690
C149  C     C_R   0.500903 0.959211 0.557379 0.111717
C150  C     C_R   0.497762 0.040798 0.441592 0.110554
C151  C     C_R   0.498213 0.959222 0.441909 0.111916
C152  C     C_R   0.501711 0.040779 0.557971 0.110786
C153  C     C_R   0.997764 0.459188 0.555124 0.112505
C154  C     C_R   0.002966 0.540754 0.445517 0.111659
C155  C     C_R   0.003300 0.459199 0.445779 0.112507
C156  C     C_R   0.998191 0.540750 0.555459 0.111926
C157  C     C_R   0.140383 0.750237 0.500433 0.792824
C158  C     C_R   0.860525 0.249142 0.501178 0.801097
C159  C     C_R   0.859689 0.750332 0.499711 0.792820
C160  C     C_R   0.139456 0.249107 0.498783 0.801177
C161  C     C_R   0.640298 0.250393 0.500291 0.795705
C162  C     C_R   0.360524 0.749152 0.501148 0.794107
C163  C     C_R   0.359651 0.250368 0.499629 0.796873
C164  C     C_R   0.639471 0.749130 0.498840 0.790471
C165  C     C_R   0.499594 0.979602 0.499671 0.062270
C166  C     C_R   0.499681 0.020407 0.499739 0.061461
C167  C     C_R   0.000573 0.479575 0.500484 0.060975
C168  C     C_R   0.000597 0.520374 0.500504 0.062251
C169  C     C_R   0.502949 0.979688 0.615016 -0.218204
C170  C     C_R   0.495821 0.020308 0.384034 -0.218899
C171  C     C_R   0.496224 0.979719 0.384317 -0.216342
C172  C     C_R   0.503545 0.020275 0.615448 -0.217199
C173  C     C_R   0.995505 0.479663 0.609595 -0.218061
C174  C     C_R   0.005437 0.520264 0.391213 -0.216354
C175  C     C_R   0.005706 0.479681 0.391422 -0.218218
C176  C     C_R   0.995829 0.520250 0.609847 -0.215988
C177  C     C_R   0.894610 0.750339 0.288538 0.912369
C178  C     C_R   0.105732 0.249648 0.711753 0.931865
C179  C     C_R   0.105344 0.750372 0.711453 0.913891
C180  C     C_R   0.894342 0.249629 0.288273 0.932510
C181  C     C_R   0.395111 0.250799 0.288664 0.915278
C182  C     C_R   0.604614 0.748993 0.711397 0.904546
C183  C     C_R   0.604990 0.250662 0.711315 0.917346
C184  C     C_R   0.395321 0.749009 0.288592 0.908682
C185  C     C_R   0.367607 0.722377 0.163774 0.394298
C186  C     C_R   0.641756 0.278222 0.837974 0.418108
C187  C     C_R   0.629578 0.725171 0.836237 0.392218
C188  C     C_R   0.357079 0.278956 0.161702 0.416604
C189  C     C_R   0.860240 0.220264 0.163224 0.355887
C190  C     C_R   0.129463 0.770603 0.837151 0.445664
C191  C     C_R   0.140347 0.220056 0.836910 0.356596
C192  C     C_R   0.873360 0.767347 0.163137 0.447424
C193  C     C_R   0.353470 0.747493 0.203652 -0.277418
C194  C     C_R   0.648135 0.250009 0.796078 -0.289870
C195  C     C_R   0.646563 0.747688 0.796319 -0.280344
C196  C     C_R   0.351822 0.250249 0.203869 -0.289434
C197  C     C_R   0.851107 0.248693 0.202777 -0.273745
C198  C     C_R   0.147469 0.750315 0.796380 -0.282324
C199  C     C_R   0.149087 0.248678 0.797272 -0.267551
C200  C     C_R   0.852514 0.750235 0.203616 -0.281145
C201  C     C_R   0.296071 0.769137 0.163324 0.400860
C202  C     C_R   0.692108 0.219201 0.834063 0.380326
C203  C     C_R   0.706512 0.766624 0.836472 0.418703
C204  C     C_R   0.308558 0.219135 0.166044 0.381642
C205  C     C_R   0.798619 0.274433 0.162073 0.407104
C206  C     C_R   0.203846 0.727871 0.836082 0.356161
C207  C     C_R   0.201473 0.274469 0.837932 0.391888
C208  C     C_R   0.793890 0.730044 0.163793 0.356189
C209  C     C_R   0.248637 0.763227 0.082571 -0.152083
C210  C     C_R   0.728396 0.214898 0.915949 -0.133898
C211  C     C_R   0.752933 0.760949 0.917593 -0.140344
C212  C     C_R   0.272340 0.214824 0.084194 -0.133341
C213  C     C_R   0.751100 0.269737 0.080713 -0.144235
C214  C     C_R   0.238247 0.720564 0.916669 -0.149906
C215  C     C_R   0.249207 0.269634 0.919198 -0.156198
C216  C     C_R   0.758829 0.722474 0.083218 -0.154828
C217  C     C_R   0.264196 0.740997 0.040939 -0.148611
C218  C     C_R   0.720376 0.242832 0.957834 -0.154134
C219  C     C_R   0.734905 0.741097 0.959093 -0.150654
C220  C     C_R   0.279900 0.242950 0.042200 -0.154274
C221  C     C_R   0.761507 0.242459 0.040016 -0.143586
C222  C     C_R   0.222106 0.741811 0.958655 -0.148199
C223  C     C_R   0.238935 0.242385 0.960014 -0.139747
C224  C     C_R   0.777199 0.741427 0.041381 -0.149502
H1    H     H_    0.723234 0.784668 0.317079 0.117783
H2    H     H_    0.320241 0.181513 0.668716 0.131950
H3    H     H_    0.277072 0.781820 0.685049 0.117050
H4    H     H_    0.679696 0.182107 0.330613 0.130465
H5    H     H_    0.232379 0.287829 0.320717 0.106323
H6    H     H_    0.818162 0.684629 0.672922 0.133264
H7    H     H_    0.768234 0.288332 0.679424 0.106174
H8    H     H_    0.183351 0.688372 0.322143 0.131410
H9    H     H_    0.728902 0.842003 0.251844 0.112060
H10   H     H_    0.307753 0.117565 0.710355 0.129652
H11   H     H_    0.270236 0.837838 0.751997 0.113538
H12   H     H_    0.692016 0.118278 0.288425 0.129524
H13   H     H_    0.244530 0.346257 0.264538 0.112434
H14   H     H_    0.805414 0.621580 0.717276 0.125689
H15   H     H_    0.754518 0.346700 0.734434 0.111892
H16   H     H_    0.197400 0.627222 0.273660 0.128901
H17   H     H_    0.669824 0.803701 0.439517 0.174527
H18   H     H_    0.324981 0.193602 0.549859 0.169772
H19   H     H_    0.331698 0.802766 0.563872 0.174309
H20   H     H_    0.674896 0.193752 0.449744 0.169974
H21   H     H_    0.170395 0.304085 0.440916 0.171420
H22   H     H_    0.826468 0.694191 0.553284 0.169510
H23   H     H_    0.829423 0.304172 0.558917 0.171113
H24   H     H_    0.172332 0.694762 0.443846 0.170430
H25   H     H_    0.498625 0.902961 0.399088 0.165800
H26   H     H_    0.503671 0.097012 0.602583 0.165149
H27   H     H_    0.500365 0.902958 0.600135 0.163581
H28   H     H_    0.496115 0.097051 0.397226 0.165237
H29   H     H_    0.006264 0.402972 0.404914 0.168393
H30   H     H_    0.996404 0.596971 0.597327 0.164814
H31   H     H_    0.994419 0.402949 0.595682 0.168441
H32   H     H_    0.004387 0.596972 0.403351 0.165502
H33   H     H_    0.504224 0.964315 0.659788 0.144858
H34   H     H_    0.494173 0.035672 0.338992 0.149933
H35   H     H_    0.494925 0.964363 0.339523 0.145037
H36   H     H_    0.505288 0.035625 0.660560 0.149276
H37   H     H_    0.993494 0.464297 0.651937 0.146076
H38   H     H_    0.007228 0.535623 0.348695 0.146215
H39   H     H_    0.007701 0.464320 0.349068 0.146109
H40   H     H_    0.994069 0.535602 0.652388 0.145902
H41   H     H_    0.517177 0.535252 0.667152 0.181740
H42   H     H_    0.477054 0.464340 0.326546 0.176548
H43   H     H_    0.479507 0.534625 0.327634 0.182985
H44   H     H_    0.519945 0.465026 0.669335 0.177511
H45   H     H_    0.041156 0.035190 0.681968 0.178982
H46   H     H_    0.955704 0.965005 0.316409 0.174563
H47   H     H_    0.960134 0.035226 0.318440 0.179083
H48   H     H_    0.045762 0.964985 0.684063 0.172193
H49   H     H_    0.767366 0.905420 0.320869 0.122057
H50   H     H_    0.209328 0.077903 0.619762 0.126315
H51   H     H_    0.231936 0.901944 0.685662 0.121836
H52   H     H_    0.790224 0.078335 0.378772 0.126312
H53   H     H_    0.279035 0.408863 0.336721 0.125317
H54   H     H_    0.710429 0.579719 0.625367 0.123642
H55   H     H_    0.717846 0.408855 0.660681 0.124731
H56   H     H_    0.291009 0.584029 0.363851 0.124726
H57   H     H_    0.798973 0.911497 0.454411 0.127483
H58   H     H_    0.122594 0.102589 0.487258 0.164977
H59   H     H_    0.201741 0.910079 0.553067 0.126461
H60   H     H_    0.876950 0.102624 0.511588 0.163954
H61   H     H_    0.299371 0.412940 0.464656 0.125820
H62   H     H_    0.626881 0.601585 0.489500 0.167972
H63   H     H_    0.696991 0.412667 0.532403 0.125247
H64   H     H_    0.371258 0.602223 0.502948 0.160617
H65   H     H_    0.794590 0.853765 0.520282 0.133613
H66   H     H_    0.134480 0.166148 0.444120 0.111832
H67   H     H_    0.207554 0.853750 0.485593 0.133029
H68   H     H_    0.865200 0.166039 0.555294 0.111961
H69   H     H_    0.286785 0.354560 0.521246 0.137702
H70   H     H_    0.638366 0.664791 0.444202 0.100721
H71   H     H_    0.710867 0.354357 0.476830 0.137543
H72   H     H_    0.358105 0.663268 0.552658 0.105724
O1    O     O_3   0.000000 0.750000 0.500000 -0.492697
O2    O     O_3   0.000000 0.250000 0.500000 -0.481120
O3    O     O_3   0.500000 0.250000 0.500000 -0.489624
O4    O     O_3   0.500000 0.750000 0.500000 -0.483566
O5    O     O_R   0.992580 0.662560 0.545880 -0.648966
O6    O     O_R   0.007420 0.337440 0.454120 -0.653720
O7    O     O_R   0.007420 0.662560 0.454120 -0.649607
O8    O     O_R   0.992580 0.337440 0.545880 -0.653797
O9    O     O_R   0.492580 0.162560 0.545880 -0.647819
O10   O     O_R   0.507420 0.837440 0.454120 -0.650985
O11   O     O_R   0.507420 0.162560 0.454120 -0.647554
O12   O     O_R   0.492580 0.837440 0.545880 -0.648467
O13   O     O_R   0.053270 0.837440 0.545830 -0.643783
O14   O     O_R   0.946730 0.162560 0.454170 -0.661740
O15   O     O_R   0.946730 0.837440 0.454170 -0.639515
O16   O     O_R   0.053270 0.162560 0.545830 -0.661704
O17   O     O_R   0.553270 0.337440 0.545830 -0.644710
O18   O     O_R   0.446730 0.662560 0.454170 -0.659038
O19   O     O_R   0.446730 0.337440 0.454170 -0.646122
O20   O     O_R   0.553270 0.662560 0.545830 -0.656102
O21   O     O_R   0.092900 0.727070 0.454160 -0.641551
O22   O     O_R   0.907100 0.272930 0.545840 -0.649808
O23   O     O_R   0.907100 0.727070 0.545840 -0.643539
O24   O     O_R   0.092900 0.272930 0.454160 -0.649466
O25   O     O_R   0.592900 0.227070 0.454160 -0.645255
O26   O     O_R   0.407100 0.772930 0.545840 -0.661970
O27   O     O_R   0.407100 0.227070 0.545840 -0.644738
O28   O     O_R   0.592900 0.772930 0.454160 -0.663699
O29   O     O_R   0.861280 0.772920 0.454160 -0.642066
O30   O     O_R   0.138720 0.227080 0.545840 -0.637926
O31   O     O_R   0.138720 0.772920 0.545840 -0.641699
O32   O     O_R   0.861280 0.227080 0.454160 -0.637188
O33   O     O_R   0.361280 0.272920 0.454160 -0.646993
O34   O     O_R   0.638720 0.727080 0.545840 -0.625334
O35   O     O_R   0.638720 0.272920 0.545840 -0.646634
O36   O     O_R   0.361280 0.727080 0.454160 -0.627128
O37   O     O_R   0.942960 0.727070 0.325140 -0.628341
O38   O     O_R   0.057040 0.272930 0.674860 -0.671552
O39   O     O_R   0.057040 0.727070 0.674860 -0.631249
O40   O     O_R   0.942960 0.272930 0.325140 -0.672480
O41   O     O_R   0.442960 0.227070 0.325140 -0.617352
O42   O     O_R   0.557040 0.772930 0.674860 -0.677724
O43   O     O_R   0.557040 0.227070 0.674860 -0.617492
O44   O     O_R   0.442960 0.772930 0.325140 -0.674354
O45   O     O_R   0.882220 0.772920 0.325130 -0.659650
O46   O     O_R   0.117780 0.227080 0.674870 -0.650672
O47   O     O_R   0.117780 0.772920 0.674870 -0.661579
O48   O     O_R   0.882220 0.227080 0.325130 -0.649423
O49   O     O_R   0.382220 0.272920 0.325130 -0.689275
O50   O     O_R   0.617780 0.727080 0.674870 -0.634148
O51   O     O_R   0.617780 0.272920 0.674870 -0.688384
O52   O     O_R   0.382220 0.727080 0.325130 -0.644486
Zn1   Zn    Zn3+2 0.076130 0.782750 0.565500 0.965468
Zn2   Zn    Zn3+2 0.923870 0.217250 0.434500 0.954591
Zn3   Zn    Zn3+2 0.923870 0.782750 0.434500 0.969059
Zn4   Zn    Zn3+2 0.076130 0.217250 0.565500 0.953758
Zn5   Zn    Zn3+2 0.576130 0.282750 0.565500 0.952374
Zn6   Zn    Zn3+2 0.423870 0.717250 0.434500 0.961514
Zn7   Zn    Zn3+2 0.423870 0.282750 0.434500 0.951783
Zn8   Zn    Zn3+2 0.576130 0.717250 0.565500 0.971249
Zn9   Zn    Zn3+2 0.010650 0.717250 0.434510 0.980634
Zn10  Zn    Zn3+2 0.989350 0.282750 0.565490 0.948828
Zn11  Zn    Zn3+2 0.989350 0.717250 0.565490 0.976927
Zn12  Zn    Zn3+2 0.010650 0.282750 0.434510 0.948638
Zn13  Zn    Zn3+2 0.510650 0.217250 0.434510 0.971580
Zn14  Zn    Zn3+2 0.489350 0.782750 0.565490 0.939762
Zn15  Zn    Zn3+2 0.489350 0.217250 0.565490 0.972397
Zn16  Zn    Zn3+2 0.510650 0.782750 0.434510 0.936096
O53   O     O_3   0.421774 0.698192 0.204326 -0.648470
C225  C     C_3   0.482120 0.718217 0.246456 0.123155
H73   H     H_    0.518516 0.697076 0.255566 0.153132
H74   H     H_    0.499036 0.725047 0.306227 0.135095
C226  C     C_3   0.485111 0.754174 0.205592 -0.363714
H75   H     H_    0.479353 0.744635 0.152490 0.236352
H76   H     H_    0.446064 0.775370 0.187665 0.207951
C227  C     C_3   0.549474 0.775584 0.260412 -0.953155
H77   H     H_    0.553488 0.798843 0.227845 0.261951
H78   H     H_    0.591061 0.755292 0.285867 0.264012
H79   H     H_    0.551758 0.789345 0.308555 0.293394
O54   O     O_3   0.607499 0.312400 0.802279 -0.645505
C228  C     C_3   0.640387 0.335908 0.782031 0.083286
H80   H     H_    0.607655 0.340197 0.717761 0.218329
H81   H     H_    0.686539 0.323059 0.797896 0.121261
C229  C     C_3   0.656018 0.375874 0.820788 -0.358421
H82   H     H_    0.610485 0.390818 0.800810 0.225164
H83   H     H_    0.686859 0.372239 0.885224 0.199294
C230  C     C_3   0.691412 0.401480 0.799855 -0.933648
H84   H     H_    0.738600 0.388169 0.821571 0.246791
H85   H     H_    0.700711 0.430538 0.827358 0.258452
H86   H     H_    0.661462 0.405379 0.735556 0.286697
O55   O     O_3   0.573614 0.702541 0.795465 -0.645596
C231  C     C_3   0.514896 0.724181 0.755958 0.137458
H87   H     H_    0.477576 0.704075 0.747375 0.152334
H88   H     H_    0.497068 0.731272 0.695961 0.147138
C232  C     C_3   0.515596 0.760332 0.799106 -0.368153
H89   H     H_    0.522352 0.750865 0.852878 0.241145
H90   H     H_    0.555530 0.780545 0.816007 0.207523
C233  C     C_3   0.452215 0.783055 0.746807 -0.953148
H91   H     H_    0.450481 0.806336 0.781180 0.261955
H92   H     H_    0.409760 0.763620 0.721927 0.263284
H93   H     H_    0.449123 0.796780 0.698035 0.286776
O56   O     O_3   0.389907 0.313549 0.196937 -0.648149
C234  C     C_3   0.356705 0.336083 0.218053 0.084957
H94   H     H_    0.389189 0.339511 0.282513 0.220362
H95   H     H_    0.310361 0.322887 0.200862 0.120392
C235  C     C_3   0.341403 0.376709 0.181849 -0.358892
H96   H     H_    0.387110 0.391799 0.202991 0.229537
H97   H     H_    0.310555 0.374153 0.117223 0.197960
C236  C     C_3   0.306143 0.401402 0.204183 -0.933979
H98   H     H_    0.258591 0.388163 0.180974 0.246415
H99   H     H_    0.297564 0.431017 0.178960 0.258807
H100  H     H_    0.335861 0.404037 0.268694 0.285492
O57   O     O_3   0.914030 0.196322 0.206339 -0.642291
C237  C     C_3   0.966948 0.215240 0.216286 0.122021
H101  H     H_    0.970158 0.246682 0.231299 0.124529
H102  H     H_    0.962266 0.213009 0.161616 0.177828
C238  C     C_3   0.029747 0.195550 0.282653 -0.332235
H103  H     H_    0.034158 0.197673 0.337115 0.201653
H104  H     H_    0.028470 0.164254 0.268663 0.234928
C239  C     C_3   0.088520 0.214807 0.295685 -0.983452
H105  H     H_    0.133453 0.199917 0.343980 0.274545
H106  H     H_    0.091442 0.245930 0.311473 0.275240
H107  H     H_    0.085219 0.212756 0.242007 0.266584
O58   O     O_3   0.078101 0.796722 0.798887 -0.626242
C240  C     C_3   0.089643 0.829866 0.769068 0.093475
H108  H     H_    0.059192 0.853615 0.765655 0.178705
H109  H     H_    0.071037 0.824497 0.708058 0.170784
C241  C     C_3   0.160309 0.845145 0.818212 -0.438678
H110  H     H_    0.179815 0.849065 0.879977 0.203353
H111  H     H_    0.191909 0.824136 0.816518 0.210240
C242  C     C_3   0.164134 0.883884 0.786605 -0.865192
H112  H     H_    0.147795 0.880186 0.725940 0.296999
H113  H     H_    0.215065 0.894311 0.823479 0.237720
H114  H     H_    0.133534 0.906125 0.787466 0.264811
O59   O     O_3   0.086757 0.195991 0.793905 -0.642617
C243  C     C_3   0.033693 0.214755 0.783913 0.121104
H115  H     H_    0.030306 0.246229 0.768988 0.124449
H116  H     H_    0.038343 0.212386 0.838549 0.177826
C244  C     C_3   0.971016 0.195040 0.717461 -0.332044
H117  H     H_    0.966725 0.197147 0.663072 0.201836
H118  H     H_    0.972343 0.163747 0.731524 0.234939
C245  C     C_3   0.912117 0.214295 0.704165 -0.983873
H119  H     H_    0.867272 0.199331 0.655981 0.274231
H120  H     H_    0.909058 0.245387 0.688097 0.275333
H121  H     H_    0.915381 0.212354 0.757831 0.266717
O60   O     O_3   0.927448 0.791330 0.201518 -0.619165
C246  C     C_3   0.916044 0.827209 0.224411 0.073912
H122  H     H_    0.956615 0.846729 0.241477 0.175605
H123  H     H_    0.919298 0.823493 0.277647 0.168727
C247  C     C_3   0.852159 0.848091 0.160082 -0.436871
H124  H     H_    0.848656 0.851358 0.106480 0.204267
H125  H     H_    0.809862 0.830865 0.145323 0.208111
C248  C     C_3   0.848026 0.888260 0.186979 -0.878497
H126  H     H_    0.851003 0.885720 0.240406 0.291310
H127  H     H_    0.801080 0.902087 0.140336 0.244910
H128  H     H_    0.887822 0.907194 0.199204 0.259460
O61   O     O_3   0.286012 0.794527 0.205179 -0.625201
C249  C     C_3   0.289408 0.833722 0.187082 0.124559
H129  H     H_    0.261129 0.851688 0.199557 0.175774
H130  H     H_    0.266886 0.838427 0.124231 0.119439
C250  C     C_3   0.359498 0.848468 0.237796 -0.365841
H131  H     H_    0.381837 0.843809 0.300439 0.246955
H132  H     H_    0.387768 0.832063 0.223327 0.224233
C251  C     C_3   0.362411 0.891712 0.223918 -0.978974
H133  H     H_    0.338765 0.897239 0.161184 0.261030
H134  H     H_    0.413727 0.901146 0.258380 0.264369
H135  H     H_    0.337830 0.909173 0.242310 0.269858
O62   O     O_3   0.696041 0.192380 0.789150 -0.629067
C252  C     C_3   0.739602 0.205426 0.774956 0.110972
H136  H     H_    0.789191 0.195164 0.823186 0.187387
H137  H     H_    0.740888 0.237779 0.770935 0.104114
C253  C     C_3   0.718739 0.188007 0.697460 -0.319277
H138  H     H_    0.707005 0.156674 0.694715 0.224240
H139  H     H_    0.674238 0.203078 0.648417 0.206600
C254  C     C_3   0.771632 0.191646 0.687264 -0.988356
H140  H     H_    0.785350 0.222518 0.690620 0.265293
H141  H     H_    0.753714 0.179917 0.629359 0.270749
H142  H     H_    0.815131 0.174779 0.733287 0.271740
O63   O     O_3   0.719829 0.788966 0.794075 -0.617085
C255  C     C_3   0.720089 0.829134 0.809642 0.125580
H143  H     H_    0.751139 0.844191 0.797834 0.176754
H144  H     H_    0.741807 0.835355 0.871810 0.122745
C256  C     C_3   0.651743 0.846493 0.756236 -0.377158
H145  H     H_    0.629840 0.839913 0.694312 0.241113
H146  H     H_    0.621073 0.833411 0.770581 0.224475
C257  C     C_3   0.653277 0.890527 0.766706 -0.967761
H147  H     H_    0.676272 0.897811 0.828631 0.259788
H148  H     H_    0.603116 0.902146 0.730070 0.267348
H149  H     H_    0.680749 0.904699 0.748754 0.267924
O64   O     O_3   0.305017 0.192148 0.211055 -0.628450
C258  C     C_3   0.261256 0.204879 0.225182 0.111215
H150  H     H_    0.211779 0.194529 0.176884 0.186979
H151  H     H_    0.259655 0.237207 0.229287 0.104042
C259  C     C_3   0.282172 0.187277 0.302584 -0.318510
H152  H     H_    0.293669 0.155919 0.304976 0.223940
H153  H     H_    0.326814 0.202184 0.351691 0.206486
C260  C     C_3   0.229432 0.191004 0.313043 -0.988599
H154  H     H_    0.216061 0.221918 0.310186 0.265083
H155  H     H_    0.247343 0.179073 0.370826 0.270673
H156  H     H_    0.185716 0.174374 0.266857 0.271755
O65   O     O_3   0.793394 0.302826 0.203861 -0.627031
C261  C     C_3   0.804042 0.340422 0.186231 0.130009
H157  H     H_    0.777461 0.361631 0.196181 0.176073
H158  H     H_    0.784604 0.343978 0.124142 0.123110
C262  C     C_3   0.876116 0.351003 0.239726 -0.366335
H159  H     H_    0.895650 0.347397 0.301668 0.252001
H160  H     H_    0.902847 0.331363 0.227387 0.224916
C263  C     C_3   0.886797 0.392957 0.226610 -0.988156
H161  H     H_    0.865668 0.397645 0.164369 0.262530
H162  H     H_    0.939533 0.399112 0.262869 0.264002
H163  H     H_    0.864144 0.413502 0.243355 0.271159
O66   O     O_3   0.224729 0.713105 0.795005 -0.625212
C264  C     C_3   0.277731 0.735648 0.812639 0.157511
H164  H     H_    0.313019 0.742329 0.876209 0.144675
H165  H     H_    0.259665 0.763681 0.780268 0.113177
C265  C     C_3   0.313588 0.713198 0.788170 -0.316575
H166  H     H_    0.321283 0.682633 0.808789 0.257138
H167  H     H_    0.283833 0.712857 0.723435 0.196859
C266  C     C_3   0.379794 0.731089 0.823117 -0.983596
H168  H     H_    0.374838 0.762299 0.807099 0.258959
H169  H     H_    0.402954 0.715271 0.801072 0.272684
H170  H     H_    0.411722 0.728554 0.887772 0.281100
O67   O     O_3   0.206483 0.303044 0.796254 -0.633867
C267  C     C_3   0.195946 0.340530 0.814386 0.129936
H171  H     H_    0.222491 0.361844 0.804601 0.177874
H172  H     H_    0.215465 0.343865 0.876541 0.119254
C268  C     C_3   0.123861 0.351156 0.761063 -0.361197
H173  H     H_    0.104271 0.347750 0.699065 0.251650
H174  H     H_    0.097163 0.331388 0.773234 0.224507
C269  C     C_3   0.113168 0.393029 0.774584 -0.989981
H175  H     H_    0.134215 0.397494 0.836849 0.262566
H176  H     H_    0.060428 0.399223 0.738278 0.263817
H177  H     H_    0.135898 0.413695 0.758148 0.271499
O68   O     O_3   0.771669 0.717490 0.204765 -0.626772
C270  C     C_3   0.720280 0.741977 0.186513 0.163773
H178  H     H_    0.687817 0.750804 0.123785 0.136819
H179  H     H_    0.740617 0.768883 0.222315 0.119337
C271  C     C_3   0.679298 0.720479 0.204659 -0.314928
H180  H     H_    0.669063 0.690475 0.180939 0.264518
H181  H     H_    0.706447 0.718366 0.268903 0.195316
C272  C     C_3   0.614524 0.740794 0.167948 -0.989572
H182  H     H_    0.622209 0.770960 0.190414 0.260184
H183  H     H_    0.586271 0.724197 0.182078 0.278594
H184  H     H_    0.585994 0.741725 0.103406 0.278369
O69   O     O_3   0.162151 0.791462 0.082114 -0.643785
C273  C     C_3   0.147564 0.759369 0.110193 0.164844
H185  H     H_    0.145940 0.770424 0.157357 0.170404
H186  H     H_    0.185690 0.736364 0.137180 0.136895
C274  C     C_3   0.081316 0.741806 0.045595 -0.382600
H187  H     H_    0.044646 0.765344 0.014854 0.247224
H188  H     H_    0.084308 0.726602 0.002435 0.225990
C275  C     C_3   0.059624 0.712776 0.079054 -0.981174
H189  H     H_    0.096287 0.689318 0.111342 0.262963
H190  H     H_    0.012904 0.699370 0.030931 0.263933
H191  H     H_    0.052725 0.727780 0.119126 0.283580
O70   O     O_3   0.775311 0.153122 0.917138 -0.625598
C276  C     C_3   0.721890 0.127599 0.886972 0.119814
H192  H     H_    0.674599 0.143190 0.852826 0.176165
H193  H     H_    0.726022 0.111899 0.934560 0.107944
C277  C     C_3   0.721066 0.097365 0.834405 -0.293922
H194  H     H_    0.719980 0.112330 0.788072 0.244837
H195  H     H_    0.765975 0.079531 0.869679 0.204403
C278  C     C_3   0.662159 0.070646 0.796115 -0.983726
H196  H     H_    0.662556 0.054878 0.841348 0.260712
H197  H     H_    0.663279 0.048971 0.758777 0.273977
H198  H     H_    0.616687 0.087819 0.758888 0.267533
O71   O     O_3   0.841244 0.784087 0.917522 -0.631876
C279  C     C_3   0.864817 0.750440 0.904693 0.131531
H199  H     H_    0.828204 0.726524 0.878215 0.140920
H200  H     H_    0.909937 0.740197 0.960919 0.153948
C280  C     C_3   0.880018 0.760489 0.848393 -0.312968
H201  H     H_    0.834800 0.770085 0.791735 0.247201
H202  H     H_    0.915456 0.784790 0.872600 0.213261
C281  C     C_3   0.907993 0.725572 0.834342 -0.967894
H203  H     H_    0.955161 0.716902 0.889417 0.271542
H204  H     H_    0.915898 0.733368 0.790772 0.280623
H205  H     H_    0.874021 0.700549 0.811780 0.255136
O72   O     O_3   0.226346 0.152747 0.083288 -0.625647
C282  C     C_3   0.280059 0.127457 0.113374 0.119501
H206  H     H_    0.327158 0.143226 0.147579 0.176172
H207  H     H_    0.276108 0.111958 0.065730 0.108096
C283  C     C_3   0.281241 0.096990 0.165865 -0.293584
H208  H     H_    0.282318 0.111755 0.212351 0.244553
H209  H     H_    0.236471 0.079067 0.130591 0.204557
C284  C     C_3   0.340347 0.070424 0.203884 -0.984720
H210  H     H_    0.339943 0.054833 0.158499 0.260955
H211  H     H_    0.339518 0.048596 0.241231 0.274157
H212  H     H_    0.385686 0.087686 0.241052 0.267205
O73   O     O_3   0.671438 0.308951 0.077616 -0.635969
C285  C     C_3   0.641953 0.281144 0.095128 0.143617
H213  H     H_    0.674290 0.255588 0.126774 0.147088
H214  H     H_    0.595565 0.271011 0.040267 0.141767
C286  C     C_3   0.627759 0.300092 0.147404 -0.334323
H215  H     H_    0.673648 0.311438 0.201094 0.249623
H216  H     H_    0.594007 0.324968 0.116210 0.205892
C287  C     C_3   0.597703 0.271197 0.170753 -0.962791
H217  H     H_    0.551688 0.259429 0.118128 0.270792
H218  H     H_    0.587149 0.286126 0.207538 0.279495
H219  H     H_    0.631733 0.246773 0.204765 0.264914
O74   O     O_3   0.298607 0.667014 0.914559 -0.621531
C288  C     C_3   0.249418 0.638119 0.879428 0.109648
H220  H     H_    0.199966 0.650956 0.840882 0.169234
H221  H     H_    0.252507 0.620426 0.924617 0.112446
C289  C     C_3   0.257988 0.611112 0.830053 -0.323744
H222  H     H_    0.252888 0.628153 0.782846 0.234467
H223  H     H_    0.307262 0.598022 0.867293 0.211146
C290  C     C_3   0.207512 0.578622 0.793130 -0.965179
H224  H     H_    0.212191 0.560660 0.839138 0.261078
H225  H     H_    0.215011 0.559591 0.757661 0.269111
H226  H     H_    0.157836 0.591060 0.754390 0.269122
O75   O     O_3   0.330481 0.308447 0.923666 -0.641004
C291  C     C_3   0.351531 0.280028 0.895883 0.161115
H227  H     H_    0.351148 0.293837 0.849052 0.167479
H228  H     H_    0.318361 0.254496 0.868578 0.140581
C292  C     C_3   0.420827 0.266408 0.960794 -0.389023
H229  H     H_    0.453829 0.291882 0.987017 0.232149
H230  H     H_    0.421987 0.251388 0.007227 0.234147
C293  C     C_3   0.445410 0.238420 0.929185 -0.979629
H231  H     H_    0.413074 0.212655 0.902166 0.265400
H232  H     H_    0.494892 0.228297 0.977685 0.262568
H233  H     H_    0.447479 0.253266 0.885005 0.278207
O76   O     O_3   0.693126 0.672171 0.084270 -0.622191
C294  C     C_3   0.739680 0.641726 0.119340 0.109604
H234  H     H_    0.790095 0.652991 0.159432 0.170444
H235  H     H_    0.736117 0.623681 0.074221 0.108678
C295  C     C_3   0.727355 0.615649 0.166445 -0.327005
H236  H     H_    0.733291 0.632908 0.213942 0.232006
H237  H     H_    0.676901 0.604364 0.127736 0.212928
C296  C     C_3   0.774488 0.581387 0.202642 -0.964488
H238  H     H_    0.768796 0.563172 0.156291 0.261555
H239  H     H_    0.764360 0.563109 0.236535 0.268095
H240  H     H_    0.825258 0.592021 0.242712 0.269305
O77   O     O_3   0.083564 0.797439 0.921684 -0.591769
C297  C     C_3   0.086179 0.838145 0.933268 0.142817
H241  H     H_    0.115790 0.852665 0.918728 0.118758
H242  H     H_    0.106927 0.845264 0.994553 0.164883
C298  C     C_3   0.017389 0.854567 0.880414 -0.315043
H243  H     H_    0.994333 0.846568 0.818759 0.246064
H244  H     H_    0.988255 0.841722 0.897245 0.218819
C299  C     C_3   0.017413 0.898804 0.886952 -1.005772
H245  H     H_    0.040833 0.907592 0.948264 0.267855
H246  H     H_    0.966763 0.909699 0.849872 0.272877
H247  H     H_    0.043871 0.912333 0.867035 0.261349
O78   O     O_3   0.871546 0.160671 0.079637 -0.613441
C300  C     C_3   0.855746 0.120810 0.076437 0.150909
H248  H     H_    0.901984 0.105586 0.120860 0.154704
H249  H     H_    0.838841 0.107342 0.020432 0.167213
C301  C     C_3   0.809248 0.112795 0.096654 -0.424083
H250  H     H_    0.830162 0.125396 0.154132 0.250394
H251  H     H_    0.761453 0.126881 0.054598 0.195793
C302  C     C_3   0.799074 0.069216 0.098691 -0.985395
H252  H     H_    0.777760 0.055970 0.040777 0.265649
H253  H     H_    0.765374 0.064430 0.113380 0.270176
H254  H     H_    0.845912 0.054713 0.143699 0.260968
O79   O     O_3   0.923724 0.785518 0.079606 -0.599369
C303  C     C_3   0.931646 0.824917 0.067418 0.162965
H255  H     H_    0.947209 0.841899 0.119913 0.155970
H256  H     H_    0.886939 0.839011 0.016094 0.118684
C304  C     C_3   0.985319 0.827289 0.058090 -0.310873
H257  H     H_    0.029907 0.813111 0.108932 0.231725
H258  H     H_    0.969825 0.811545 0.004403 0.226441
C305  C     C_3   0.000866 0.869342 0.052439 -0.991273
H259  H     H_    0.957821 0.883565 0.999797 0.269819
H260  H     H_    0.041210 0.869794 0.047989 0.273878
H261  H     H_    0.016049 0.885897 0.105328 0.264477
O80   O     O_3   0.129766 0.160224 0.920775 -0.613355
C306  C     C_3   0.145923 0.120418 0.924100 0.150846
H262  H     H_    0.099791 0.105068 0.879918 0.154779
H263  H     H_    0.163169 0.106947 0.980243 0.167520
C307  C     C_3   0.192237 0.112603 0.903530 -0.423625
H264  H     H_    0.170937 0.125146 0.845884 0.250513
H265  H     H_    0.239896 0.126861 0.945281 0.196176
C308  C     C_3   0.202886 0.069069 0.901749 -0.985836
H266  H     H_    0.224610 0.055880 0.959837 0.265829
H267  H     H_    0.236410 0.064428 0.886744 0.270248
H268  H     H_    0.156164 0.054397 0.857064 0.260759
O81   O     O_3   0.592889 0.310332 0.914506 -0.606652
C309  C     C_3   0.594866 0.350735 0.928561 0.174007
H269  H     H_    0.584854 0.366468 0.877550 0.149342
H270  H     H_    0.642194 0.361547 0.981328 0.124566
C310  C     C_3   0.540744 0.360754 0.934591 -0.319921
H271  H     H_    0.493544 0.350713 0.880999 0.222356
H272  H     H_    0.549170 0.345435 0.985299 0.231101
C311  C     C_3   0.537107 0.404467 0.943793 -1.000544
H273  H     H_    0.582789 0.414889 0.998863 0.269512
H274  H     H_    0.496195 0.410767 0.945664 0.273549
H275  H     H_    0.528764 0.420380 0.893566 0.262786
O82   O     O_3   0.391894 0.673412 0.076980 -0.600465
C312  C     C_3   0.384709 0.632282 0.071706 0.158128
H276  H     H_    0.434030 0.619929 0.114314 0.156282
H277  H     H_    0.368932 0.621335 0.014403 0.163908
C313  C     C_3   0.341865 0.616362 0.092936 -0.416699
H278  H     H_    0.360805 0.627087 0.151247 0.253608
H279  H     H_    0.291152 0.626736 0.051349 0.195243
C314  C     C_3   0.341746 0.571960 0.093590 -0.982976
H280  H     H_    0.322989 0.560506 0.035174 0.265875
H281  H     H_    0.309996 0.561430 0.108332 0.269035
H282  H     H_    0.391558 0.560703 0.138010 0.264214
O83   O     O_3   0.404191 0.313391 0.084395 -0.605722
C315  C     C_3   0.397626 0.353970 0.069818 0.186302
H283  H     H_    0.407930 0.368686 0.121777 0.155178
H284  H     H_    0.348530 0.363494 0.018188 0.107671
C316  C     C_3   0.448414 0.367590 0.060172 -0.334903
H285  H     H_    0.496644 0.355604 0.108378 0.226759
H286  H     H_    0.435571 0.356822 0.003870 0.237101
C317  C     C_3   0.452736 0.411924 0.061419 -0.999742
H287  H     H_    0.405536 0.424583 0.012379 0.268668
H288  H     H_    0.490488 0.420864 0.055336 0.272309
H289  H     H_    0.466201 0.423523 0.117585 0.262259
O84   O     O_3   0.601376 0.679459 0.923049 -0.603039
C318  C     C_3   0.606066 0.638222 0.924110 0.171670
H290  H     H_    0.556045 0.627195 0.880076 0.161075
H291  H     H_    0.621203 0.626067 0.980435 0.154583
C319  C     C_3   0.648723 0.622498 0.902328 -0.428192
H292  H     H_    0.635666 0.637634 0.849448 0.254834
H293  H     H_    0.700668 0.628614 0.949299 0.190453
C320  C     C_3   0.640234 0.578652 0.888047 -0.982477
H294  H     H_    0.653695 0.563266 0.941326 0.266387
H295  H     H_    0.672055 0.568128 0.873414 0.272406
H296  H     H_    0.589195 0.571666 0.838626 0.264890
O85   O     O_3   0.497425 0.600431 0.382497 -0.685755
C321  C     C_3   0.441995 0.623181 0.327154 0.112430
H297  H     H_    0.443053 0.627106 0.277072 0.174527
H298  H     H_    0.447585 0.653207 0.348615 0.173620
C322  C     C_3   0.375358 0.605208 0.295084 -0.403197
H299  H     H_    0.364036 0.581487 0.253534 0.214143
H300  H     H_    0.375025 0.592545 0.342078 0.220190
C323  C     C_3   0.321535 0.635798 0.254074 -0.883794
H301  H     H_    0.327261 0.656195 0.297784 0.304426
H302  H     H_    0.273675 0.621279 0.223235 0.242209
H303  H     H_    0.322359 0.652848 0.211112 0.257070
O86   O     O_3   0.517434 0.397816 0.622921 -0.658221
C324  C     C_3   0.457491 0.389563 0.607912 0.048973
H304  H     H_    0.433351 0.364882 0.566132 0.166308
H305  H     H_    0.424344 0.415255 0.583478 0.135909
C325  C     C_3   0.470413 0.378178 0.684755 -0.331448
H306  H     H_    0.504739 0.353378 0.711160 0.271915
H307  H     H_    0.492597 0.403225 0.725759 0.205867
C326  C     C_3   0.408715 0.366131 0.673188 -0.953881
H308  H     H_    0.371927 0.389699 0.643721 0.256935
H309  H     H_    0.419909 0.360352 0.730861 0.270068
H310  H     H_    0.389123 0.339004 0.638076 0.264320
O87   O     O_3   0.506734 0.601346 0.615900 -0.680374
C327  C     C_3   0.568514 0.617212 0.676262 0.101812
H311  H     H_    0.571893 0.616042 0.729716 0.176689
H312  H     H_    0.569380 0.648613 0.665314 0.187847
C328  C     C_3   0.629081 0.596210 0.694332 -0.400604
H313  H     H_    0.631820 0.566188 0.715305 0.217023
H314  H     H_    0.626511 0.594509 0.641220 0.227764
C329  C     C_3   0.691350 0.617983 0.755975 -0.924773
H315  H     H_    0.689647 0.648120 0.736077 0.288457
H316  H     H_    0.733388 0.602668 0.765860 0.252927
H317  H     H_    0.698755 0.619055 0.812157 0.259055
O88   O     O_3   0.481229 0.397220 0.374955 -0.657706
C330  C     C_3   0.541008 0.389074 0.389440 0.044639
H318  H     H_    0.565891 0.364775 0.432118 0.165871
H319  H     H_    0.573597 0.414989 0.412505 0.135972
C331  C     C_3   0.527534 0.376969 0.312601 -0.325190
H320  H     H_    0.493474 0.352062 0.287410 0.274682
H321  H     H_    0.504784 0.401682 0.270755 0.205003
C332  C     C_3   0.588952 0.364745 0.323590 -0.958830
H322  H     H_    0.625537 0.388434 0.351883 0.257511
H323  H     H_    0.577198 0.358419 0.265781 0.271446
H324  H     H_    0.609089 0.337891 0.359578 0.263612
O89   O     O_3   0.988655 0.100542 0.378222 -0.686438
C333  C     C_3   0.932387 0.123333 0.325465 0.121868
H325  H     H_    0.926900 0.124229 0.270444 0.176489
H326  H     H_    0.941845 0.154113 0.344264 0.190446
C334  C     C_3   0.867367 0.108193 0.304988 -0.418718
H327  H     H_    0.849277 0.083995 0.262362 0.211244
H328  H     H_    0.872609 0.096638 0.356472 0.224559
C335  C     C_3   0.816357 0.140510 0.271010 -0.843155
H329  H     H_    0.825457 0.159160 0.318758 0.308852
H330  H     H_    0.767417 0.127430 0.239828 0.237086
H331  H     H_    0.816954 0.159405 0.229840 0.254510
O90   O     O_3   0.020070 0.897986 0.625155 -0.669116
C336  C     C_3   0.959231 0.889726 0.608315 0.071871
H332  H     H_    0.958353 0.858176 0.618951 0.148616
H333  H     H_    0.916600 0.895222 0.546470 0.136335
C337  C     C_3   0.951691 0.913237 0.662775 -0.365246
H334  H     H_    0.996523 0.910767 0.723793 0.223296
H335  H     H_    0.943937 0.944387 0.645680 0.220101
C338  C     C_3   0.894254 0.899491 0.659315 -0.962311
H336  H     H_    0.848315 0.906465 0.601417 0.258986
H337  H     H_    0.894076 0.915001 0.704286 0.268274
H338  H     H_    0.897344 0.867696 0.670531 0.263687
O91   O     O_3   0.011831 0.100473 0.621847 -0.685996
C339  C     C_3   0.068158 0.123175 0.674670 0.121793
H339  H     H_    0.073811 0.123902 0.729807 0.176278
H340  H     H_    0.058656 0.153998 0.656088 0.191137
C340  C     C_3   0.133121 0.108104 0.694805 -0.419057
H341  H     H_    0.151428 0.083885 0.737463 0.210853
H342  H     H_    0.127737 0.096596 0.643213 0.224722
C341  C     C_3   0.184002 0.140457 0.728559 -0.842575
H343  H     H_    0.174713 0.159115 0.680703 0.308583
H344  H     H_    0.232979 0.127412 0.759635 0.237206
H345  H     H_    0.183456 0.159343 0.769770 0.254532
O92   O     O_3   0.980097 0.897945 0.374805 -0.662053
C342  C     C_3   0.041106 0.889062 0.392525 0.080926
H346  H     H_    0.041824 0.857354 0.382965 0.147776
H347  H     H_    0.083620 0.894832 0.454331 0.132489
C343  C     C_3   0.049411 0.911769 0.337911 -0.373464
H348  H     H_    0.005053 0.908946 0.276692 0.218371
H349  H     H_    0.056920 0.943075 0.353844 0.220389
C344  C     C_3   0.107298 0.897445 0.342822 -0.962865
H350  H     H_    0.152981 0.905122 0.400449 0.260124
H351  H     H_    0.107454 0.911912 0.296919 0.266659
H352  H     H_    0.104698 0.865457 0.333733 0.267215

loop_
_geom_bond_atom_site_label_1
_geom_bond_atom_site_label_2
_ccdc_geom_bond_type
C304  C305  S    
C242  H112  S    
C164  O28   A    
C308  H266  S    
O7    Zn9   S    
C31   O87   S    
O38   Zn10  S    
C250  H131  S    
C270  H178  S    
C280  H201  S    
C255  H144  S    
O81   C309  S    
C326  H310  S    
C19   O75   S    
C81   C134  S    
O9    Zn15  S    
C61   C69   A    
C286  H215  S    
C322  H300  S    
C324  C325  S    
C12   C23   A    
C45   C57   A    
O92   C342  S    
O2    Zn4   S    
O36   Zn6   S    
C122  C130  A    
O58   C240  S    
C303  H256  S    
C305  H259  S    
C273  H185  S    
C321  H298  S    
C6    C25   A    
C195  C203  A    
C115  C136  A    
C178  O46   A    
C333  H326  S    
C184  C193  S    
C153  C173  A    
C184  O52   A    
C252  C253  S    
C193  C201  A    
C227  H77   S    
C30   C38   A    
C293  H233  S    
C234  H95   S    
O68   C270  S    
O73   C285  S    
C80   O18   A    
C295  H236  S    
C228  C229  S    
C214  C222  A    
C317  H289  S    
C21   O77   S    
C197  C205  A    
C313  C314  S    
C5    C217  A    
C326  H308  S    
C95   C103  A    
O62   C252  S    
C157  O31   A    
C341  H345  S    
C18   C26   A    
C301  H250  S    
C317  H288  S    
C48   C60   A    
C284  H211  S    
C196  C204  A    
C61   C105  A    
C208  C216  A    
C71   C83   A    
C279  C280  S    
C300  C301  S    
C97   C105  A    
C206  C214  A    
C333  C334  S    
C311  H274  S    
O63   C255  S    
C200  C208  A    
C247  H124  S    
O10   Zn16  S    
C294  H235  S    
C329  H316  S    
O26   Zn14  S    
C9    C189  A    
C41   C49   A    
C327  H311  S    
C277  H195  S    
C182  O50   A    
C309  H270  S    
C10   C21   A    
C12   C192  A    
C115  C123  A    
C51   C52   A    
C314  H282  S    
O3    Zn5   S    
C74   H70   S    
O41   Zn13  S    
O74   C288  S    
C307  C308  S    
O15   Zn3   S    
C93   C101  A    
C264  H165  S    
C269  H175  S    
C212  C220  A    
O20   Zn8   S    
C309  H269  S    
C101  H13   S    
C185  O53   S    
C7    C28   A    
C31   C37   A    
C272  H184  S    
C329  H317  S    
C111  H55   S    
C232  C233  S    
C284  H210  S    
C216  C224  A    
C191  O59   S    
O72   C282  S    
C290  H225  S    
C309  C310  S    
C33   C39   A    
C108  H52   S    
C235  H97   S    
C265  H166  S    
C204  C212  A    
C261  H157  S    
C3    O9    A    
C13   C21   A    
C170  H34   S    
O3    Zn15  S    
C66   C110  A    
C298  H243  S    
C72   C84   A    
O46   Zn4   S    
C299  H247  S    
O23   Zn11  S    
C243  H115  S    
C292  H230  S    
C251  H134  S    
C308  H268  S    
C257  H148  S    
C96   C104  A    
C33   C47   A    
C250  C251  S    
C157  O21   A    
C100  H12   S    
C34   C48   A    
C259  H152  S    
C230  H84   S    
C35   C45   A    
C180  O48   A    
C99   C107  A    
C263  H161  S    
C336  H333  S    
C124  C161  S    
C286  C287  S    
C44   C50   A    
C104  H16   S    
C58   H46   S    
O88   C330  S    
C247  H125  S    
C343  C344  S    
O2    Zn2   S    
C90   H2    S    
C35   O91   S    
O2    Zn12  S    
C183  O51   A    
O79   C303  S    
C118  H22   S    
C62   C106  A    
O4    Zn14  S    
C257  H149  S    
C83   C91   A    
C6    C186  A    
C125  C133  A    
C98   C106  A    
C227  H79   S    
C163  O27   A    
C17   C25   A    
C239  H105  S    
C6    C218  A    
C275  H190  S    
C80   O20   A    
C209  C217  A    
C328  H314  S    
C118  C129  A    
O53   C225  S    
C343  H349  S    
C338  H337  S    
C150  C170  A    
C155  C167  A    
C53   H41   S    
O44   Zn16  S    
C315  H284  S    
C19   C215  A    
C192  C200  A    
C144  C154  A    
O64   C258  S    
C70   C82   A    
C246  H123  S    
C233  H91   S    
C141  C147  A    
C47   C59   A    
C314  H280  S    
C48   C52   A    
C339  C340  S    
C89   H1    S    
C289  H222  S    
C126  C134  A    
C301  H251  S    
O76   C294  S    
C280  C281  S    
C40   C77   S    
C319  H293  S    
C142  C156  A    
O57   C237  S    
C236  H98   S    
C281  H204  S    
C327  C328  S    
O91   C339  S    
C4    O10   A    
C229  H82   S    
C244  H118  S    
C158  O32   A    
C178  C199  S    
C116  H20   S    
C84   C135  S    
C310  H271  S    
C342  H347  S    
O19   Zn7   S    
O30   Zn4   S    
O75   C291  S    
O35   Zn5   S    
C266  H170  S    
O78   C300  S    
C274  C275  S    
C325  H307  S    
C125  C160  S    
O52   Zn6   S    
C116  C135  A    
C288  H220  S    
C192  O60   S    
C242  H113  S    
C62   C70   A    
C285  H214  S    
O49   Zn7   S    
C149  C169  A    
C70   H66   S    
C7    C187  A    
C270  H179  S    
C254  H141  S    
C334  H327  S    
C152  C172  A    
C268  C269  S    
C283  C284  S    
C170  C171  A    
C156  C168  A    
C234  H94   S    
C150  C166  A    
C265  C266  S    
C183  C194  S    
C151  C171  A    
C124  C132  A    
C334  C335  S    
C68   C112  A    
C276  H192  S    
C119  H23   S    
C174  C175  A    
C298  C299  S    
O5    Zn11  S    
C91   C99   A    
C175  H39   S    
C219  C224  A    
C245  H119  S    
C85   C93   A    
C176  H40   S    
C243  C244  S    
C292  H229  S    
O43   Zn15  S    
C231  H87   S    
O56   C234  S    
C271  C272  S    
C87   C95   A    
C261  H158  S    
C323  H303  S    
C36   C46   A    
C249  H129  S    
C177  O37   A    
C15   O71   S    
C258  C259  S    
C323  H302  S    
C247  C248  S    
C263  H163  S    
O32   Zn2   S    
C162  O26   A    
C313  H279  S    
C26   O82   S    
C143  H31   S    
C262  H159  S    
C335  H329  S    
C320  H295  S    
C203  C211  A    
C96   H8    S    
C18   C214  A    
O2    Zn10  S    
C201  C209  A    
C279  H200  S    
C128  C157  S    
C64   C108  A    
C278  H198  S    
C20   O76   S    
C312  H277  S    
O45   Zn3   S    
C37   C80   S    
C100  C108  A    
C1    O7    A    
O14   Zn2   S    
C154  C174  A    
O13   Zn1   S    
C39   C78   S    
C13   C209  A    
C66   H62   S    
C340  C341  S    
C149  C165  A    
C181  O41   A    
C236  H100  S    
C25   O81   S    
C104  C112  A    
C10   C222  A    
O34   Zn8   S    
C248  H127  S    
C2    C147  S    
C151  C165  A    
C30   O86   S    
C161  O35   A    
C103  C111  A    
C74   C86   A    
C5    C26   A    
C297  C298  S    
C189  O57   S    
C284  H212  S    
C112  H56   S    
O69   C273  S    
C64   H60   S    
C331  H321  S    
O59   C243  S    
C98   H10   S    
C289  C290  S    
C225  H74   S    
O17   Zn5   S    
C291  H227  S    
C249  C250  S    
C322  H299  S    
C237  H101  S    
C302  H253  S    
C330  H319  S    
C164  O34   A    
C323  H301  S    
C293  H232  S    
C225  C226  S    
C41   C53   A    
C83   C136  S    
C4    O12   A    
C229  C230  S    
C43   C55   A    
C241  H110  S    
C114  H18   S    
C42   C50   A    
C240  C241  S    
C78   O16   A    
C2    O8    A    
C269  H176  S    
C260  H156  S    
C67   C75   A    
C266  H168  S    
C159  O23   A    
C107  H51   S    
O82   C312  S    
C94   H6    S    
C218  C221  A    
C299  H246  S    
C235  H96   S    
C53   C56   A    
C75   C87   A    
C232  H90   S    
C54   C55   A    
C313  H278  S    
C160  O30   A    
C31   C41   A    
C273  C274  S    
C77   O15   A    
C271  H180  S    
C307  H265  S    
C186  C194  A    
O1    Zn11  S    
C287  H217  S    
C138  H26   S    
C336  C337  S    
C109  H53   S    
C268  H173  S    
C326  H309  S    
C279  H199  S    
O31   Zn1   S    
C179  C198  S    
C310  C311  S    
C206  O66   S    
C142  H30   S    
C105  H49   S    
C226  C227  S    
C208  O68   S    
C72   H68   S    
C230  H86   S    
C36   O92   S    
C202  O62   S    
O77   C297  S    
C273  H186  S    
C321  C322  S    
C187  O55   S    
C32   O88   S    
C281  H205  S    
C231  C232  S    
C4    C145  S    
C252  H137  S    
C227  H78   S    
C11   C191  A    
C158  O22   A    
C16   C212  A    
C56   H44   S    
C295  H237  S    
C228  H81   S    
C282  H206  S    
C182  O42   A    
C113  C121  A    
C253  H138  S    
C238  H104  S    
C248  H126  S    
C262  C263  S    
C258  H150  S    
C182  C195  S    
C84   C92   A    
C88   C131  S    
C296  H239  S    
O60   C246  S    
C260  H154  S    
C117  C125  A    
C220  C223  A    
C29   C43   A    
O66   C264  S    
C226  H76   S    
C340  H341  S    
C201  O61   S    
C88   C96   A    
C238  H103  S    
C177  O45   A    
C234  C235  S    
C120  C131  A    
C250  H132  S    
O37   Zn9   S    
C330  H318  S    
C140  H28   S    
C5    C185  A    
C30   C44   A    
C288  C289  S    
C344  H350  S    
C256  C257  S    
C302  H252  S    
O33   Zn7   S    
C8    C188  A    
C144  H32   S    
C160  O24   A    
C317  H287  S    
O4    Zn16  S    
C259  H153  S    
C267  H172  S    
C20   C216  A    
C137  C145  A    
C95   H7    S    
C300  H248  S    
C128  C136  A    
C264  H164  S    
C179  O39   A    
C143  C153  A    
C38   C79   S    
C101  C109  A    
C304  H257  S    
C194  C202  A    
C291  C292  S    
C159  O29   A    
C344  H352  S    
C29   O85   S    
C304  H258  S    
O50   Zn8   S    
C225  H73   S    
C12   C224  A    
C316  C317  S    
C75   H71   S    
C180  O40   A    
C213  C221  A    
C241  C242  S    
C162  O36   A    
C339  H339  S    
C78   O14   A    
C265  H167  S    
C28   O84   S    
C306  H262  S    
C300  H249  S    
C207  O67   S    
C203  O63   S    
C318  C319  S    
C81   C89   A    
C243  H116  S    
O84   C318  S    
C344  H351  S    
C282  C283  S    
C205  C213  A    
C308  H267  S    
C332  H322  S    
C153  C167  A    
C17   O73   S    
C276  H193  S    
C189  C197  A    
O39   Zn11  S    
C283  H209  S    
C79   O19   A    
C287  H219  S    
O25   Zn13  S    
C255  H143  S    
C263  H162  S    
C305  H260  S    
C286  H216  S    
C204  O64   S    
O48   Zn2   S    
C261  C262  S    
C23   O79   S    
C331  C332  S    
C232  H89   S    
C282  H207  S    
C93   H5    S    
C278  H197  S    
C140  C146  A    
C167  C168  A    
C321  H297  S    
C141  C155  A    
C57   C60   A    
C47   C51   A    
C138  C152  A    
C333  H325  S    
C126  C159  S    
C139  C149  A    
O71   C279  S    
C259  C260  S    
C239  H106  S    
C35   C39   A    
C254  H140  S    
C85   C130  S    
C177  C200  S    
C305  H261  S    
C44   C56   A    
C152  C166  A    
O87   C327  S    
C253  C254  S    
C248  H128  S    
C207  C215  A    
C10   C190  A    
C303  H255  S    
C127  C158  S    
C65   C109  A    
C307  H264  S    
C63   C71   A    
C233  H92   S    
C178  O38   A    
C67   C111  A    
C311  H273  S    
O3    Zn7   S    
C289  H223  S    
C184  O44   A    
C238  C239  S    
C113  C134  A    
C280  H202  S    
C294  C295  S    
C271  H181  S    
C102  C110  A    
C324  H305  S    
C329  H315  S    
C11   C223  A    
C211  C219  A    
C277  H194  S    
C190  C198  A    
C229  H83   S    
C296  H238  S    
C155  C175  A    
C217  C222  A    
O24   Zn12  S    
C156  C176  A    
C306  H263  S    
C320  H296  S    
C116  C124  A    
C123  C131  A    
C256  H145  S    
C62   H58   S    
C121  C129  A    
O29   Zn3   S    
C233  H93   S    
C119  C132  A    
C264  C265  S    
C137  H25   S    
C120  C128  A    
C173  C176  A    
C117  H21   S    
C335  H331  S    
C20   C28   A    
C82   C90   A    
C141  H29   S    
C82   C133  S    
C186  O54   S    
C58   C59   A    
C316  H285  S    
C272  H183  S    
C42   C54   A    
C290  H226  S    
C268  H174  S    
C14   C22   A    
C336  H332  S    
C337  H334  S    
C205  O65   S    
O47   Zn1   S    
C171  H35   S    
C328  C329  S    
O42   Zn14  S    
C240  H108  S    
C297  H242  S    
C298  H244  S    
C69   C81   A    
C14   O70   S    
C318  H290  S    
C9    C221  A    
C292  C293  S    
C251  H133  S    
C92   H4    S    
C337  H335  S    
C257  H147  S    
C332  H324  S    
C29   C37   A    
C8    C27   A    
C32   C42   A    
C163  O33   A    
C65   H61   S    
C249  H130  S    
C79   O17   A    
C245  H121  S    
C255  C256  S    
C190  O58   S    
C61   H57   S    
C110  H54   S    
C66   C74   A    
C302  H254  S    
C165  C166  A    
O4    Zn8   S    
C320  H294  S    
O18   Zn6   S    
C303  C304  S    
C266  H169  S    
O83   C315  S    
O27   Zn15  S    
C287  H218  S    
C252  H136  S    
C63   H59   S    
O67   C267  S    
C16   O72   S    
C260  H155  S    
O1    Zn3   S    
O85   C321  S    
C143  C147  A    
O89   C333  S    
C54   H42   S    
C91   H3    S    
O40   Zn12  S    
C34   C40   A    
C13   O69   S    
C275  H189  S    
C340  H342  S    
C191  C199  A    
C76   H72   S    
C15   C211  A    
C337  C338  S    
O3    Zn13  S    
C343  H348  S    
C338  H338  S    
C9    C22   A    
C236  H99   S    
C174  H38   S    
C45   C51   A    
C46   C52   A    
C11   C24   A    
C65   C73   A    
C315  H283  S    
C73   H69   S    
O65   C261  S    
C306  C307  S    
C181  C196  S    
C341  H344  S    
C67   H63   S    
C180  C197  S    
C154  C168  A    
C274  H188  S    
C297  H241  S    
O4    Zn6   S    
C311  H275  S    
O1    Zn1   S    
O1    Zn9   S    
C267  H171  S    
C246  C247  S    
C291  H228  S    
C18   O74   S    
C294  H234  S    
C319  H292  S    
C32   C38   A    
C172  H36   S    
C86   C94   A    
C76   C88   A    
C173  H37   S    
C277  C278  S    
C244  C245  S    
C7    C219  A    
C15   C23   A    
C283  H208  S    
C161  O25   A    
C240  H109  S    
C68   H64   S    
C120  H24   S    
C342  C343  S    
C169  H33   S    
C269  H177  S    
C1    O5    A    
O61   C249  S    
C71   H67   S    
C322  C323  S    
C202  C210  A    
C17   C213  A    
C325  H306  S    
C331  H320  S    
C245  H120  S    
C231  H88   S    
C288  H221  S    
C242  H114  S    
C102  H14   S    
C285  H213  S    
C14   C210  A    
C34   O90   S    
C142  C148  A    
C36   C40   A    
C270  C271  S    
C55   H43   S    
O86   C324  S    
C237  C238  S    
C258  H151  S    
O51   Zn5   S    
C254  H142  S    
C290  H224  S    
C334  H328  S    
C123  C162  S    
C97   H9    S    
C43   C49   A    
C324  H304  S    
C121  C164  S    
O6    Zn12  S    
C285  C286  S    
C2    O6    A    
C122  C163  S    
C89   C97   A    
C87   C132  S    
O21   Zn9   S    
C335  H330  S    
C8    C220  A    
C198  C206  A    
C235  C236  S    
C99   H11   S    
C310  H272  S    
C230  H85   S    
C22   O78   S    
C278  H196  S    
C251  H135  S    
O11   Zn13  S    
O8    Zn10  S    
C272  H182  S    
C319  C320  S    
C199  C207  A    
C274  H187  S    
C59   H47   S    
C68   C76   A    
C60   H48   S    
C33   O89   S    
C117  C130  A    
C295  C296  S    
C228  H80   S    
C24   O80   S    
C115  H19   S    
C339  H340  S    
O70   C276  S    
C253  H139  S    
C57   H45   S    
C49   C50   A    
C113  H17   S    
C262  H160  S    
C169  C172  A    
C63   C107  A    
C140  C150  A    
C328  H313  S    
C19   C27   A    
O54   C228  S    
C92   C100  A    
C226  H75   S    
C73   C85   A    
C312  C313  S    
C179  O47   A    
O16   Zn4   S    
C312  H276  S    
C103  H15   S    
C139  C145  A    
C187  C195  A    
C77   O13   A    
O80   C306  S    
C237  H102  S    
C275  H191  S    
C139  H27   S    
C185  C193  A    
O90   C336  S    
C183  O43   A    
C215  C223  A    
C338  H336  S    
C256  H146  S    
C86   C129  S    
C299  H245  S    
O28   Zn16  S    
C210  C218  A    
C315  C316  S    
C138  C146  A    
C188  O56   S    
C296  H240  S    
C332  H323  S    
C246  H122  S    
C106  H50   S    
C239  H107  S    
C281  H203  S    
C301  C302  S    
C241  H111  S    
C276  C277  S    
C114  C133  A    
C69   H65   S    
C330  C331  S    
C64   C72   A    
C181  O49   A    
C293  H231  S    
C127  C135  A    
C27   O83   S    
C316  H286  S    
O12   Zn14  S    
C244  H117  S    
C114  C122  A    
C267  C268  S    
O22   Zn10  S    
C188  C196  A    
C3    C146  S    
C16   C24   A    
C342  H346  S    
C3    O11   A    
C341  H343  S    
C137  C151  A    
C1    C148  S    
C118  C126  A    
C314  H281  S    
C90   C98   A    
C325  C326  S    
C46   C58   A    
O55   C231  S    
C94   C102  A    
C119  C127  A    
C327  H312  S    
C318  H291  S    
C144  C148  A    
