data_mof_unit_56754.cif
_audit_creation_date              2012-12-10T17:52:22-0500
_audit_creation_method            fapswitch 2.2
_symmetry_space_group_name_H-M    P1
_symmetry_Int_Tables_number       1
_space_group_crystal_system       triclinic
_cell_length_a                    19.06243
_cell_length_b                    10.619304
_cell_length_c                    9.976149
_cell_angle_alpha                 89.368366
_cell_angle_beta                  89.722523
_cell_angle_gamma                 93.522425
_cell_volume                      2015.50080557

loop_
_atom_site_label
_atom_site_type_symbol
_atom_type_description
_atom_site_fract_x
_atom_site_fract_y
_atom_site_fract_z
_atom_type_partial_charge
C1    C     C_R   0.501547 0.261083 0.500585 0.879835
C2    C     C_R   0.290429 0.520898 0.500069 -0.025458
C3    C     C_R   0.932508 0.598101 0.496633 0.287761
C4    C     C_R   0.074066 0.596355 0.496949 0.293557
C5    C     C_R   0.819014 0.569744 0.619097 -0.169050
C6    C     C_R   0.747046 0.541222 0.620029 -0.215510
C7    C     C_R   0.710958 0.523089 0.498961 -0.026853
C8    C     C_R   0.747699 0.534108 0.376943 -0.188054
C9    C     C_R   0.819685 0.562578 0.376000 -0.164210
C10   C     C_R   0.855925 0.579997 0.497107 0.090221
C11   C     C_R   0.623178 0.142117 0.603700 -0.155718
C12   C     C_R   0.365555 0.502636 0.500186 0.875874
C13   C     C_R   0.681058 0.081455 0.651395 -0.134797
C14   C     C_R   0.681125 0.950491 0.648508 -0.131002
C15   C     C_R   0.623261 0.879796 0.598191 -0.160258
C16   C     C_R   0.563722 0.939852 0.550643 0.041657
C17   C     C_R   0.563858 0.071714 0.553131 0.102485
C18   C     C_R   0.504915 0.129106 0.501504 -0.165975
C19   C     C_R   0.447836 0.060683 0.446599 -0.265220
C20   C     C_R   0.446900 0.931740 0.445085 0.384320
C21   C     C_R   0.504247 0.872109 0.497922 -0.204575
C22   C     C_R   0.406029 0.338981 0.151843 -0.147235
C23   C     C_R   0.500844 0.739209 0.499308 0.940745
C24   C     C_R   0.355919 0.259396 0.094286 -0.224677
C25   C     C_R   0.352115 0.254026 0.958171 -0.219217
C26   C     C_R   0.398719 0.327278 0.875613 0.124661
C27   C     C_R   0.451408 0.417287 0.931443 0.151528
C28   C     C_R   0.452828 0.419592 0.076259 0.141284
C29   C     C_R   0.545086 0.576799 0.069570 -0.096780
C30   C     C_R   0.545119 0.576795 0.927117 -0.114864
C31   C     C_R   0.634624 0.503539 0.499652 0.812601
C32   C     C_R   0.255260 0.541418 0.620879 -0.187166
C33   C     C_R   0.185147 0.569459 0.619689 -0.150487
C34   C     C_R   0.149271 0.577060 0.497691 0.083387
C35   C     C_R   0.184575 0.556592 0.376912 -0.144433
C36   C     C_R   0.254604 0.528350 0.378121 -0.137568
H1    H     H_    0.282007 0.537419 0.716251 0.162098
H2    H     H_    0.625739 0.243992 0.605696 0.143564
H3    H     H_    0.726183 0.136303 0.689727 0.141907
H4    H     H_    0.726336 0.903513 0.684506 0.139709
H5    H     H_    0.626099 0.778446 0.595649 0.132733
H6    H     H_    0.582156 0.639963 0.121475 0.141281
H7    H     H_    0.406073 0.333131 0.257341 0.208064
H8    H     H_    0.320410 0.199725 0.156043 0.173274
H9    H     H_    0.312983 0.188400 0.914696 0.158106
H10   H     H_    0.159070 0.584198 0.714400 0.152593
H11   H     H_    0.582148 0.639890 0.872826 0.141393
H12   H     H_    0.158053 0.560979 0.281378 0.150940
H13   H     H_    0.280738 0.513663 0.283403 0.165159
H14   H     H_    0.845688 0.582241 0.714049 0.150495
H15   H     H_    0.719714 0.534683 0.715537 0.156726
H16   H     H_    0.720886 0.521775 0.282076 0.156518
H17   H     H_    0.846909 0.569356 0.280426 0.150102
H18   H     H_    0.403351 0.107988 0.407041 0.165256
N1    N     N_R   0.038409 0.596501 0.379755 -0.175599
N2    N     N_R   0.968854 0.597342 0.379598 -0.177399
N3    N     N_R   0.968335 0.602464 0.613681 -0.178656
N4    N     N_R   0.037902 0.601630 0.613840 -0.177078
N5    N     N_R   0.499340 0.498800 0.142780 -0.115423
N6    N     N_R   0.499320 0.498720 0.857170 -0.109041
O1    O     O_R   0.500000 0.316780 0.614690 -0.600314
O2    O     O_R   0.499990 0.316750 0.385360 -0.633366
O3    O     O_R   0.398140 0.500000 0.614700 -0.601491
O4    O     O_R   0.398130 0.499970 0.385370 -0.628495
O5    O     O_R   0.500010 0.683250 0.614640 -0.616041
O6    O     O_R   0.500000 0.683220 0.385310 -0.578543
O7    O     O_R   0.601870 0.500030 0.614630 -0.634318
O8    O     O_R   0.601860 0.500000 0.385300 -0.619151
Zn1   Zn    Zn3+2 0.500000 0.500020 0.653130 0.957881
Zn2   Zn    Zn3+2 0.500000 0.499980 0.346870 0.963274
Cl1   Cl    Cl    0.371770 0.847725 0.380987 -0.621656
N7    N     N_3   0.390204 0.299812 0.737945 -0.366571
H19   H     H_    0.398295 0.204024 0.724798 0.182953
H20   H     H_    0.337765 0.311249 0.712082 0.158310

loop_
_geom_bond_atom_site_label_1
_geom_bond_atom_site_label_2
_ccdc_geom_bond_type
N1    N2    A    
C16   C21   A    
C29   H6    S    
C26   N7    S    
C35   C36   A    
C2    C12   S    
C1    O2    A    
C7    C8    A    
C31   O7    A    
C26   C27   A    
C23   O6    A    
C34   C35   A    
C27   N6    A    
O3    Zn1   S    
C5    C6    A    
C12   O4    A    
O1    Zn1   S    
C15   C16   A    
O2    Zn2   S    
C2    C32   A    
C18   C19   A    
C19   C20   A    
C16   C17   A    
C30   N6    A    
C20   Cl1   S    
O4    Zn2   S    
C6    H15   S    
C9    C10   A    
C8    H16   S    
C22   C28   A    
C13   C14   A    
C33   H10   S    
C35   H12   S    
C33   C34   A    
C31   O8    A    
C4    C34   S    
C7    C31   S    
C29   N5    A    
C30   H11   S    
C24   C25   A    
C15   H5    S    
N7    H20   S    
C12   O3    A    
C8    C9    A    
C25   C26   A    
O7    Zn1   S    
C11   H2    S    
C29   C30   A    
C3    N2    A    
C22   H7    S    
C17   C18   A    
C1    C18   S    
C32   H1    S    
C3    N3    A    
C19   H18   S    
C21   C23   S    
C4    N1    A    
C24   H8    S    
C22   C24   A    
C5    H14   S    
C9    H17   S    
C25   H9    S    
C28   N5    A    
C2    C36   A    
C11   C17   A    
N7    H19   S    
C1    O1    A    
C6    C7    A    
C32   C33   A    
C23   O5    A    
C5    C10   A    
C3    C10   S    
C11   C13   A    
N3    N4    A    
O6    Zn2   S    
N6    Zn1   S    
O5    Zn1   S    
C13   H3    S    
N5    Zn2   S    
C14   H4    S    
C20   C21   A    
O8    Zn2   S    
C4    N4    A    
C27   C28   A    
C14   C15   A    
C36   H13   S    
