data_mof_unit_58886.cif
_audit_creation_date              2012-10-26T18:29:57-0400
_audit_creation_method            fapswitch 2.2
_symmetry_space_group_name_H-M    P1
_symmetry_Int_Tables_number       1
_space_group_crystal_system       triclinic
_cell_length_a                    10.747848
_cell_length_b                    13.034823
_cell_length_c                    11.7185
_cell_angle_alpha                 100.046697
_cell_angle_beta                  94.530285
_cell_angle_gamma                 91.417955
_cell_volume                      1610.25203777

loop_
_atom_site_label
_atom_site_type_symbol
_atom_type_description
_atom_site_fract_x
_atom_site_fract_y
_atom_site_fract_z
_atom_type_partial_charge
C1    C     C_R   0.506825 0.299235 0.478989 0.599473
C2    C     C_R   0.564876 0.030204 0.553168 0.030580
C3    C     C_R   0.508043 0.968518 0.450245 -0.104117
C4    C     C_R   0.259618 0.500596 0.499942 0.612315
C5    C     C_R   0.490714 0.861597 0.442712 -0.184897
C6    C     C_R   0.601988 0.872247 0.633723 0.139102
C7    C     C_R   0.618324 0.979930 0.641475 0.417790
C8    C     C_R   0.355208 0.428913 0.023602 0.102132
C9    C     C_R   0.375173 0.428409 0.144312 0.313223
C10   C     C_R   0.564268 0.528342 0.155841 0.032086
C11   C     C_R   0.552523 0.526180 0.033071 -0.060599
C12   C     C_3   0.877622 0.500343 0.501401 0.043085
C13   C     C_R   0.446350 0.475377 0.965849 -0.035209
C14   C     C_R   0.435040 0.472726 0.843283 0.484510
C15   C     C_R   0.626126 0.568555 0.853842 -0.003656
C16   C     C_R   0.510556 0.700493 0.521820 0.526203
C17   C     C_R   0.644431 0.572959 0.975916 0.092005
C18   C     C_R   0.740013 0.501012 0.500668 0.563951
C19   C     C_3   0.082362 0.513859 0.627027 -0.263543
C20   C     C_3   0.939923 0.513695 0.627947 -0.316188
C21   C     C_3   0.068084 0.593799 0.445420 -0.038115
C22   C     C_3   0.062703 0.394767 0.432857 0.271576
C23   C     C_3   0.924189 0.594296 0.448937 -0.233577
C24   C     C_3   0.121164 0.500667 0.499990 0.024528
C25   C     C_3   0.117115 0.688859 0.289216 -0.306825
C26   C     C_3   0.602877 0.834643 0.829071 -0.256192
C27   C     C_3   0.536954 0.217730 0.763444 -0.204667
C28   C     C_3   0.143438 0.456358 0.949867 -0.278854
C29   C     C_3   0.865882 0.635725 0.984565 -0.315174
C30   C     C_3   0.257636 0.268965 0.160031 -0.219390
C31   C     C_3   0.848240 0.209109 0.384887 -0.201018
C32   C     C_3   0.917478 0.396275 0.426946 0.480438
C33   C     C_R   0.533138 0.813123 0.534877 -0.046967
C34   C     C_R   0.520364 0.185548 0.468237 0.003912
C35   C     C_R   0.471497 0.013673 0.354349 -0.097567
C36   C     C_R   0.482472 0.120574 0.361697 0.339290
C37   C     C_R   0.567723 0.139885 0.564137 0.079935
Cu1   Cu    Cu3+1 0.509350 0.507730 0.615930 0.984741
Cu2   Cu    Cu3+1 0.490650 0.492270 0.384070 1.039733
F1    F     F_    0.873188 0.394340 0.311626 -0.662799
F2    F     F_    0.693353 0.033090 0.732526 -0.611403
F3    F     F_    0.454885 0.159798 0.263777 -0.660511
F4    F     F_    0.338475 0.420365 0.775185 -0.651241
F5    F     F_    0.108123 0.313952 0.485307 -0.665867
H1    H     H_    0.123402 0.588286 0.679345 0.117865
H2    H     H_    0.109095 0.667027 0.500883 0.140114
H3    H     H_    0.898282 0.668559 0.502760 0.086177
H4    H     H_    0.091597 0.379989 0.343168 0.158401
H5    H     H_    0.052005 0.534341 0.265247 0.271253
H6    H     H_    0.149510 0.676045 0.200354 0.131345
H7    H     H_    0.188569 0.739358 0.348310 0.157610
H8    H     H_    0.026776 0.728428 0.287728 0.140125
H9    H     H_    0.699862 0.753157 0.695396 0.246006
H10   H     H_    0.512069 0.789834 0.813975 0.145048
H11   H     H_    0.586684 0.917687 0.863663 0.193891
H12   H     H_    0.876870 0.592502 0.360570 0.183167
H13   H     H_    0.663129 0.803658 0.895481 0.132399
H14   H     H_    0.673117 0.267274 0.662795 0.265495
H15   H     H_    0.512469 0.142409 0.789469 0.175927
H16   H     H_    0.449049 0.252226 0.735377 0.199238
H17   H     H_    0.583899 0.270256 0.840463 0.146716
H18   H     H_    0.247997 0.324603 0.894523 0.303389
H19   H     H_    0.172187 0.512609 0.894927 0.172129
H20   H     H_    0.122441 0.500117 0.035867 0.132060
H21   H     H_    0.057034 0.412865 0.907570 0.151543
H22   H     H_    0.735685 0.686301 0.104996 0.239198
H23   H     H_    0.442830 0.815957 0.364553 0.137794
H24   H     H_    0.945807 0.657423 0.051129 0.140554
H25   H     H_    0.856337 0.698501 0.931810 0.131654
H26   H     H_    0.886241 0.561125 0.928563 0.149881
H27   H     H_    0.202008 0.420211 0.201404 0.240251
H28   H     H_    0.334626 0.231996 0.111752 0.206288
H29   H     H_    0.169646 0.255154 0.102087 0.130005
H30   H     H_    0.244657 0.231586 0.236571 0.214650
H31   H     H_    0.895904 0.296510 0.549777 0.260543
H32   H     H_    0.808511 0.147405 0.427391 0.120515
H33   H     H_    0.939648 0.184249 0.353887 0.187076
H34   H     H_    0.435221 0.965892 0.272733 0.136934
H35   H     H_    0.782168 0.217984 0.309789 0.215676
H36   H     H_    0.118027 0.449504 0.670039 0.238299
H37   H     H_    0.694266 0.604416 0.808783 0.129999
H38   H     H_    0.643476 0.568623 0.208951 0.154771
H39   H     H_    0.907642 0.450904 0.673046 0.134327
H40   H     H_    0.913070 0.588635 0.679782 0.122483
N1    N     N_R   0.523430 0.519360 0.790130 -0.243997
N2    N     N_R   0.476570 0.480640 0.209880 -0.233258
N3    N     N_2   0.101910 0.589599 0.326648 -0.517083
N4    N     N_2   0.664022 0.825136 0.722230 -0.469081
N5    N     N_2   0.619488 0.202517 0.670331 -0.437117
N6    N     N_2   0.240754 0.383764 0.964199 -0.510554
N7    N     N_2   0.753228 0.623914 0.041903 -0.522686
N8    N     N_2   0.282881 0.379743 0.199247 -0.436635
N9    N     N_2   0.863563 0.306145 0.467287 -0.467549
O1    O     O_R   0.506640 0.354460 0.582000 -0.486823
O2    O     O_R   0.490840 0.341410 0.386200 -0.404048
O3    O     O_R   0.325590 0.506510 0.597900 -0.433972
O4    O     O_R   0.309790 0.493450 0.402100 -0.472532
O5    O     O_R   0.509160 0.658590 0.613800 -0.521064
O6    O     O_R   0.493360 0.645540 0.418000 -0.525363
O7    O     O_R   0.690210 0.506550 0.597900 -0.555472
O8    O     O_R   0.674410 0.493490 0.402100 -0.465796

loop_
_geom_bond_atom_site_label_1
_geom_bond_atom_site_label_2
_ccdc_geom_bond_type
C22   H4    S    
C21   N3    S    
C8    C13   A    
C34   C37   A    
H5    N3    S    
C36   F3    S    
C35   C36   A    
C17   N7    S    
Cu1   O5    S    
C26   H11   S    
C23   H12   S    
C15   H37   S    
C12   C23   S    
C22   C32   S    
C21   H2    S    
C2    C3    A    
C27   H16   S    
Cu1   Cu2   S    
C16   C33   S    
Cu2   O4    S    
C25   N3    S    
C6    N4    S    
C25   H6    S    
C27   H17   S    
C4    O3    A    
C11   C17   A    
H27   N8    S    
C2    C7    A    
C8    C9    A    
C5    C33   A    
C31   H33   S    
C5    H23   S    
C15   N1    A    
C32   F1    S    
C32   N9    S    
C13   C14   A    
C12   C32   S    
Cu1   O1    S    
C18   O7    A    
C26   H10   S    
C9    N8    S    
C26   H13   S    
C1    C34   S    
Cu2   O8    S    
C29   H25   S    
C22   F5    S    
C23   H3    S    
Cu1   N1    S    
C30   N8    S    
C30   H29   S    
C1    O1    A    
C31   N9    S    
C10   H38   S    
C18   O8    A    
C25   H7    S    
C9    N2    A    
C29   H24   S    
Cu2   O6    S    
C3    C35   A    
C1    O2    A    
C12   C20   S    
Cu2   O2    S    
H22   N7    S    
C28   H20   S    
Cu1   O7    S    
C27   N5    S    
C20   H40   S    
C22   C24   S    
C20   H39   S    
C8    N6    S    
Cu1   O3    S    
C29   N7    S    
H31   N9    S    
C29   H26   S    
C15   C17   A    
C10   N2    A    
C14   N1    A    
C3    C5    A    
C30   H28   S    
C19   H1    S    
C16   O6    A    
C31   H35   S    
C6    C7    A    
C35   H34   S    
C6    C33   A    
C37   N5    S    
C19   C20   S    
C21   C23   S    
C19   C24   S    
C25   H8    S    
C27   H15   S    
C11   C13   A    
C2    C37   A    
C16   O5    A    
C31   H32   S    
C4    C24   S    
C30   H30   S    
H18   N6    S    
C28   H21   S    
H9    N4    S    
C34   C36   A    
C7    F2    S    
C19   H36   S    
H14   N5    S    
C10   C11   A    
C28   H19   S    
C26   N4    S    
C21   C24   S    
C12   C18   S    
C28   N6    S    
Cu2   N2    S    
C4    O4    A    
C14   F4    S    
