data_mof_unit_27779.cif
_audit_creation_date              2012-12-10T18:31:57-0500
_audit_creation_method            fapswitch 2.2
_symmetry_space_group_name_H-M    P1
_symmetry_Int_Tables_number       1
_space_group_crystal_system       triclinic
_cell_length_a                    10.630904
_cell_length_b                    14.969001
_cell_length_c                    15.458301
_cell_angle_alpha                 81.363626
_cell_angle_beta                  89.920684
_cell_angle_gamma                 104.188317
_cell_volume                      2355.98764275

loop_
_atom_site_label
_atom_site_type_symbol
_atom_type_description
_atom_site_fract_x
_atom_site_fract_y
_atom_site_fract_z
_atom_type_partial_charge
C1    C     C_R   0.479199 0.441285 0.662335 0.857861
C2    C     C_3   0.121211 0.498632 0.499582 0.179580
C3    C     C_3   0.100074 0.578997 0.429709 -0.402899
C4    C     C_3   0.076674 0.512307 0.591257 -0.389987
C5    C     C_R   0.447025 0.405919 0.755150 -0.064099
C6    C     C_R   0.508921 0.593426 0.244306 -0.065213
C7    C     C_R   0.336537 0.286832 0.872482 -0.198620
C8    C     C_R   0.380881 0.313448 0.785149 -0.212785
C9    C     C_R   0.469268 0.470528 0.812797 -0.242505
C10   C     C_R   0.415792 0.447895 0.897985 0.047082
C11   C     C_R   0.353514 0.353333 0.930192 0.146935
C12   C     C_R   0.742057 0.500327 0.500003 0.824704
C13   C     C_R   0.429160 0.517237 0.952474 0.067605
C14   C     C_R   0.404137 0.489190 0.043226 0.017000
C15   C     C_R   0.338214 0.395591 0.074447 -0.238893
C16   C     C_R   0.310644 0.328108 0.018901 0.185660
C17   C     C_R   0.466978 0.613846 0.919056 -0.223102
C18   C     C_R   0.496569 0.680018 0.974784 -0.246543
C19   C     C_R   0.493835 0.651650 0.064850 0.183733
C20   C     C_R   0.448015 0.555853 0.099720 0.106890
C21   C     C_R   0.540338 0.717420 0.120369 -0.204699
C22   C     C_R   0.548293 0.688356 0.209707 -0.209623
C23   C     C_R   0.515647 0.558565 0.337577 0.861014
C24   C     C_R   0.458062 0.528525 0.189282 -0.268580
C25   C     C_R   0.651242 0.825530 0.663530 0.001446
C26   C     C_R   0.630644 0.741307 0.630565 -0.079477
C27   C     C_R   0.535792 0.803026 0.503746 0.252547
C28   C     C_R   0.532745 0.883375 0.541042 -0.039329
C29   C     C_R   0.602573 0.897838 0.617797 0.116044
C30   C     C_R   0.465166 0.950029 0.504275 0.098948
C31   C     C_R   0.496302 0.040324 0.528674 0.080136
C32   C     C_R   0.576306 0.055918 0.600494 -0.255743
C33   C     C_R   0.623660 0.984578 0.646421 -0.185425
C34   C     C_R   0.258017 0.499382 0.499810 0.823979
C35   C     C_R   0.360915 0.926591 0.448778 -0.242286
C36   C     C_R   0.304411 0.994099 0.405839 -0.221306
C37   C     C_R   0.347635 0.086425 0.419148 0.184873
C38   C     C_R   0.442758 0.110546 0.481735 -0.004723
C39   C     C_R   0.294446 0.154693 0.371924 -0.315371
C40   C     C_R   0.335276 0.246092 0.387315 0.013126
C41   C     C_R   0.480571 0.204588 0.493705 -0.066587
C42   C     C_3   0.896243 0.405202 0.477936 -0.380202
C43   C     C_3   0.038862 0.404568 0.477739 -0.397091
C44   C     C_3   0.955859 0.579787 0.430017 -0.400060
C45   C     C_3   0.932523 0.513245 0.591325 -0.409501
C46   C     C_3   0.878814 0.499903 0.499873 0.178290
H1    H     H_    0.857938 0.393600 0.412405 0.181472
H2    H     H_    0.134934 0.579223 0.608892 0.184202
H3    H     H_    0.945627 0.648473 0.444203 0.180749
H4    H     H_    0.158887 0.647525 0.443482 0.176684
H5    H     H_    0.432663 0.455659 0.216722 0.160027
H6    H     H_    0.588110 0.739830 0.250652 0.155717
H7    H     H_    0.527555 0.753245 0.947079 0.139032
H8    H     H_    0.287534 0.214421 0.893671 0.152353
H9    H     H_    0.361852 0.262242 0.741108 0.159522
H10   H     H_    0.530029 0.539213 0.790039 0.149619
H11   H     H_    0.841439 0.346266 0.527156 0.173486
H12   H     H_    0.303307 0.374078 0.141790 0.143773
H13   H     H_    0.472012 0.640188 0.849825 0.146805
H14   H     H_    0.574321 0.790904 0.094282 0.135412
H15   H     H_    0.679698 0.998709 0.703464 0.163924
H16   H     H_    0.552790 0.229500 0.539053 0.124781
H17   H     H_    0.292965 0.299367 0.352869 0.122169
H18   H     H_    0.227261 0.974042 0.361501 0.145030
H19   H     H_    0.661501 0.683239 0.666626 0.142350
H20   H     H_    0.052614 0.345564 0.526918 0.180903
H21   H     H_    0.598239 0.121089 0.625762 0.136804
H22   H     H_    0.320866 0.855356 0.438889 0.161752
H23   H     H_    0.221185 0.137354 0.324341 0.140796
H24   H     H_    0.069203 0.392969 0.412153 0.173211
H25   H     H_    0.917270 0.571119 0.364055 0.158133
H26   H     H_    0.131862 0.569928 0.363610 0.157309
H27   H     H_    0.921839 0.580639 0.608654 0.179714
H28   H     H_    0.877039 0.456439 0.642112 0.155619
H29   H     H_    0.091528 0.455016 0.641975 0.159464
N1    N     N_R   0.573860 0.731700 0.552730 -0.104858
N2    N     N_R   0.426060 0.268290 0.447230 -0.097946
O1    O     O_R   0.462770 0.383110 0.605620 -0.614596
O2    O     O_R   0.510160 0.531900 0.639510 -0.623924
O3    O     O_R   0.661510 0.425600 0.483070 -0.626316
O4    O     O_R   0.708900 0.574390 0.516960 -0.619012
O5    O     O_R   0.489840 0.468100 0.360490 -0.617232
O6    O     O_R   0.537230 0.616890 0.394380 -0.614723
O7    O     O_R   0.291100 0.425610 0.483040 -0.627517
O8    O     O_R   0.338490 0.574400 0.516930 -0.616754
Zn1   Zn    Zn3+2 0.468350 0.400660 0.477370 0.929322
Zn2   Zn    Zn3+2 0.531650 0.599340 0.522630 0.925617
C47   C     C_3   0.239300 0.229596 0.056477 -0.945928
H30   H     H_    0.212447 0.222572 0.127099 0.239142
H31   H     H_    0.148427 0.208498 0.021267 0.241576
H32   H     H_    0.301788 0.181270 0.049847 0.242311
N3    N     N_3   0.716669 0.836446 0.744061 -0.467604
H33   H     H_    0.753268 0.778538 0.765773 0.179074
H34   H     H_    0.647139 0.837611 0.791502 0.175736
C48   C     C_3   0.526268 0.801975 0.407039 -0.872987
H35   H     H_    0.436567 0.751071 0.392985 0.248839
H36   H     H_    0.530017 0.871511 0.368908 0.219172
H37   H     H_    0.614189 0.784040 0.383813 0.244990

loop_
_geom_bond_atom_site_label_1
_geom_bond_atom_site_label_2
_ccdc_geom_bond_type
C44   H3    S    
O6    Zn2   S    
C23   O5    A    
C48   H35   S    
C27   C48   S    
C35   C36   A    
O2    Zn2   S    
C48   H37   S    
C7    C8    A    
C45   C46   S    
C7    C11   A    
C40   H17   S    
C23   O6    A    
C30   C35   A    
C1    C5    S    
C36   C37   A    
C19   C21   A    
O7    Zn1   S    
C41   N2    A    
C30   C31   A    
C15   C16   A    
C6    C22   A    
C29   C33   A    
C42   H11   S    
C44   H25   S    
C45   H27   S    
C18   C19   A    
C42   C46   S    
C20   C24   A    
C4    H29   S    
O3    Zn1   S    
C18   H7    S    
C19   C20   A    
C26   N1    A    
C9    C10   A    
O1    Zn1   S    
C24   H5    S    
C13   C14   A    
C1    O1    A    
C34   O7    A    
C41   H16   S    
C8    H9    S    
C3    H4    S    
C44   C46   S    
C4    C45   S    
O8    Zn2   S    
C25   C29   A    
C3    C44   S    
C14   C20   A    
C38   C41   A    
C12   C46   S    
C39   C40   A    
C25   C26   A    
O5    Zn1   S    
C45   H28   S    
C34   O8    A    
C2    C4    S    
C5    C9    A    
C37   C38   A    
C11   C16   A    
C31   C32   A    
C47   H32   S    
C2    C43   S    
C6    C24   A    
N3    H34   S    
C17   C18   A    
C39   H23   S    
C9    H10   S    
N1    Zn2   S    
C21   H14   S    
O4    Zn2   S    
C17   H13   S    
C32   H21   S    
C47   H31   S    
N2    Zn1   S    
C43   H24   S    
C1    O2    A    
C15   H12   S    
C42   C43   S    
C27   N1    A    
C22   H6    S    
C4    H2    S    
C28   C29   A    
C25   N3    S    
C14   C15   A    
C26   H19   S    
C10   C13   A    
C5    C8    A    
C48   H36   S    
C31   C38   A    
C13   C17   A    
C32   C33   A    
C28   C30   A    
C2    C3    S    
C37   C39   A    
C36   H18   S    
C2    C34   S    
C35   H22   S    
C43   H20   S    
C6    C23   S    
C12   O3    A    
N3    H33   S    
C12   O4    A    
C3    H26   S    
C42   H1    S    
C10   C11   A    
C47   H30   S    
C33   H15   S    
C27   C28   A    
C16   C47   S    
C40   N2    A    
C7    H8    S    
C21   C22   A    
