data_mof_unit_29036.cif
_audit_creation_date              2013-03-05T16:32:25-0500
_audit_creation_method            fapswitch 2.2
_symmetry_space_group_name_H-M    P1
_symmetry_Int_Tables_number       1
_space_group_crystal_system       triclinic
_cell_length_a                    10.63182
_cell_length_b                    10.868167
_cell_length_c                    9.544487
_cell_angle_alpha                 89.363682
_cell_angle_beta                  89.652773
_cell_angle_gamma                 90.179476
_cell_volume                      1102.75624776

loop_
_atom_site_label
_atom_site_type_symbol
_atom_site_description
_atom_site_fract_x
_atom_site_fract_y
_atom_site_fract_z
_atom_type_partial_charge
O1    O     O_R   0.500000 0.319640 0.618810 -0.587378
O2    O     O_R   0.500010 0.319680 0.381230 -0.597014
C1    C     C_R   0.500776 0.262623 0.500527 0.800351
O3    O     O_R   0.316850 0.499950 0.618770 -0.567820
O4    O     O_R   0.316860 0.499990 0.381190 -0.582137
C2    C     C_R   0.259377 0.500505 0.500480 0.810885
Cu1   Cu    Cu3+1 0.499990 0.499980 0.640670 0.977926
Cu2   Cu    Cu3+1 0.500010 0.500020 0.359330 0.958181
O5    O     O_R   0.499990 0.680320 0.618770 -0.558642
O6    O     O_R   0.500000 0.680360 0.381190 -0.583392
O7    O     O_R   0.683140 0.500010 0.618810 -0.591755
O8    O     O_R   0.683150 0.500050 0.381230 -0.589154
C3    C     C_R   0.498383 0.737772 0.498713 0.816927
C4    C     C_R   0.740656 0.500177 0.499568 0.788179
C5    C     C_3   0.040021 0.510651 0.633772 -0.153749
C6    C     C_3   0.957403 0.404888 0.576783 -0.182971
H1    H     H_    0.919360 0.326063 0.638916 0.149138
H2    H     H_    0.074611 0.519343 0.742787 0.162320
C7    C     C_3   0.877512 0.500721 0.498724 -0.037626
C8    C     C_3   0.958831 0.604935 0.554442 0.004804
C9    C     C_3   0.043417 0.597411 0.423504 -0.171993
C10   C     C_3   0.960822 0.491454 0.367142 -0.149369
C11   C     C_3   0.042575 0.395521 0.445198 -0.155870
C12   C     C_3   0.122706 0.501260 0.501660 0.003814
H3    H     H_    0.081363 0.676535 0.361753 0.156509
H4    H     H_    0.927328 0.482546 0.257913 0.141670
H5    H     H_    0.080361 0.309267 0.400316 0.140483
C13   C     C_R   0.530618 0.061763 0.620654 0.063824
C14   C     C_R   0.507933 0.129966 0.499054 -0.063691
C15   C     C_R   0.495619 0.068464 0.371508 -0.241965
H6    H     H_    0.481744 0.119900 0.274761 0.159955
C16   C     C_R   0.491184 0.940571 0.367920 -0.030699
C17   C     C_R   0.503489 0.871563 0.494532 -0.095315
C18   C     C_R   0.527902 0.934921 0.618286 0.007875
C19   C     C_3   0.465381 0.927698 0.759530 0.199440
C20   C     C_3   0.469349 0.067760 0.761792 -0.507486
H7    H     H_    0.525253 0.882979 0.840435 0.107204
H8    H     H_    0.375765 0.113155 0.758902 0.221748
H9    H     H_    0.534424 0.104252 0.842135 0.171111
C21   C     C_R   0.558097 0.592364 0.071950 0.314965
N1    N     N_R   0.500800 0.500930 0.147930 -0.194267
C22   C     C_R   0.432351 0.415679 0.075956 -0.072018
H10   H     H_    0.379492 0.346001 0.132964 0.140002
C23   C     C_R   0.432433 0.415599 0.927024 -0.066875
H11   H     H_    0.379715 0.345871 0.872418 0.137517
N2    N     N_R   0.500800 0.500890 0.852020 -0.188108
C24   C     C_R   0.557771 0.592658 0.924757 0.311451
C25   C     C_3   0.693278 0.628054 0.917389 -0.516917
C26   C     C_3   0.693592 0.627364 0.076460 -0.519226
H12   H     H_    0.753747 0.555207 0.871975 0.220870
H13   H     H_    0.706881 0.721371 0.870982 0.211683
H14   H     H_    0.753348 0.553528 0.121517 0.211267
H15   H     H_    0.707986 0.720108 0.121723 0.207318
C27   C     C_1   0.910996 0.720142 0.612857 0.252656
N3    N     N_1   0.873266 0.811119 0.658589 -0.283619
C28   C     C_1   0.461712 0.886582 0.234402 0.263430
N4    N     N_1   0.437133 0.844753 0.127039 -0.266908
N5    N     N_R   0.337229 0.877807 0.754568 0.155048
O9    O     O_R   0.304926 0.788092 0.838740 -0.345945
O10   O     O_R   0.255842 0.919671 0.664581 -0.366641

loop_
_geom_bond_atom_site_label_1
_geom_bond_atom_site_label_2
_geom_bond_distance
_ccdc_geom_bond_type
C5    H2    1.110577 S    
C15   C16   1.391432 A    
C11   C12   1.532989 S    
C3    C17   1.454997 S    
C14   C15   1.401907 A    
C11   H5    1.110341 S    
C21   C24   1.404872 A    
N1    C22   1.369647 A    
C19   C20   1.523060 S    
Cu2   O8    1.959557 S    
C26   H14   1.109661 S    
C2    C12   1.453079 S    
C16   C17   1.422091 A    
C7    C8    1.525097 S    
C20   H8    1.112304 S    
C17   C18   1.399049 A    
C13   C18   1.379190 A    
Cu1   Cu2   2.685239 S    
C5    C12   1.537270 S    
C9    C10   1.549111 S    
C28   N4    1.156664 T    
Cu1   O7    1.957105 S    
C1    C14   1.444203 S    
C15   H6    1.085181 S    
C22   C23   1.421482 A    
C19   N5    1.466069 S    
C26   H15   1.111553 S    
C25   H12   1.111501 S    
C25   C26   1.518210 S    
C19   H7    1.112318 S    
C23   N2    1.369226 A    
O2    C1    1.290560 A    
C6    C11   1.548325 S    
C10   C11   1.547205 S    
C6    C7    1.535350 S    
O4    C2    1.289026 A    
Cu2   O6    1.973342 S    
O7    C4    1.288694 A    
C25   H13   1.110855 S    
O4    Cu2   1.957106 S    
C6    H1    1.110314 S    
C22   H10   1.081579 S    
N5    O10   1.302390 A    
C21   C26   1.489769 S    
C13   C14   1.392847 A    
Cu1   N2    2.017433 S    
C7    C10   1.536815 S    
C8    C9    1.538303 S    
C13   C20   1.494933 S    
O3    Cu1   1.959557 S    
C8    C27   1.467414 S    
C18   C19   1.500612 S    
C10   H4    1.108868 S    
C9    C12   1.534568 S    
O1    C1    1.293848 A    
Cu1   O5    1.968769 S    
O5    C3    1.299087 A    
N2    C24   1.363908 A    
C21   N1    1.363570 A    
O1    Cu1   1.973342 S    
C9    H3    1.110539 S    
Cu2   N1    2.017586 S    
N5    O9    1.300471 A    
C27   N3    1.157152 T    
O3    C2    1.286984 A    
C4    C7    1.455001 S    
C16   C28   1.444561 S    
C20   H9    1.111517 S    
O2    Cu2   1.968771 S    
C23   H11   1.081540 S    
C5    C6    1.549841 S    
O8    C4    1.287597 A    
C5    C8    1.537733 S    
C24   C25   1.491043 S    
O6    C3    1.289655 A    
