data_mof_unit_56229.cif
_audit_creation_date              2012-12-10T20:52:42-0500
_audit_creation_method            fapswitch 2.2
_symmetry_space_group_name_H-M    P1
_symmetry_Int_Tables_number       1
_space_group_crystal_system       triclinic
_cell_length_a                    8.664557
_cell_length_b                    15.752431
_cell_length_c                    15.095028
_cell_angle_alpha                 89.29647
_cell_angle_beta                  97.790736
_cell_angle_gamma                 90.196704
_cell_volume                      2041.11364917

loop_
_atom_site_label
_atom_site_type_symbol
_atom_type_description
_atom_site_fract_x
_atom_site_fract_y
_atom_site_fract_z
_atom_type_partial_charge
C1    C     C_R   0.501682 0.338706 0.500681 0.884110
C2    C     C_R   0.499801 0.661330 0.499501 0.885309
C3    C     C_R   0.499484 0.500361 0.905013 -0.062700
C4    C     C_R   0.499574 0.497890 0.094757 -0.044652
C5    C     C_R   0.638542 0.517526 0.963322 0.127074
C6    C     C_R   0.363048 0.475084 0.036700 0.125302
C7    C     C_1   0.500203 0.500214 0.806908 0.075820
C8    C     C_1   0.499148 0.499247 0.193003 0.074994
C9    C     C_R   0.201532 0.496490 0.477790 0.937108
C10   C     C_R   0.798707 0.502482 0.522020 0.931633
C11   C     C_2   0.040242 0.479480 0.470523 -0.119438
C12   C     C_2   0.959356 0.521706 0.527618 -0.120601
C13   C     C_R   0.561408 0.952822 0.590098 0.027451
C14   C     C_R   0.604418 0.046737 0.433188 0.029106
C15   C     C_R   0.573789 0.912205 0.508552 0.025238
C16   C     C_R   0.569674 0.087285 0.510991 0.026932
C17   C     C_R   0.601405 0.957363 0.430874 0.127724
C18   C     C_R   0.553184 0.042087 0.590568 0.126313
C19   C     C_1   0.547169 0.823385 0.503393 -0.041926
C20   C     C_1   0.543563 0.176233 0.507518 -0.042976
C21   C     C_1   0.521544 0.250541 0.503891 -0.205606
C22   C     C_1   0.522648 0.749302 0.500464 -0.209763
C23   C     C_R   0.360343 0.481651 0.941498 0.112763
C24   C     C_R   0.637115 0.519498 0.058096 0.117760
N1    N     N_1   0.499960 0.500020 0.270540 -0.103334
N2    N     N_1   0.500040 0.499980 0.729460 -0.097587
O1    O     O_R   0.500000 0.378020 0.573650 -0.604104
O2    O     O_R   0.500000 0.621980 0.426350 -0.604781
O3    O     O_R   0.500070 0.378020 0.426320 -0.619071
O4    O     O_R   0.499930 0.621980 0.573680 -0.622462
O5    O     O_R   0.271720 0.500000 0.556430 -0.627053
O6    O     O_R   0.728280 0.500000 0.443570 -0.626670
O7    O     O_R   0.271790 0.500000 0.409110 -0.625881
O8    O     O_R   0.728210 0.500000 0.590890 -0.618878
Zn1   Zn    Zn3+2 0.499950 0.500000 0.598370 0.947226
Zn2   Zn    Zn3+2 0.500050 0.500000 0.401630 0.939078
C25   C     C_3   0.973858 0.403003 0.414348 -0.430904
C26   C     C_3   0.094220 0.342861 0.382318 -0.325272
C27   C     C_3   0.016221 0.263716 0.339191 -0.925299
H1    H     H_    0.961000 0.226269 0.389218 0.259976
H2    H     H_    0.926511 0.281614 0.282355 0.267944
H3    H     H_    0.105098 0.223441 0.313681 0.252687
H4    H     H_    0.155842 0.375367 0.331593 0.252995
H5    H     H_    0.180008 0.322610 0.440032 0.214342
H6    H     H_    0.902051 0.363866 0.455152 0.207333
H7    H     H_    0.897482 0.426991 0.354500 0.238491
C28   C     C_3   0.019494 0.599090 0.583843 -0.412985
C29   C     C_3   0.904582 0.674021 0.574058 -0.355165
C30   C     C_3   0.978663 0.754555 0.616186 -0.910093
H8    H     H_    0.019448 0.743412 0.688336 0.264145
H9    H     H_    0.078415 0.774681 0.581815 0.260101
H10   H     H_    0.891402 0.806502 0.609390 0.255419
H11   H     H_    0.864474 0.686945 0.502053 0.220891
H12   H     H_    0.802272 0.658244 0.608037 0.247651
H13   H     H_    0.042414 0.579194 0.655316 0.212585
H14   H     H_    0.129390 0.624575 0.564035 0.226533
C31   C     C_3   0.524727 0.090029 0.674192 -0.395780
C32   C     C_3   0.676782 0.125529 0.722843 -0.859793
H15   H     H_    0.760272 0.073256 0.743191 0.250144
H16   H     H_    0.730340 0.171037 0.679167 0.266382
H17   H     H_    0.653147 0.159342 0.783687 0.247480
H18   H     H_    0.440996 0.142752 0.656510 0.209986
H19   H     H_    0.468281 0.050101 0.721396 0.200866
C33   C     C_3   0.626585 0.909056 0.346887 -0.397393
C34   C     C_3   0.793066 0.875600 0.354290 -0.866917
H20   H     H_    0.877464 0.929081 0.362465 0.252812
H21   H     H_    0.817887 0.831405 0.412308 0.268138
H22   H     H_    0.808778 0.840871 0.292585 0.245521
H23   H     H_    0.543441 0.855216 0.335640 0.210417
H24   H     H_    0.601926 0.948077 0.285202 0.201496
C35   C     C_3   0.558932 0.899841 0.675310 -0.400254
C36   C     C_3   0.393019 0.871523 0.686874 -0.333908
C37   C     C_3   0.393332 0.814716 0.769529 -0.881217
H25   H     H_    0.461999 0.756238 0.762857 0.266859
H26   H     H_    0.444129 0.849094 0.830463 0.257865
H27   H     H_    0.272076 0.796078 0.777000 0.246432
H28   H     H_    0.318468 0.927702 0.693303 0.212161
H29   H     H_    0.340652 0.835634 0.627401 0.228969
H30   H     H_    0.634053 0.842965 0.673566 0.208503
H31   H     H_    0.612995 0.934589 0.735145 0.202345
C38   C     C_3   0.643826 0.099834 0.353973 -0.397917
C39   C     C_3   0.496764 0.123305 0.289902 -0.337335
C40   C     C_3   0.537064 0.177470 0.211720 -0.888082
H32   H     H_    0.590718 0.238449 0.236265 0.267043
H33   H     H_    0.619168 0.143083 0.174491 0.260055
H34   H     H_    0.429289 0.191384 0.165307 0.251737
H35   H     H_    0.435699 0.064959 0.263392 0.210496
H36   H     H_    0.415344 0.159549 0.325988 0.231600
H37   H     H_    0.705185 0.158893 0.378107 0.206249
H38   H     H_    0.729134 0.066871 0.317913 0.203537
C41   C     C_3   0.222653 0.443143 0.078399 -0.397392
C42   C     C_3   0.250095 0.354046 0.118952 -0.876054
H39   H     H_    0.280469 0.309384 0.067720 0.257652
H40   H     H_    0.345038 0.353730 0.176083 0.267656
H41   H     H_    0.142493 0.330895 0.143857 0.250369
H42   H     H_    0.196698 0.487904 0.130627 0.204845
H43   H     H_    0.115622 0.439702 0.030240 0.208773
C43   C     C_3   0.788269 0.532550 0.923176 -0.402796
C44   C     C_3   0.804603 0.625414 0.895724 -0.883015
H44   H     H_    0.707156 0.644112 0.843663 0.265216
H45   H     H_    0.804739 0.667319 0.954333 0.253078
H46   H     H_    0.915881 0.634458 0.867927 0.244299
H47   H     H_    0.891050 0.512851 0.970072 0.196314
H48   H     H_    0.792796 0.491725 0.864106 0.210316
C45   C     C_3   0.209547 0.471010 0.877579 -0.401030
C46   C     C_3   0.174451 0.377942 0.856046 -0.850055
H49   H     H_    0.271400 0.349519 0.825359 0.262353
H50   H     H_    0.157817 0.341157 0.917062 0.260961
H51   H     H_    0.065963 0.373420 0.807858 0.245565
H52   H     H_    0.111177 0.501673 0.903872 0.187010
H53   H     H_    0.213837 0.505910 0.813646 0.204448
C47   C     C_3   0.782956 0.541478 0.122076 -0.396792
C48   C     C_3   0.863694 0.460758 0.161232 -0.893580
H54   H     H_    0.786018 0.423669 0.199887 0.261263
H55   H     H_    0.894958 0.420075 0.106978 0.258745
H56   H     H_    0.970727 0.477599 0.206662 0.256323
H57   H     H_    0.866274 0.581152 0.090294 0.206367
H58   H     H_    0.752711 0.581470 0.177313 0.205834

loop_
_geom_bond_atom_site_label_1
_geom_bond_atom_site_label_2
_ccdc_geom_bond_type
C45   H52   S    
C1    C21   S    
C37   H25   S    
C3    C23   A    
C24   C47   S    
C4    C8    S    
C30   H9    S    
C35   H30   S    
C38   C39   S    
C31   H18   S    
C27   H2    S    
C15   C19   S    
O3    Zn2   S    
C36   H28   S    
C7    N2    T    
C13   C18   A    
O6    Zn2   S    
C3    C7    S    
C17   C33   S    
C26   C27   S    
C4    C24   A    
C43   H48   S    
C46   H49   S    
C32   H16   S    
C6    C41   S    
C23   C45   S    
O7    Zn2   S    
O8    Zn1   S    
C11   C25   S    
C47   C48   S    
C36   H29   S    
C41   H42   S    
C44   H44   S    
C34   H21   S    
C2    C22   S    
C33   H24   S    
C48   H56   S    
C38   H37   S    
C34   H22   S    
C32   H17   S    
C45   H53   S    
C9    O7    A    
C8    N1    T    
C37   H26   S    
C14   C17   A    
C12   C28   S    
C42   H40   S    
C35   H31   S    
C31   H19   S    
C27   H3    S    
C29   H11   S    
C28   C29   S    
C19   C22   T    
C4    C6    A    
C41   C42   S    
C13   C35   S    
O1    Zn1   S    
C32   H15   S    
C39   C40   S    
C42   H41   S    
C29   H12   S    
C26   H5    S    
C25   C26   S    
C18   C31   S    
C40   H32   S    
C16   C20   S    
C30   H10   S    
C44   H46   S    
C1    O3    A    
C39   H35   S    
C10   O8    A    
C33   H23   S    
C41   H43   S    
C9    C11   S    
C10   C12   S    
C38   H38   S    
O4    Zn1   S    
C29   C30   S    
C44   H45   S    
C30   H8    S    
C13   C15   A    
C37   H27   S    
C14   C16   A    
C25   H6    S    
C27   H1    S    
C28   H13   S    
C48   H54   S    
C15   C17   A    
C40   H33   S    
C20   C21   T    
C36   C37   S    
C3    C5    A    
C11   C12   D    
C45   C46   S    
C2    O4    A    
C33   C34   S    
C26   H4    S    
C47   H58   S    
C31   C32   S    
C47   H57   S    
C5    C24   A    
C46   H50   S    
C39   H36   S    
C6    C23   A    
C42   H39   S    
O5    Zn1   S    
C34   H20   S    
C9    O5    A    
N1    Zn2   S    
C10   O6    A    
N2    Zn1   S    
C35   C36   S    
C40   H34   S    
C5    C43   S    
O2    Zn2   S    
C16   C18   A    
C43   C44   S    
C1    O1    A    
C2    O2    A    
C14   C38   S    
C25   H7    S    
C43   H47   S    
C28   H14   S    
C48   H55   S    
C46   H51   S    
