data_mof_unit_9167.cif
_audit_creation_date              2013-03-05T15:54:18-0500
_audit_creation_method            fapswitch 2.2
_symmetry_space_group_name_H-M    P1
_symmetry_Int_Tables_number       1
_space_group_crystal_system       triclinic
_cell_length_a                    20.577824
_cell_length_b                    7.430922
_cell_length_c                    18.790943
_cell_angle_alpha                 89.999602
_cell_angle_beta                  107.402991
_cell_angle_gamma                 90.000475
_cell_volume                      2741.83545334

loop_
_atom_site_label
_atom_site_type_symbol
_atom_site_description
_atom_site_fract_x
_atom_site_fract_y
_atom_site_fract_z
_atom_type_partial_charge
O1    O     O_R   0.422200 0.494350 0.423850 -0.575858
O2    O     O_R   0.577800 0.994350 0.576150 -0.575857
O3    O     O_R   0.555980 0.819730 0.435060 -0.580932
O4    O     O_R   0.444020 0.319730 0.564940 -0.580930
C1    C     C_R   0.575152 0.655142 0.420861 0.968197
C2    C     C_R   0.424847 0.155140 0.579139 0.968193
O5    O     O_R   0.421370 0.823790 0.415230 -0.575691
O6    O     O_R   0.578630 0.323790 0.584770 -0.575691
O7    O     O_R   0.442220 0.998380 0.556180 -0.587566
O8    O     O_R   0.557780 0.498380 0.443820 -0.587565
C3    C     C_R   0.396710 0.655541 0.394603 0.938730
C4    C     C_R   0.603290 0.155541 0.605396 0.938731
O9    O     O_3   0.507000 0.662200 0.546270 -0.290863
O10   O     O_3   0.493000 0.162200 0.453730 -0.290864
V1    V     V_3+5 0.498700 0.935390 0.491420 1.175503
V2    V     V_3+5 0.501300 0.435390 0.508580 1.175502
C5    C     C_1   0.666189 0.145674 0.667854 -0.268164
C6    C     C_1   0.333811 0.645673 0.332146 -0.268166
C7    C     C_1   0.718926 0.134635 0.719583 0.071597
C8    C     C_1   0.281073 0.634635 0.280416 0.071593
C9    C     C_1   0.781117 0.120530 0.780355 0.075030
C10   C     C_1   0.218882 0.620530 0.219644 0.075024
C11   C     C_1   0.833841 0.109489 0.832107 -0.253050
C12   C     C_1   0.166159 0.609490 0.167893 -0.253057
C13   C     C_3   0.243249 0.298261 0.797664 -0.619910
C14   C     C_3   0.756765 0.798265 0.202351 -0.619876
C15   C     C_3   0.255553 0.963104 0.811035 0.158354
C16   C     C_3   0.744438 0.463117 0.188958 0.158338
C17   C     C_3   0.302372 0.947696 0.758967 -0.215716
C18   C     C_3   0.697626 0.447695 0.241032 -0.215687
H1    H     H_    0.259504 0.336706 0.857414 0.262864
H2    H     H_    0.740519 0.836753 0.142606 0.262882
H3    H     H_    0.288292 0.998541 0.868187 0.137087
H4    H     H_    0.711697 0.498593 0.131812 0.137138
H5    H     H_    0.282345 0.838954 0.719299 0.190899
H6    H     H_    0.717658 0.338952 0.280699 0.190893
C19   C     C_1   0.379744 0.143355 0.625101 -0.292511
C20   C     C_1   0.620256 0.643360 0.374898 -0.292527
C21   C     C_3   0.202285 0.119101 0.786424 -0.071761
C22   C     C_3   0.797717 0.619088 0.213579 -0.071774
C23   C     C_3   0.304102 0.291859 0.762228 0.438636
C24   C     C_3   0.695907 0.791860 0.237777 0.438602
C25   C     C_3   0.293212 0.121331 0.708856 0.088506
C26   C     C_3   0.706789 0.621327 0.291146 0.088497
C27   C     C_3   0.216018 0.110547 0.654637 -0.227959
C28   C     C_3   0.783982 0.610525 0.345365 -0.227966
C29   C     C_3   0.162622 0.113873 0.700621 0.227244
C30   C     C_3   0.837380 0.613821 0.299382 0.227238
C31   C     C_1   0.341582 0.130441 0.663217 0.105175
C32   C     C_1   0.658417 0.630446 0.336782 0.105168
C33   C     C_1   0.156204 0.120853 0.834625 0.184427
C34   C     C_1   0.843798 0.620842 0.165378 0.184449
C35   C     C_1   0.119022 0.114214 0.874031 -0.170653
C36   C     C_1   0.880979 0.614208 0.125970 -0.170661
H7    H     H_    0.135545 0.245432 0.687546 0.087508
H8    H     H_    0.864472 0.745360 0.312464 0.087490
H9    H     H_    0.204807 0.233136 0.621647 0.190119
H10   H     H_    0.795199 0.733120 0.378350 0.190122
H11   H     H_    0.207637 0.406144 0.771451 0.255297
H12   H     H_    0.792384 0.906119 0.228582 0.255275
O11   O     O_R   0.942270 0.764870 0.056240 -0.577605
O12   O     O_R   0.057730 0.264870 0.943760 -0.577605
O13   O     O_R   0.078640 0.431230 0.084780 -0.577104
O14   O     O_R   0.921360 0.931230 0.915220 -0.577103
C37   C     C_R   0.103283 0.599622 0.105398 0.946001
C38   C     C_R   0.896717 0.099621 0.894602 0.946004
O15   O     O_R   0.944030 0.435400 0.064960 -0.558535
O16   O     O_R   0.055970 0.935400 0.935040 -0.558535
O17   O     O_R   0.922190 0.260960 0.923840 -0.576553
O18   O     O_R   0.077810 0.760960 0.076160 -0.576556
C39   C     C_R   0.925348 0.603916 0.079047 0.922522
C40   C     C_R   0.074652 0.103918 0.920953 0.922518
O19   O     O_3   0.993030 0.592980 0.953770 -0.285585
O20   O     O_3   0.006970 0.092980 0.046230 -0.285587
V3    V     V_3+5 0.001290 0.319740 0.008580 1.227000
V4    V     V_3+5 0.998710 0.819740 0.991420 1.226999
N1    N     N_R   0.370050 0.277296 0.822489 0.220693
O21   O     O_R   0.427118 0.273416 0.805745 -0.424151
O22   O     O_R   0.373851 0.286183 0.892867 -0.395733
N2    N     N_R   0.629964 0.777299 0.177508 0.220695
O23   O     O_R   0.572879 0.773491 0.194242 -0.424100
O24   O     O_R   0.626171 0.786159 0.107136 -0.395731
C41   C     C_3   0.310371 0.473227 0.723034 -0.331809
C42   C     C_3   0.265116 0.515859 0.644485 -1.009280
H13   H     H_    0.273914 0.422273 0.602478 0.267511
H14   H     H_    0.210735 0.524926 0.642295 0.297830
H15   H     H_    0.281335 0.645874 0.627732 0.247891
H16   H     H_    0.302728 0.576556 0.760946 0.226180
H17   H     H_    0.363061 0.489773 0.720059 0.232504
C43   C     C_3   0.689638 0.973226 0.276971 -0.331797
C44   C     C_3   0.734898 0.015855 0.355519 -1.009303
H18   H     H_    0.726101 0.922268 0.397527 0.267517
H19   H     H_    0.789278 0.024917 0.357705 0.297824
H20   H     H_    0.718682 0.145871 0.372273 0.247894
H21   H     H_    0.697279 0.076555 0.239057 0.226188
H22   H     H_    0.636950 0.989776 0.279952 0.232507
C45   C     C_3   0.204672 0.960676 0.593545 -0.295437
C46   C     C_3   0.164916 0.026114 0.515114 -0.755042
H23   H     H_    0.117314 0.096488 0.514528 0.300334
H24   H     H_    0.196785 0.121231 0.494347 0.224815
H25   H     H_    0.152022 0.909638 0.476406 0.251879
H26   H     H_    0.253955 0.914658 0.588029 0.173155
H27   H     H_    0.179821 0.840149 0.608371 0.252279
C47   C     C_3   0.795321 0.460669 0.406463 -0.295467
C48   C     C_3   0.835084 0.526113 0.484890 -0.754993
H28   H     H_    0.882689 0.596466 0.485470 0.300323
H29   H     H_    0.803221 0.621251 0.505656 0.224812
H30   H     H_    0.847973 0.409644 0.523603 0.251877
H31   H     H_    0.746036 0.414673 0.411982 0.173161
H32   H     H_    0.820164 0.340127 0.391640 0.252266
N3    N     N_R   0.223143 0.790622 0.816601 0.240412
O25   O     O_R   0.186201 0.709568 0.757050 -0.411847
O26   O     O_R   0.233474 0.713453 0.881191 -0.401723
N4    N     N_R   0.776834 0.290631 0.183369 0.240402
O27   O     O_R   0.813787 0.209553 0.242906 -0.411826
O28   O     O_R   0.766483 0.213490 0.118771 -0.401696
C49   C     C_3   0.375423 0.883042 0.805288 -0.262288
C50   C     C_3   0.423507 0.836845 0.759530 -0.793652
H33   H     H_    0.395274 0.783948 0.703648 0.236896
H34   H     H_    0.453043 0.957217 0.753020 0.281118
H35   H     H_    0.460690 0.733247 0.789216 0.264297
H36   H     H_    0.401550 0.973917 0.851202 0.264251
H37   H     H_    0.369822 0.759859 0.836263 0.200507
C51   C     C_3   0.624572 0.383033 0.194718 -0.262376
C52   C     C_3   0.576488 0.336860 0.240474 -0.793724
H38   H     H_    0.604718 0.283960 0.296356 0.236922
H39   H     H_    0.546959 0.457241 0.246983 0.281118
H40   H     H_    0.539300 0.233272 0.210787 0.264311
H41   H     H_    0.598447 0.473876 0.148803 0.264246
H42   H     H_    0.630168 0.259845 0.163756 0.200546
N5    N     N_R   0.106446 0.981391 0.676975 0.271217
O29   O     O_R   0.067969 0.984333 0.608081 -0.379536
O30   O     O_R   0.080273 0.908670 0.725128 -0.337933
N6    N     N_R   0.893543 0.481301 0.323021 0.271224
O31   O     O_R   0.932011 0.484182 0.391918 -0.379540
O32   O     O_R   0.919724 0.408628 0.274864 -0.337944

loop_
_geom_bond_atom_site_label_1
_geom_bond_atom_site_label_2
_geom_bond_distance
_ccdc_geom_bond_type
C13   H1    1.108799 S    
C21   C33   1.494483 S    
O13   C37   1.362162 A    
C3    C6    1.466076 S    
C14   H2    1.108802 S    
C15   C17   1.569211 S    
N3    O25   1.297686 A    
O1    C3    1.356260 A    
C42   H15   1.098515 S    
O2    C4    1.356261 A    
C2    O7    1.327826 A    
C45   C46   1.535110 S    
C43   H21   1.090345 S    
N1    O21   1.303805 A    
C15   H3    1.115245 S    
O5    C3    1.361322 A    
C48   H29   1.111317 S    
C27   H9    1.087103 S    
C11   C38   1.466163 S    
C30   N6    1.481766 S    
C7    C9    1.441751 S    
C42   H14   1.109469 S    
C23   N1    1.488742 S    
C24   N2    1.488738 S    
C38   O17   1.357088 A    
C16   C22   1.567135 S    
C37   O18   1.357088 A    
C23   C41   1.559567 S    
C15   C21   1.567132 S    
C30   H8    1.115637 S    
C50   H33   1.108946 S    
C36   C39   1.448592 S    
C26   C28   1.612335 S    
C4    C5    1.466077 S    
C52   H40   1.110846 S    
O15   C39   1.358983 A    
C45   H26   1.104105 S    
O6    C4    1.361323 A    
O11   C39   1.350811 A    
O5    V1    1.976571 S    
C41   H16   1.090347 S    
C29   H7    1.115637 S    
C15   N3    1.462941 S    
O6    V2    1.976574 S    
C1    C20   1.447252 S    
C28   H10   1.087102 S    
C23   C25   1.589771 S    
C18   C26   1.575068 S    
C24   C26   1.589763 S    
C47   C48   1.535108 S    
C34   C36   1.214531 T    
N4    O27   1.297676 A    
C27   C29   1.588244 S    
O11   V4    1.960848 S    
C41   H17   1.109104 S    
C48   H30   1.110474 S    
C28   C30   1.588259 S    
O20   V3    1.817706 S    
O12   C40   1.350811 A    
N1    O22   1.302903 A    
C42   H13   1.106784 S    
N2    O24   1.302817 A    
C13   C23   1.585079 S    
C44   H18   1.106785 S    
C25   C31   1.497127 S    
N6    O32   1.300906 A    
N5    O30   1.300905 A    
C22   C34   1.494482 S    
C28   C47   1.565988 S    
C29   N5    1.481765 S    
C24   C43   1.559572 S    
C50   H35   1.110833 S    
O14   C38   1.362164 A    
O4    V2    1.999070 S    
C49   H36   1.100891 S    
C44   H19   1.109471 S    
C19   C31   1.214621 T    
C41   C42   1.524459 S    
O16   C40   1.358985 A    
O14   V4    1.976563 S    
C2    C19   1.447252 S    
C51   H42   1.108969 S    
N3    O26   1.301064 A    
O1    V2    1.956047 S    
O2    V1    1.956046 S    
C25   C27   1.612333 S    
C45   H27   1.107470 S    
C16   N4    1.462929 S    
C12   C37   1.466164 S    
O4    C2    1.336287 A    
C8    C10   1.441750 S    
C46   H24   1.111317 S    
C9    C11   1.224078 T    
O18   V4    1.955853 S    
C52   H38   1.108930 S    
O19   V4    1.817713 S    
C10   C12   1.224078 T    
O12   V3    1.960854 S    
O15   V3    1.999043 S    
N5    O29   1.300062 A    
O3    V1    1.999085 S    
C14   C24   1.585068 S    
C21   C29   1.574815 S    
C26   C32   1.497125 S    
C22   C30   1.574828 S    
C18   C51   1.570200 S    
N2    O23   1.304030 A    
O3    C1    1.336286 A    
N4    O28   1.301056 A    
C43   H22   1.109104 S    
N6    O31   1.300058 A    
C20   C32   1.214623 T    
O16   V4    1.999029 S    
C46   H25   1.110472 S    
C48   H28   1.107545 S    
C17   H5    1.093004 S    
C18   H6    1.093008 S    
C16   C18   1.569213 S    
C49   H37   1.109089 S    
C1    O8    1.327827 A    
C27   C45   1.565994 S    
C49   C50   1.531381 S    
C13   C21   1.555982 S    
C44   H20   1.098517 S    
C47   H32   1.107464 S    
C14   C22   1.555979 S    
C43   C44   1.524459 S    
C47   H31   1.104107 S    
O13   V3    1.976561 S    
C17   C49   1.570188 S    
C5    C7    1.224050 T    
C51   H41   1.100760 S    
O17   V3    1.955853 S    
C6    C8    1.224049 T    
O7    V1    1.974025 S    
C50   H34   1.108562 S    
C16   H4    1.115240 S    
C46   H23   1.107543 S    
O9    V2    1.818316 S    
C52   H39   1.108541 S    
O10   V1    1.818309 S    
O8    V2    1.974018 S    
C13   H11   1.098357 S    
C33   C35   1.214528 T    
C35   C40   1.448593 S    
C14   H12   1.098355 S    
C17   C25   1.575059 S    
C51   C52   1.531305 S    
