data_mof_unit_42213.cif
_audit_creation_date              2012-12-10T18:58:13-0500
_audit_creation_method            fapswitch 2.2
_symmetry_space_group_name_H-M    P1
_symmetry_Int_Tables_number       1
_space_group_crystal_system       triclinic
_cell_length_a                    11.053257
_cell_length_b                    10.868387
_cell_length_c                    9.561247
_cell_angle_alpha                 90.141009
_cell_angle_beta                  102.491396
_cell_angle_gamma                 90.251008
_cell_volume                      1121.39612682

loop_
_atom_site_label
_atom_site_type_symbol
_atom_type_description
_atom_site_fract_x
_atom_site_fract_y
_atom_site_fract_z
_atom_type_partial_charge
C1    C     C_R   0.499129 0.262838 0.499489 0.816618
C2    C     C_R   0.496746 0.130372 0.497147 -0.116087
C3    C     C_R   0.493417 0.064361 0.369176 -0.210419
C4    C     C_R   0.493017 0.935319 0.369509 -0.175569
C5    C     C_R   0.497012 0.870127 0.498093 -0.056776
C6    C     C_R   0.498485 0.938815 0.621160 -0.022538
C7    C     C_3   0.504021 0.930874 0.778424 -0.581910
C8    C     C_3   0.503461 0.073446 0.777081 0.854979
C9    C     C_R   0.607822 0.515406 0.100255 0.162934
C10   C     C_R   0.395605 0.472719 0.048073 -0.111459
C11   C     C_R   0.395561 0.472885 0.899663 -0.039585
C12   C     C_R   0.262890 0.498953 0.442036 0.857168
C13   C     C_R   0.608128 0.513424 0.953044 0.220618
C14   C     C_3   0.697158 0.618009 0.964948 -0.560654
C15   C     C_3   0.694105 0.624230 0.123263 0.202810
C16   C     C_R   0.499279 0.737335 0.499877 0.819973
C17   C     C_R   0.737081 0.499081 0.558084 0.865350
C18   C     C_2   0.128057 0.494445 0.409758 -0.346786
C19   C     C_2   0.067458 0.493191 0.516424 -0.137242
C20   C     C_2   0.871923 0.498483 0.591136 -0.344479
C21   C     C_2   0.933046 0.487245 0.485768 -0.142003
C22   C     C_R   0.497795 0.062979 0.620145 0.048339
Cu1   Cu    Cu3+1 0.499990 0.499980 0.640670 0.979090
Cu2   Cu    Cu3+1 0.500010 0.500020 0.359330 0.961661
H1    H     H_    0.883795 0.474584 0.375428 0.164508
H2    H     H_    0.310518 0.451548 0.081299 0.144107
H3    H     H_    0.310402 0.451769 0.824011 0.142150
H4    H     H_    0.788355 0.588117 0.946067 0.171747
H5    H     H_    0.657022 0.698583 0.901019 0.216384
H6    H     H_    0.785017 0.605028 0.195111 0.131594
H7    H     H_    0.117007 0.497872 0.627721 0.170370
H8    H     H_    0.921498 0.508885 0.701879 0.141578
H9    H     H_    0.078083 0.491135 0.298562 0.139886
H10   H     H_    0.491650 0.111712 0.269352 0.160048
H11   H     H_    0.489866 0.887515 0.269439 0.183009
H12   H     H_    0.418897 0.888215 0.801564 0.201415
H13   H     H_    0.592610 0.891641 0.837969 0.178322
N1    N     N_R   0.500780 0.500930 0.148120 -0.178697
N2    N     N_R   0.500790 0.500890 0.852210 -0.171553
O1    O     O_R   0.500000 0.319640 0.618810 -0.532296
O2    O     O_R   0.500010 0.319680 0.381230 -0.597875
O3    O     O_R   0.320680 0.500000 0.575130 -0.590932
O4    O     O_R   0.320690 0.500040 0.337550 -0.597517
O5    O     O_R   0.499990 0.680320 0.618770 -0.585169
O6    O     O_R   0.500000 0.680360 0.381190 -0.552141
O7    O     O_R   0.679310 0.499960 0.662450 -0.580050
O8    O     O_R   0.679320 0.500000 0.424870 -0.577213
O9    O     O_3   0.613573 0.130673 0.851914 -0.741258
H14   H     H_    0.685046 0.089467 0.824363 0.296049
O10   O     O_3   0.639509 0.732528 0.161430 -0.689681
H15   H     H_    0.558653 0.744449 0.093501 0.324407
O11   O     O_3   0.394236 0.127215 0.803830 -0.569636
C23   C     C_3   0.398050 0.129158 0.952294 -0.247162
H16   H     H_    0.468103 0.196669 0.007960 0.201059
H17   H     H_    0.416437 0.036452 0.001204 0.139678
H18   H     H_    0.306448 0.159370 0.968889 0.160836

loop_
_geom_bond_atom_site_label_1
_geom_bond_atom_site_label_2
_ccdc_geom_bond_type
C16   O6    A    
C2    C22   A    
O9    H14   S    
C8    C22   S    
Cu1   Cu2   S    
C8    O9    S    
C6    C7    S    
C7    H12   S    
C8    O11   S    
Cu2   N1    S    
C3    H10   S    
C11   H3    S    
C10   N1    A    
C19   H7    S    
C10   H2    S    
C2    C3    A    
C7    H13   S    
C4    H11   S    
C7    C8    S    
Cu1   O7    S    
C13   C14   S    
C20   C21   D    
C11   N2    A    
Cu2   O2    S    
Cu1   O3    S    
C21   H1    S    
C15   O10   S    
Cu1   N2    S    
Cu2   O6    S    
C1    O2    A    
C9    N1    A    
C19   C21   S    
O10   H15   S    
C12   O4    A    
C23   H17   S    
C9    C15   S    
C5    C6    A    
C18   H9    S    
C13   N2    A    
C10   C11   A    
C14   H5    S    
Cu1   O1    S    
C6    C22   A    
C17   C20   S    
C9    C13   A    
C17   O7    A    
C3    C4    A    
C15   H6    S    
C1    C2    S    
C20   H8    S    
C23   H18   S    
C12   C18   S    
Cu2   O4    S    
C16   O5    A    
C14   C15   S    
C18   C19   D    
C5    C16   S    
C12   O3    A    
C1    O1    A    
C14   H4    S    
C23   H16   S    
Cu2   O8    S    
Cu1   O5    S    
C17   O8    A    
O11   C23   S    
C4    C5    A    
