data_mof_unit_56875.cif
_audit_creation_date              2013-03-05T15:47:56-0500
_audit_creation_method            fapswitch 2.2
_symmetry_space_group_name_H-M    P1
_symmetry_Int_Tables_number       1
_space_group_crystal_system       triclinic
_cell_length_a                    11.658324
_cell_length_b                    12.992157
_cell_length_c                    13.389043
_cell_angle_alpha                 92.047272
_cell_angle_beta                  76.658785
_cell_angle_gamma                 99.930338
_cell_volume                      1943.68526061

loop_
_atom_site_label
_atom_site_type_symbol
_atom_site_description
_atom_site_fract_x
_atom_site_fract_y
_atom_site_fract_z
_atom_type_partial_charge
O1    O     O_R   0.419710 0.645650 0.494620 -0.591618
O2    O     O_R   0.611450 0.658430 0.507430 -0.589166
C1    C     C_R   0.521168 0.700853 0.500811 0.802905
O3    O     O_R   0.357340 0.490460 0.641450 -0.563389
O4    O     O_R   0.549080 0.503250 0.654260 -0.601318
C2    C     C_R   0.435880 0.490386 0.696137 0.813516
Cu1   Cu    Cu3+1 0.386470 0.492430 0.492410 1.003038
Cu2   Cu    Cu3+1 0.613530 0.507570 0.507590 0.940857
O5    O     O_R   0.388550 0.341570 0.492570 -0.544765
O6    O     O_R   0.580290 0.354350 0.505380 -0.605714
O7    O     O_R   0.450920 0.496750 0.345740 -0.567774
O8    O     O_R   0.642660 0.509540 0.358550 -0.585562
C3    C     C_R   0.477258 0.299064 0.503118 0.847673
C4    C     C_R   0.563259 0.501849 0.303815 0.805391
C5    C     C_R   0.715917 0.410601 0.045291 -0.183065
H1    H     H_    0.762428 0.431660 0.191428 0.161516
H2    H     H_    0.726026 0.351399 0.851411 0.154711
H3    H     H_    0.795798 0.378564 0.010866 0.148057
C6    C     C_R   0.596451 0.485570 0.192750 -0.073315
C7    C     C_R   0.285759 0.509424 0.855981 -0.242505
C8    C     C_R   0.245301 0.504822 0.961823 -0.187599
C9    C     C_R   0.316970 0.478135 0.024045 0.342417
C10   C     C_R   0.435759 0.461692 0.978387 -0.033216
C11   C     C_R   0.467742 0.448592 0.870390 0.040459
C12   C     C_R   0.524277 0.457651 0.035220 0.100074
C13   C     C_R   0.629775 0.417688 0.988940 0.156632
C14   C     C_R   0.648124 0.385751 0.886908 -0.227062
C15   C     C_R   0.569110 0.401954 0.828000 -0.160619
C16   C     C_R   0.514485 0.498319 0.134638 -0.167153
C17   C     C_R   0.698348 0.442793 0.147386 -0.184310
C18   C     C_R   0.395832 0.480433 0.808736 -0.085059
H4    H     H_    0.443031 0.540499 0.168584 0.180580
H5    H     H_    0.228888 0.533368 0.810704 0.172651
H6    H     H_    0.155752 0.519369 0.995400 0.181899
H7    H     H_    0.587323 0.374534 0.749797 0.176904
C19   C     C_R   0.461658 0.185371 0.511166 -0.172347
C20   C     C_R   0.533696 0.814160 0.499440 -0.053840
C21   C     C_R   0.657860 0.984794 0.471276 -0.173096
C22   C     C_R   0.647304 0.876680 0.475605 -0.187174
C23   C     C_R   0.430790 0.860159 0.520473 -0.223568
C24   C     C_R   0.440657 0.968147 0.517491 0.104280
C25   C     C_R   0.554887 0.030925 0.492060 0.172143
C26   C     C_R   0.564443 0.138767 0.487910 -0.304764
C27   C     C_R   0.347024 0.122499 0.540860 0.343467
C28   C     C_R   0.337852 0.013999 0.541106 -0.255883
H8    H     H_    0.652428 0.186453 0.465961 0.167353
H9    H     H_    0.746127 0.032158 0.451883 0.148669
H10   H     H_    0.250409 0.965543 0.563277 0.173071
H11   H     H_    0.727689 0.841977 0.458833 0.164860
H12   H     H_    0.342878 0.812001 0.540033 0.147353
N1    N     N_R   0.215880 0.481050 0.481000 -0.197968
N2    N     N_R   0.784100 0.518950 0.519000 -0.186188
C29   C     C_R   0.948009 0.601669 0.591002 -0.318926
C30   C     C_R   0.828450 0.591126 0.583009 0.097292
C31   C     C_R   0.855748 0.454971 0.461712 0.044728
C32   C     C_R   0.976527 0.462413 0.467602 0.040414
C33   C     C_R   0.023269 0.537166 0.532833 0.064750
C34   C     C_R   0.144285 0.545125 0.538165 0.032370
C35   C     C_R   0.170871 0.407474 0.418600 0.222132
C36   C     C_R   0.051417 0.397092 0.410354 -0.233756
H13   H     H_    0.181243 0.602085 0.588311 0.113647
H14   H     H_    0.227731 0.356174 0.375179 0.167715
H15   H     H_    0.981211 0.659792 0.642141 0.141896
H16   H     H_    0.017992 0.338359 0.359855 0.159308
H17   H     H_    0.771032 0.641186 0.627994 0.133555
H18   H     H_    0.818920 0.398287 0.411263 0.116208
N3    N     N_R   0.240160 0.166850 0.575897 0.126733
O9    O     O_R   0.142510 0.125402 0.548147 -0.371016
O10   O     O_R   0.234087 0.234789 0.649986 -0.352873
N4    N     N_R   0.261445 0.452739 0.129628 0.092974
O11   O     O_R   0.276771 0.367528 0.169295 -0.385725
O12   O     O_R   0.181164 0.504803 0.180940 -0.393865

loop_
_geom_bond_atom_site_label_1
_geom_bond_atom_site_label_2
_geom_bond_distance
_ccdc_geom_bond_type
C5    H3    1.083911 S    
N4    O12   1.301503 A    
C10   C11   1.419274 A    
O6    C3    1.295126 A    
N4    O11   1.301404 A    
C20   C23   1.398259 A    
C24   C25   1.410900 A    
Cu2   N2    2.009167 S    
C19   C26   1.401450 A    
N2    C31   1.369383 A    
C36   H16   1.083253 S    
C6    C16   1.397457 A    
Cu2   O8    1.945744 S    
C34   H13   1.082644 S    
O2    C1    1.290767 A    
C33   C34   1.414892 A    
C11   C18   1.420835 A    
Cu1   N1    2.009399 S    
C35   C36   1.405314 A    
C20   C22   1.402943 A    
N1    C34   1.369242 A    
O1    Cu1   1.961833 S    
C29   C30   1.405345 A    
C32   C33   1.406940 A    
Cu1   O7    1.932999 S    
C29   H15   1.083254 S    
C12   C16   1.401595 A    
C21   H9    1.083849 S    
C21   C22   1.390828 A    
C5    C17   1.394614 A    
O3    Cu1   1.945744 S    
C23   H12   1.084966 S    
C7    H5    1.083510 S    
O3    C2    1.297798 A    
C23   C24   1.389041 A    
C22   H11   1.083212 S    
O8    C4    1.296100 A    
C21   C25   1.399958 A    
C16   H4    1.079717 S    
C2    C18   1.475072 S    
C10   C12   1.425020 A    
C13   C14   1.392640 A    
O4    C2    1.293487 A    
O7    C4    1.291597 A    
C31   C32   1.414922 A    
C26   H8    1.084932 S    
O4    Cu2   1.933000 S    
C19   C27   1.418744 A    
C25   C26   1.388331 A    
H1    C17   1.083248 S    
N3    O9    1.301350 A    
H2    C14   1.084137 S    
C32   C36   1.403666 A    
Cu1   Cu2   2.674546 S    
C31   H18   1.082678 S    
N1    C35   1.363599 A    
C7    C8    1.386408 A    
C1    C20   1.454410 S    
C3    C19   1.461584 S    
Cu2   O6    1.961834 S    
C28   H10   1.084457 S    
C30   H17   1.081658 S    
C14   C15   1.388886 A    
Cu1   O5    1.964409 S    
C24   C28   1.396159 A    
C9    C10   1.428022 A    
C5    C13   1.404563 A    
C27   N3    1.436248 S    
O5    C3    1.290122 A    
C8    H6    1.083113 S    
C35   H14   1.080952 S    
N3    O10   1.301828 A    
C12   C13   1.418383 A    
C8    C9    1.397923 A    
C6    C17   1.399857 A    
C4    C6    1.464921 S    
C9    N4    1.436545 S    
O2    Cu2   1.964406 S    
C27   C28   1.395249 A    
C11   C15   1.413773 A    
C15   H7    1.079426 S    
N2    C30   1.364182 A    
O1    C1    1.291804 A    
C7    C18   1.401371 A    
C29   C33   1.403682 A    
