data_mof_unit_25162.cif
_audit_creation_date              2012-12-11T14:58:00-0500
_audit_creation_method            fapswitch 2.2
_symmetry_space_group_name_H-M    P1
_symmetry_Int_Tables_number       1
_space_group_crystal_system       triclinic
_cell_length_a                    6.93706
_cell_length_b                    16.734165
_cell_length_c                    17.073361
_cell_angle_alpha                 100.31441
_cell_angle_beta                  89.068359
_cell_angle_gamma                 91.986014
_cell_volume                      1948.67473258

loop_
_atom_site_label
_atom_site_type_symbol
_atom_type_description
_atom_site_fract_x
_atom_site_fract_y
_atom_site_fract_z
_atom_type_partial_charge
O1    O     O_R   0.506180 0.438940 0.579430 -0.547810
O2    O     O_R   0.170520 0.406230 0.413590 -0.547416
O3    O     O_R   0.005180 0.561060 0.420570 -0.503191
C1    C     C_R   0.339023 0.384242 0.384004 0.775447
O4    O     O_R   0.176140 0.429310 0.578370 -0.518313
O5    O     O_R   0.010830 0.584300 0.586530 -0.504009
C2    C     C_R   0.340778 0.414045 0.606014 0.722592
O6    O     O_R   0.500520 0.415700 0.413470 -0.532392
O7    O     O_3   0.340830 0.550820 0.502480 -0.329414
V1    V     V_3+5 0.064040 0.490570 0.499540 1.602007
O8    O     O_R   0.681400 0.593770 0.586410 -0.552545
C3    C     C_R   0.853155 0.620973 0.610662 0.782221
O9    O     O_R   0.675790 0.570690 0.421630 -0.513869
C4    C     C_R   0.846768 0.584694 0.393644 0.796577
V2    V     V_3+5 0.564650 0.509430 0.500460 1.578733
O10   O     O_3   0.837730 0.449180 0.497520 -0.381975
C5    C     C_R   0.894683 0.863725 0.168235 -0.123582
C6    C     C_R   0.867296 0.635747 0.331040 -0.047619
C7    C     C_R   0.033499 0.663353 0.211487 -0.120963
C8    C     C_R   0.992776 0.612388 0.266515 -0.110961
C9    C     C_R   0.773924 0.709953 0.337646 -0.058911
C10   C     C_R   0.812223 0.762104 0.281944 0.059395
C11   C     C_R   0.946432 0.738735 0.218989 0.099106
C12   C     C_R   0.988954 0.790165 0.163494 -0.215929
C13   C     C_R   0.760822 0.886286 0.230246 -0.206624
C14   C     C_R   0.720780 0.837014 0.287188 0.405190
H1    H     H_    0.089422 0.771535 0.114869 0.123321
H2    H     H_    0.685944 0.942690 0.234221 0.150262
H3    H     H_    0.133106 0.643640 0.162870 0.127256
H4    H     H_    0.058319 0.553913 0.258512 0.169949
H5    H     H_    0.676588 0.727410 0.387493 0.192049
C15   C     C_R   0.984588 0.915384 0.731097 -0.284671
C16   C     C_R   0.027349 0.936132 0.657775 0.337784
C17   C     C_R   0.038818 0.875621 0.590600 0.413527
C18   C     C_R   0.002897 0.793457 0.596815 0.222188
C19   C     C_R   0.938787 0.771042 0.670663 -0.059479
C20   C     C_R   0.941281 0.834092 0.739434 -0.024976
C21   C     C_R   0.868937 0.690578 0.679275 -0.127953
C22   C     C_R   0.810426 0.675791 0.756071 0.041403
C23   C     C_R   0.831184 0.737969 0.824324 0.068239
C24   C     C_R   0.898596 0.816481 0.815916 -0.105884
C25   C     C_R   0.732624 0.598941 0.766866 -0.089333
C26   C     C_R   0.682143 0.583536 0.842198 -0.066426
C27   C     C_R   0.707798 0.643828 0.908795 -0.129771
C28   C     C_R   0.781306 0.720289 0.900316 -0.143904
H6    H     H_    0.981948 0.964803 0.781520 0.163026
H7    H     H_    0.709361 0.549527 0.717542 0.151954
H8    H     H_    0.623649 0.524265 0.848873 0.138538
H9    H     H_    0.797758 0.765368 0.953979 0.094205
H10   H     H_    0.590318 0.484886 0.138384 0.150787
C29   C     C_R   0.230922 0.218878 0.395198 -0.172653
C30   C     C_R   0.186010 0.139307 0.404573 -0.065179
C31   C     C_R   0.214944 0.075293 0.342006 -0.051515
C32   C     C_R   0.289575 0.090353 0.269675 -0.164113
C33   C     C_R   0.335372 0.170609 0.257991 0.074814
C34   C     C_R   0.304873 0.236515 0.322016 0.053841
C35   C     C_R   0.414791 0.185085 0.184598 -0.160706
C36   C     C_R   0.464643 0.265797 0.175296 0.033286
C37   C     C_R   0.429750 0.333234 0.238282 0.002927
C38   C     C_R   0.351568 0.317848 0.312856 -0.178349
C39   C     C_R   0.545665 0.280471 0.102383 -0.146667
C40   C     C_R   0.593741 0.358507 0.090675 -0.191565
C41   C     C_R   0.556842 0.424267 0.149827 -0.133156
C42   C     C_R   0.472780 0.413421 0.222222 0.327891
H11   H     H_    0.207307 0.266018 0.446304 0.104382
H12   H     H_    0.129378 0.127247 0.460925 0.179568
H13   H     H_    0.180923 0.013515 0.349717 0.193994
H14   H     H_    0.313229 0.038136 0.223524 0.117360
H15   H     H_    0.573115 0.231902 0.053015 0.119362
H16   H     H_    0.656568 0.368172 0.034513 0.137021
C43   C     C_R   0.431427 0.139954 0.833775 -0.069184
C44   C     C_R   0.332824 0.360755 0.667905 -0.145054
C45   C     C_R   0.150522 0.300991 0.768729 -0.209920
C46   C     C_R   0.166840 0.357367 0.717474 0.380313
C47   C     C_R   0.483554 0.308021 0.674430 -0.241774
C48   C     C_R   0.467046 0.251668 0.726937 0.144874
C49   C     C_R   0.297953 0.247576 0.773660 0.107909
C50   C     C_R   0.279887 0.191283 0.825931 -0.155753
C51   C     C_R   0.599191 0.144277 0.786639 -0.131530
C52   C     C_R   0.616332 0.199015 0.733545 -0.105359
H17   H     H_    0.150869 0.189383 0.862356 0.114887
H18   H     H_    0.718718 0.105424 0.791191 0.150665
H19   H     H_    0.021738 0.299353 0.805360 0.148278
H20   H     H_    0.747490 0.200824 0.698445 0.159203
O11   O     O_R   0.265840 0.084300 0.086750 -0.536840
O12   O     O_R   0.589750 0.070740 0.921690 -0.549475
O13   O     O_R   0.755020 0.915730 0.913400 -0.535014
C53   C     C_R   0.424716 0.086482 0.894814 0.702253
O14   O     O_R   0.595830 0.093740 0.086480 -0.539935
O15   O     O_R   0.761150 0.938890 0.079360 -0.540779
C54   C     C_R   0.427482 0.116403 0.115414 0.689021
O16   O     O_R   0.259710 0.061140 0.920790 -0.534254
O17   O     O_3   0.425260 0.949200 0.997610 -0.365229
V3    V     V_3+5 0.702060 0.009430 0.000450 1.423432
O18   O     O_R   0.090530 0.929220 0.078150 -0.539085
C55   C     C_R   0.918567 0.913888 0.105074 0.713405
O19   O     O_R   0.084440 0.906220 0.913360 -0.536785
C56   C     C_R   0.913694 0.882327 0.886612 0.690388
V4    V     V_3+5 0.201450 0.990520 0.999290 1.437921
O20   O     O_3   0.928380 0.050800 0.002390 -0.370819
Cl1   Cl    Cl    0.101567 0.903761 0.498052 -0.444955
Cl2   Cl    Cl    0.066216 0.723554 0.512085 -0.592986
Cl3   Cl    Cl    0.414019 0.505265 0.284265 -0.716999
Cl4   Cl    Cl    0.974800 0.423905 0.720600 -0.727042
H21   H     H_    0.611481 0.309390 0.637314 0.169713
Cl5   Cl    Cl    0.551101 0.871059 0.362740 -0.551057
H22   H     H_    0.669628 0.631476 0.967301 0.117644
Cl6   Cl    Cl    0.073047 0.039394 0.652742 -0.608465

loop_
_geom_bond_atom_site_label_1
_geom_bond_atom_site_label_2
_ccdc_geom_bond_type
C42   Cl3   S    
C33   C34   A    
O17   V3    S    
C6    C9    A    
C45   C46   A    
C4    C6    S    
O2    C1    A    
C7    C8    A    
C12   H1    S    
C1    O6    A    
C18   Cl2   S    
C14   Cl5   S    
C43   C51   A    
O19   C56   A    
O11   C54   A    
C8    H4    S    
C49   C50   A    
C30   C31   A    
C13   H2    S    
C9    H5    S    
C37   C42   A    
C19   C20   A    
C17   C18   A    
O5    C3    A    
C21   C22   A    
O12   C53   A    
C32   H14   S    
O18   V4    S    
V2    O10   S    
O13   V3    S    
C40   H16   S    
C29   C34   A    
C29   H11   S    
O14   V3    S    
O12   V3    S    
O8    V2    S    
C53   O16   A    
C11   C12   A    
O1    V2    S    
C28   H9    S    
O14   C54   A    
C26   H8    S    
O17   V4    S    
C52   H20   S    
O13   C56   A    
C36   C39   A    
C37   C38   A    
O9    C4    A    
C3    C21   S    
H10   C41   S    
C16   Cl6   S    
C44   C47   A    
O19   V4    S    
O15   V3    S    
C22   C25   A    
C10   C11   A    
C23   C28   A    
C5    C12   A    
C29   C30   A    
C17   Cl1   S    
C48   C49   A    
C44   C46   A    
C2    C44   S    
O4    C2    A    
C36   C37   A    
C31   C32   A    
C41   C42   A    
C18   C19   A    
C7    C11   A    
C47   C48   A    
C40   C41   A    
O11   V4    S    
V4    O20   S    
V3    O20   S    
C1    C38   S    
C16   C17   A    
C5    C55   S    
C15   C20   A    
O3    C4    A    
C23   C24   A    
C47   H21   S    
O6    V2    S    
C33   C35   A    
C26   C27   A    
C51   C52   A    
C25   C26   A    
O2    V1    S    
C22   C23   A    
C30   H12   S    
C27   C28   A    
C46   Cl4   S    
O7    V1    S    
C27   H22   S    
C39   H15   S    
C32   C33   A    
C35   C54   S    
O1    C2    A    
C15   H6    S    
C48   C52   A    
O5    V1    S    
C51   H18   S    
O8    C3    A    
O15   C55   A    
C5    C13   A    
C15   C16   A    
O9    V2    S    
O7    V2    S    
O4    V1    S    
O3    V1    S    
V1    O10   S    
C13   C14   A    
C50   H17   S    
C35   C36   A    
C19   C21   A    
C6    C8    A    
C25   H7    S    
C20   C24   A    
C39   C40   A    
C31   H13   S    
C43   C53   S    
C34   C38   A    
C10   C14   A    
O18   C55   A    
C45   C49   A    
C24   C56   S    
C9    C10   A    
C45   H19   S    
C43   C50   A    
O16   V4    S    
C7    H3    S    
