data_mof_unit_41681.cif
_audit_creation_date              2012-12-10T20:39:58-0500
_audit_creation_method            fapswitch 2.2
_symmetry_space_group_name_H-M    P1
_symmetry_Int_Tables_number       1
_space_group_crystal_system       triclinic
_cell_length_a                    23.421745
_cell_length_b                    10.648256
_cell_length_c                    9.841429
_cell_angle_alpha                 90.136238
_cell_angle_beta                  89.932383
_cell_angle_gamma                 89.795401
_cell_volume                      2454.43532149

loop_
_atom_site_label
_atom_site_type_symbol
_atom_type_description
_atom_site_fract_x
_atom_site_fract_y
_atom_site_fract_z
_atom_type_partial_charge
C1    C     C_R   0.498491 0.259751 0.500111 0.942941
C2    C     C_R   0.970006 0.279804 0.473541 -0.159717
C3    C     C_R   0.029428 0.278875 0.473737 -0.158025
C4    C     C_R   0.059769 0.391609 0.487446 -0.015949
C5    C     C_R   0.030010 0.506211 0.501266 -0.022026
C6    C     C_R   0.060092 0.619871 0.515377 -0.016289
C7    C     C_R   0.030052 0.733536 0.528821 -0.155638
C8    C     C_R   0.970613 0.734470 0.528181 -0.159649
C9    C     C_R   0.119371 0.393137 0.487763 0.505050
C10   C     C_R   0.119703 0.616480 0.515326 0.505999
C11   C     C_R   0.237843 0.508326 0.624207 -0.099119
C12   C     C_R   0.389266 0.500055 0.500129 0.860816
C13   C     C_R   0.297096 0.506925 0.624081 -0.205038
C14   C     C_R   0.327013 0.500875 0.500459 -0.037633
C15   C     C_R   0.296947 0.496147 0.377202 -0.210904
C16   C     C_R   0.237692 0.497181 0.377782 -0.096712
C17   C     C_R   0.208325 0.503386 0.501169 0.322377
C18   C     C_R   0.762172 0.478711 0.379913 -0.114636
C19   C     C_R   0.702949 0.476453 0.379908 -0.234798
C20   C     C_R   0.672770 0.505058 0.499323 -0.023582
C21   C     C_R   0.702369 0.537684 0.618066 -0.239388
C22   C     C_R   0.761614 0.539614 0.617842 -0.129577
C23   C     C_R   0.495520 0.739728 0.500216 0.880962
C24   C     C_R   0.791468 0.509680 0.498959 0.313112
C25   C     C_R   0.494095 0.063252 0.623667 0.020156
C26   C     C_R   0.488623 0.128506 0.502144 -0.212789
C27   C     C_R   0.468059 0.066477 0.386462 -0.212611
C28   C     C_R   0.463116 0.936574 0.387005 0.447680
C29   C     C_R   0.482598 0.870571 0.503133 -0.313771
C30   C     C_R   0.490866 0.935700 0.624348 0.143860
C31   C     C_3   0.534776 0.922427 0.734054 0.218231
C32   C     C_3   0.538141 0.065627 0.734581 -0.265236
C33   C     C_R   0.452087 0.466594 0.071263 0.228702
C34   C     C_R   0.610664 0.501100 0.499851 0.881856
C35   C     C_R   0.545466 0.544053 0.071994 -0.116469
C36   C     C_R   0.545481 0.543999 0.927910 -0.107027
C37   C     C_R   0.452014 0.467095 0.928558 0.235259
C38   C     C_3   0.422134 0.344042 0.921587 -0.500049
C39   C     C_3   0.422737 0.342665 0.075846 -0.507718
C40   C     C_R   0.880631 0.620276 0.512996 0.506743
C41   C     C_R   0.880383 0.396785 0.486843 0.494687
C42   C     C_R   0.939972 0.393503 0.486880 -0.006927
C43   C     C_R   0.970030 0.507152 0.500851 -0.023309
C44   C     C_R   0.940255 0.621734 0.514271 -0.016326
H1    H     H_    0.947749 0.191344 0.462788 0.193150
H2    H     H_    0.680883 0.451072 0.287211 0.155898
H3    H     H_    0.679819 0.560895 0.710986 0.150217
H4    H     H_    0.784414 0.563254 0.710027 0.144823
H5    H     H_    0.457257 0.117587 0.295126 0.182881
H6    H     H_    0.573883 0.870663 0.701123 0.090829
H7    H     H_    0.520530 0.108005 0.829304 0.177989
H8    H     H_    0.582516 0.577735 0.126247 0.147235
H9    H     H_    0.051444 0.189749 0.463127 0.194206
H10   H     H_    0.582533 0.577655 0.873609 0.139039
H11   H     H_    0.378514 0.353207 0.878312 0.206947
H12   H     H_    0.448829 0.269028 0.874949 0.218675
H13   H     H_    0.379431 0.349553 0.121545 0.206738
H14   H     H_    0.450357 0.267471 0.118310 0.215918
H15   H     H_    0.052320 0.821969 0.539702 0.193941
H16   H     H_    0.948596 0.823612 0.538599 0.192052
H17   H     H_    0.214778 0.513032 0.719529 0.138651
H18   H     H_    0.319344 0.510936 0.720391 0.160758
H19   H     H_    0.319075 0.491682 0.280639 0.158053
H20   H     H_    0.214505 0.493438 0.282728 0.138277
H21   H     H_    0.785415 0.455830 0.287888 0.143973
N1    N     N_R   0.852237 0.508956 0.499600 -0.356126
N2    N     N_R   0.147689 0.504371 0.501513 -0.362287
N3    N     N_R   0.499610 0.499140 0.142800 -0.108165
N4    N     N_R   0.499610 0.499180 0.857150 -0.106068
O1    O     O_R   0.500010 0.316790 0.614690 -0.614526
O2    O     O_2   0.850662 0.288945 0.475003 -0.582790
O3    O     O_2   0.148959 0.284731 0.474866 -0.542335
O4    O     O_2   0.149616 0.723947 0.528377 -0.540641
O5    O     O_R   0.500000 0.316760 0.385350 -0.629465
O6    O     O_R   0.416160 0.499980 0.614700 -0.619463
O7    O     O_R   0.416150 0.499940 0.385360 -0.629962
O8    O     O_R   0.500000 0.683240 0.614650 -0.581301
O9    O     O_R   0.499990 0.683210 0.385310 -0.597562
O10   O     O_R   0.583850 0.500060 0.614640 -0.628538
O11   O     O_R   0.583840 0.500020 0.385300 -0.629161
O12   O     O_2   0.851129 0.728970 0.523989 -0.554571
Zn1   Zn    Zn3+2 0.500000 0.500020 0.653130 0.971122
Zn2   Zn    Zn3+2 0.500000 0.499980 0.346870 0.956842
O13   O     O_3   0.442043 0.878843 0.272119 -0.725843
H22   H     H_    0.421854 0.801692 0.300751 0.347408
O14   O     O_3   0.510234 0.875238 0.853255 -0.706866
H23   H     H_    0.541704 0.870621 0.920454 0.335362
C45   C     C_R   0.596068 0.117085 0.694425 0.118679
C46   C     C_R   0.624100 0.078653 0.574395 -0.179864
C47   C     C_R   0.677970 0.126176 0.542058 -0.116490
C48   C     C_R   0.704552 0.211456 0.629198 -0.080732
C49   C     C_R   0.677045 0.250627 0.748026 -0.147389
C50   C     C_R   0.622970 0.204293 0.780265 -0.103902
H24   H     H_    0.604417 0.011821 0.506069 0.126997
H25   H     H_    0.699248 0.096379 0.449716 0.155483
H26   H     H_    0.746366 0.247632 0.604403 0.187222
H27   H     H_    0.697615 0.317124 0.815193 0.131038
H28   H     H_    0.602287 0.235892 0.872788 0.116128

loop_
_geom_bond_atom_site_label_1
_geom_bond_atom_site_label_2
_ccdc_geom_bond_type
C22   H4    S    
C37   N4    A    
C28   O13   S    
C3    H9    S    
C41   C42   A    
C19   C20   A    
C9    O3    S    
O5    Zn2   S    
C19   H2    S    
C7    C8    A    
C10   N2    A    
C18   H21   S    
C26   C27   A    
C29   C30   A    
C18   C24   A    
C1    O5    A    
C23   C29   S    
C28   C29   A    
C30   C31   S    
C10   O4    S    
C15   C16   A    
C32   C45   S    
C35   N3    A    
C18   C19   A    
C46   H24   S    
N4    Zn1   S    
C34   O11   A    
C48   H26   S    
O9    Zn2   S    
C38   H11   S    
C35   C36   A    
C16   C17   A    
C24   N1    S    
C41   O2    S    
C20   C34   S    
C45   C46   A    
C25   C32   S    
C5    C43   A    
C31   O14   S    
C40   N1    A    
C21   C22   A    
O11   Zn2   S    
O7    Zn2   S    
C7    H15   S    
C49   H27   S    
C2    H1    S    
C38   C39   S    
C17   N2    S    
C13   H18   S    
C47   H25   S    
O13   H22   S    
C48   C49   A    
O14   H23   S    
C25   C26   A    
C39   H14   S    
C33   C37   A    
C43   C44   A    
C9    N2    A    
C32   H7    S    
C37   C38   S    
C34   O10   A    
C31   C32   S    
C33   C39   S    
C23   O8    A    
C41   N1    A    
C12   C14   S    
C12   O7    A    
C1    C26   S    
C22   C24   A    
C42   C43   A    
C31   H6    S    
C3    C4    A    
C35   H8    S    
C36   N4    A    
C25   C30   A    
C45   C50   A    
C11   C17   A    
N3    Zn2   S    
C40   O12   S    
C8    C44   A    
C4    C5    A    
C11   H17   S    
C6    C10   A    
O10   Zn1   S    
O6    Zn1   S    
C6    C7    A    
C1    O1    A    
C2    C3    A    
C4    C9    A    
C8    H16   S    
C11   C13   A    
C47   C48   A    
C5    C6    A    
O8    Zn1   S    
C2    C42   A    
C49   C50   A    
C23   O9    A    
O1    Zn1   S    
C36   H10   S    
C40   C44   A    
C38   H12   S    
C20   C21   A    
C12   O6    A    
C27   C28   A    
C15   H19   S    
C14   C15   A    
C16   H20   S    
C46   C47   A    
C13   C14   A    
C50   H28   S    
C27   H5    S    
C33   N3    A    
C21   H3    S    
C39   H13   S    
