data_mof_unit_5264.cif
_audit_creation_date              2012-12-11T15:06:54-0500
_audit_creation_method            fapswitch 2.2
_symmetry_space_group_name_H-M    P1
_symmetry_Int_Tables_number       1
_space_group_crystal_system       triclinic
_cell_length_a                    19.704544
_cell_length_b                    11.368947
_cell_length_c                    18.723752
_cell_angle_alpha                 89.999291
_cell_angle_beta                  89.845371
_cell_angle_gamma                 90.001227
_cell_volume                      4194.47808119

loop_
_atom_site_label
_atom_site_type_symbol
_atom_type_description
_atom_site_fract_x
_atom_site_fract_y
_atom_site_fract_z
_atom_type_partial_charge
Br1   Br    Br    0.892010 0.980720 0.440042 -0.586560
Br2   Br    Br    0.104135 0.992120 0.577425 -0.584055
Br3   Br    Br    0.395847 0.492017 0.422614 -0.584032
Br4   Br    Br    0.607988 0.480758 0.559973 -0.586543
C1    C     C_R   0.761530 0.521861 0.638704 0.543688
C2    C     C_3   0.252300 0.042225 0.559905 0.068606
C3    C     C_R   0.740117 0.035057 0.151871 0.532629
C4    C     C_R   0.774270 0.132653 0.858894 0.530653
C5    C     C_R   0.225729 0.132657 0.141104 0.530462
C6    C     C_R   0.274268 0.632648 0.858893 0.530443
C7    C     C_R   0.725730 0.632655 0.141105 0.530658
C8    C     C_R   0.967857 0.353519 0.854163 0.535492
C9    C     C_R   0.032144 0.353519 0.145837 0.536231
C10   C     C_R   0.467856 0.853519 0.854164 0.536229
C11   C     C_R   0.532142 0.853519 0.145838 0.535489
C12   C     C_3   0.693725 0.143718 0.464178 -0.270848
C13   C     C_3   0.247669 0.542126 0.440121 0.068556
C14   C     C_3   0.306585 0.131019 0.533628 -0.261911
C15   C     C_3   0.193406 0.630976 0.466380 -0.261891
C16   C     C_3   0.806276 0.643723 0.535820 -0.270861
C17   C     C_3   0.691332 0.140064 0.546463 -0.247941
C18   C     C_3   0.306876 0.136580 0.452482 -0.239526
C19   C     C_3   0.193116 0.636564 0.547525 -0.239532
C20   C     C_3   0.808670 0.640062 0.453533 -0.247929
C21   C     C_3   0.741459 0.940731 0.483632 -0.215176
C22   C     C_3   0.251774 0.926990 0.512838 -0.218324
C23   C     C_3   0.248190 0.426933 0.487222 -0.218500
C24   C     C_3   0.752122 0.553409 0.562571 0.066710
C25   C     C_3   0.758535 0.440747 0.516374 -0.215155
C26   C     C_3   0.760723 0.091029 0.574596 0.045988
C27   C     C_3   0.240054 0.083564 0.423292 0.041587
C28   C     C_3   0.259938 0.583560 0.576716 0.041603
C29   C     C_3   0.739280 0.591027 0.425402 0.045970
C30   C     C_3   0.761391 0.959135 0.562133 -0.243444
C31   C     C_3   0.247255 0.951014 0.431895 -0.263507
C32   C     C_3   0.252733 0.451010 0.568151 -0.263463
C33   C     C_R   0.236726 0.513483 0.363718 0.553280
C34   C     C_3   0.738605 0.459140 0.437872 -0.243456
C35   C     C_3   0.819499 0.143584 0.529388 -0.190565
C36   C     C_3   0.175680 0.119787 0.467421 -0.197584
C37   C     C_3   0.324306 0.619763 0.532570 -0.197633
C38   C     C_3   0.680507 0.643584 0.470604 -0.190572
C39   C     C_3   0.009445 0.213021 0.461771 -0.224037
C40   C     C_3   0.009542 0.215265 0.543632 -0.226923
C41   C     C_3   0.490434 0.715251 0.456361 -0.226926
C42   C     C_3   0.490528 0.713018 0.538224 -0.224028
C43   C     C_3   0.062064 0.419995 0.472930 -0.215404
C44   C     C_R   0.263224 0.013661 0.636321 0.553259
C45   C     C_3   0.931754 0.388590 0.527789 -0.220148
C46   C     C_3   0.568243 0.888568 0.472212 -0.220143
C47   C     C_3   0.437936 0.920016 0.527066 -0.215400
C48   C     C_3   0.941863 0.391003 0.446138 -0.262993
C49   C     C_3   0.052866 0.417526 0.554238 -0.256955
C50   C     C_3   0.447129 0.917528 0.445756 -0.256936
C51   C     C_3   0.558135 0.890978 0.553863 -0.262991
C52   C     C_3   0.011346 0.338866 0.431672 0.042604
C53   C     C_3   0.992119 0.338997 0.570398 0.040060
C54   C     C_3   0.507872 0.838988 0.429598 0.040086
C55   C     C_R   0.738466 0.021847 0.361300 0.543681
C56   C     C_3   0.488644 0.838866 0.568323 0.042600
C57   C     C_3   0.819198 0.026188 0.046369 -0.233982
C58   C     C_3   0.180802 0.026190 0.953630 -0.233920
C59   C     C_3   0.319199 0.526189 0.046370 -0.233918
C60   C     C_3   0.680801 0.526190 0.953630 -0.233981
C61   C     C_R   0.774434 0.121730 0.649500 0.533192
C62   C     C_R   0.226195 0.119469 0.349394 0.533493
C63   C     C_R   0.273808 0.619481 0.650604 0.533512
C64   C     C_R   0.725569 0.621722 0.350497 0.533188
C65   C     C_3   0.818379 0.022482 0.965708 -0.234493
C66   C     C_3   0.819762 0.100886 0.451931 0.025623
C67   C     C_3   0.181618 0.022489 0.034291 -0.234578
C68   C     C_3   0.318379 0.522479 0.965708 -0.234581
C69   C     C_3   0.681617 0.522488 0.034291 -0.234487
C70   C     C_3   0.691231 0.016144 0.032078 -0.224380
C71   C     C_3   0.308767 0.016142 0.967928 -0.224774
C72   C     C_3   0.191233 0.516146 0.032082 -0.224758
C73   C     C_3   0.808767 0.516145 0.967925 -0.224379
C74   C     C_3   0.745016 0.202335 0.061136 -0.253500
C75   C     C_3   0.254989 0.202333 0.938860 -0.253393
C76   C     C_3   0.245020 0.702338 0.061134 -0.253404
C77   C     C_3   0.181505 0.097041 0.547826 0.002609
C78   C     C_3   0.754987 0.702336 0.938861 -0.253499
C79   C     C_3   0.749254 0.071424 0.075531 0.061558
C80   C     C_3   0.250748 0.071421 0.924470 0.060675
C81   C     C_3   0.249256 0.571427 0.075532 0.060670
C82   C     C_3   0.750747 0.571423 0.924469 0.061556
C83   C     C_3   0.760704 0.103787 0.936193 0.060804
C84   C     C_3   0.239294 0.103794 0.063806 0.060996
C85   C     C_3   0.260704 0.603782 0.936192 0.060994
C86   C     C_3   0.739294 0.603791 0.063806 0.060803
C87   C     C_3   0.693786 0.042309 0.950861 -0.252776
C88   C     C_3   0.318473 0.596943 0.452175 0.002745
C89   C     C_3   0.306211 0.042313 0.049143 -0.252653
C90   C     C_3   0.193786 0.542303 0.950863 -0.252665
C91   C     C_3   0.806210 0.542308 0.049141 -0.252770
C92   C     C_3   0.758318 0.219192 0.980180 -0.230800
C93   C     C_3   0.241685 0.219197 0.019815 -0.230832
C94   C     C_3   0.258318 0.719188 0.980177 -0.230820
C95   C     C_3   0.741686 0.719195 0.019816 -0.230800
C96   C     C_3   0.998787 0.479927 0.040659 -0.235900
C97   C     C_3   0.001215 0.479927 0.959337 -0.235814
C98   C     C_3   0.498785 0.979929 0.040661 -0.235817
C99   C     C_3   0.680242 0.600914 0.548068 0.025617
C100  C     C_3   0.501214 0.979928 0.959339 -0.235898
C101  C     C_3   0.067616 0.292858 0.025351 -0.230819
C102  C     C_3   0.932382 0.292861 0.974646 -0.230608
C103  C     C_3   0.567614 0.792857 0.025355 -0.230601
C104  C     C_3   0.432380 0.792864 0.974649 -0.230807
C105  C     C_3   0.947427 0.280813 0.055106 -0.253812
C106  C     C_3   0.052570 0.280812 0.944892 -0.253656
C107  C     C_3   0.447425 0.780816 0.055110 -0.253649
C108  C     C_3   0.552569 0.780813 0.944894 -0.253810
C109  C     C_R   0.971195 0.343033 0.646476 0.536142
C110  C     C_3   0.747875 0.053393 0.437432 0.066706
C111  C     C_R   0.031081 0.343157 0.355140 0.536937
C112  C     C_R   0.468914 0.843158 0.644857 0.536955
C113  C     C_R   0.528802 0.843030 0.353521 0.536130
C114  C     C_3   0.010759 0.352248 0.069387 0.062471
C115  C     C_3   0.989240 0.352248 0.930611 0.062532
C116  C     C_3   0.510758 0.852249 0.069389 0.062531
C117  C     C_3   0.489239 0.852249 0.930613 0.062472
C118  C     C_R   0.759884 0.535056 0.848129 0.532631
C119  C     C_R   0.240119 0.535064 0.151874 0.535258
C120  C     C_R   0.259885 0.035051 0.848131 0.535246
Cr1   Cr    Cr6+3 0.885690 0.492860 0.745310 1.004667
Cr2   Cr    Cr6+3 0.111880 0.178590 0.246990 1.015366
Cr3   Cr    Cr6+3 0.388120 0.678590 0.753010 1.015378
Cr4   Cr    Cr6+3 0.611880 0.678590 0.246990 1.022059
Cr5   Cr    Cr6+3 0.114310 0.492860 0.254690 1.004232
Cr6   Cr    Cr6+3 0.385690 0.992860 0.745310 1.004237
Cr7   Cr    Cr6+3 0.614310 0.992860 0.254690 1.004666
Cr8   Cr    Cr6+3 0.729880 0.332270 0.748190 1.030444
Cr9   Cr    Cr6+3 0.270120 0.332270 0.251810 1.035964
Cr10  Cr    Cr6+3 0.229880 0.832270 0.748190 1.035975
Cr11  Cr    Cr6+3 0.770120 0.832270 0.251810 1.030440
Cr12  Cr    Cr6+3 0.888120 0.178590 0.753010 1.022074
H1    H     H_    0.642306 0.129131 0.442784 0.152125
H2    H     H_    0.205887 0.879096 0.524869 0.179796
H3    H     H_    0.464733 0.046198 0.940030 0.134525
H4    H     H_    0.948667 0.511302 0.059356 0.117936
H5    H     H_    0.051335 0.511304 0.940639 0.117987
H6    H     H_    0.448665 0.011303 0.059357 0.117987
H7    H     H_    0.551334 0.011304 0.940642 0.117936
H8    H     H_    0.608285 0.853370 0.030300 0.108559
H9    H     H_    0.391713 0.853384 0.969704 0.108606
H10   H     H_    0.108285 0.353374 0.030292 0.108613
H11   H     H_    0.891715 0.353375 0.969701 0.108563
H12   H     H_    0.595947 0.813047 0.912236 0.101411
H13   H     H_    0.294065 0.379017 0.475186 0.179748
H14   H     H_    0.404049 0.813050 0.087770 0.101771
H15   H     H_    0.095946 0.313044 0.912231 0.101771
H16   H     H_    0.904051 0.313042 0.087766 0.101414
H17   H     H_    0.956775 0.187163 0.069041 0.123581
H18   H     H_    0.043222 0.187162 0.930956 0.124150
H19   H     H_    0.456772 0.687165 0.069047 0.124146
H20   H     H_    0.543221 0.687162 0.930958 0.123580
H21   H     H_    0.919351 0.206553 0.952209 0.133313
H22   H     H_    0.080648 0.206554 0.047791 0.133365
H23   H     H_    0.419346 0.706555 0.952210 0.133363
H24   H     H_    0.730169 0.368536 0.539521 0.167470
H25   H     H_    0.580643 0.706550 0.047795 0.133314
H26   H     H_    0.650633 0.080315 0.563901 0.118311
H27   H     H_    0.350424 0.085397 0.431888 0.121790
H28   H     H_    0.149565 0.585395 0.568129 0.121809
H29   H     H_    0.849368 0.580312 0.436096 0.118300
H30   H     H_    0.689183 0.919482 0.485013 0.096799
H31   H     H_    0.290582 0.864370 0.524891 0.082377
H32   H     H_    0.209366 0.364334 0.475220 0.082332
H33   H     H_    0.810812 0.419523 0.514984 0.096816
H34   H     H_    0.725044 0.913524 0.598406 0.090241
H35   H     H_    0.812990 0.923421 0.572483 0.182528
H36   H     H_    0.292265 0.916777 0.403131 0.101893
H37   H     H_    0.207728 0.416797 0.596937 0.101895
H38   H     H_    0.774957 0.413526 0.401605 0.090229
H39   H     H_    0.831244 0.175141 0.415230 0.106038
H40   H     H_    0.177389 0.181367 0.577681 0.109690
H41   H     H_    0.322592 0.681242 0.422290 0.109761
H42   H     H_    0.668768 0.675186 0.584757 0.106025
H43   H     H_    0.808467 0.235882 0.527653 0.065227
H44   H     H_    0.158864 0.209862 0.456236 0.084557
H45   H     H_    0.341119 0.709856 0.543712 0.084525
H46   H     H_    0.202531 0.905805 0.408280 0.140241
H47   H     H_    0.691515 0.735869 0.472313 0.065241
H48   H     H_    0.297461 0.405815 0.591763 0.140266
H49   H     H_    0.687006 0.423427 0.427522 0.182525
H50   H     H_    0.049075 0.157257 0.440437 0.163976
H51   H     H_    0.976803 0.144844 0.565267 0.192678
H52   H     H_    0.523176 0.644822 0.434734 0.192672
H53   H     H_    0.357787 0.110527 0.552704 0.145355
H54   H     H_    0.450889 0.657281 0.559559 0.163951
H55   H     H_    0.962386 0.172262 0.443045 0.185345
H56   H     H_    0.060955 0.199320 0.562657 0.173327
H57   H     H_    0.439019 0.699290 0.437329 0.173273
H58   H     H_    0.537579 0.672238 0.556955 0.185375
H59   H     H_    0.607607 0.828390 0.457737 0.104913
H60   H     H_    0.386978 0.897970 0.543169 0.115219
H61   H     H_    0.113013 0.397919 0.456831 0.115178
H62   H     H_    0.892372 0.328430 0.542264 0.104900
H63   H     H_    0.598999 0.841687 0.581542 0.100708
H64   H     H_    0.142198 0.610539 0.447301 0.145320
H65   H     H_    0.401061 0.883279 0.419199 0.098269
H66   H     H_    0.098932 0.383287 0.580802 0.098286
H67   H     H_    0.900989 0.341740 0.418459 0.100695
H68   H     H_    0.940827 0.482631 0.426016 0.135713
H69   H     H_    0.043692 0.508302 0.574299 0.148569
H70   H     H_    0.456303 0.008300 0.425685 0.148583
H71   H     H_    0.559184 0.982606 0.573992 0.135702
H72   H     H_    0.919182 0.478289 0.545576 0.147162
H73   H     H_    0.052751 0.512274 0.456433 0.146821
H74   H     H_    0.447271 0.012300 0.543558 0.146820
H75   H     H_    0.857689 0.629118 0.557215 0.152128
H76   H     H_    0.580846 0.978253 0.454422 0.147152
H77   H     H_    0.834404 0.937573 0.064605 0.140263
H78   H     H_    0.165594 0.937573 0.935397 0.140269
H79   H     H_    0.334406 0.437574 0.064607 0.140273
H80   H     H_    0.665594 0.437573 0.935396 0.140261
H81   H     H_    0.708521 0.231866 0.445476 0.114000
H82   H     H_    0.294949 0.218541 0.555894 0.110475
H83   H     H_    0.205072 0.718488 0.444112 0.110506
H84   H     H_    0.791489 0.731869 0.554519 0.114008
H85   H     H_    0.859840 0.085624 0.065243 0.117236
H86   H     H_    0.869565 0.128722 0.553672 0.171537
H87   H     H_    0.140161 0.085626 0.934752 0.117905
H88   H     H_    0.359843 0.585624 0.065242 0.117897
H89   H     H_    0.640160 0.585625 0.934752 0.117238
H90   H     H_    0.870192 0.043550 0.947324 0.136355
H91   H     H_    0.129805 0.043561 0.052674 0.136269
H92   H     H_    0.370191 0.543545 0.947322 0.136275
H93   H     H_    0.629806 0.543562 0.052674 0.136351
H94   H     H_    0.809505 0.931289 0.947176 0.118117
H95   H     H_    0.190488 0.931296 0.052827 0.118070
H96   H     H_    0.309505 0.431285 0.947178 0.118067
H97   H     H_    0.135163 0.060750 0.448014 0.188815
H98   H     H_    0.690486 0.431295 0.052827 0.118116
H99   H     H_    0.699850 0.924690 0.040737 0.107421
H100  H     H_    0.300143 0.924688 0.959276 0.107223
H101  H     H_    0.199850 0.424693 0.040747 0.107228
H102  H     H_    0.800147 0.424691 0.959267 0.107418
H103  H     H_    0.689477 0.959793 0.919434 0.102137
H104  H     H_    0.310514 0.959798 0.080575 0.102154
H105  H     H_    0.189478 0.459785 0.919439 0.102153
H106  H     H_    0.810510 0.459788 0.080569 0.102137
H107  H     H_    0.693765 0.235554 0.075806 0.122192
H108  H     H_    0.364822 0.560744 0.551990 0.188833
H109  H     H_    0.306242 0.235548 0.924191 0.122052
H110  H     H_    0.193770 0.735560 0.075806 0.122046
H111  H     H_    0.806238 0.735553 0.924190 0.122194
H112  H     H_    0.783011 0.250959 0.093490 0.101541
H113  H     H_    0.216997 0.250956 0.906503 0.102138
H114  H     H_    0.283018 0.750962 0.093484 0.102138
H115  H     H_    0.716993 0.750958 0.906506 0.101544
H116  H     H_    0.808727 0.251594 0.975715 0.109086
H117  H     H_    0.191278 0.251607 0.024275 0.109088
H118  H     H_    0.308726 0.751591 0.975705 0.109093
H119  H     H_    0.630444 0.628684 0.446322 0.171564
H120  H     H_    0.691279 0.751605 0.024279 0.109082
H121  H     H_    0.720880 0.280462 0.957514 0.125630
H122  H     H_    0.279126 0.280464 0.042481 0.125524
H123  H     H_    0.220878 0.780456 0.957511 0.125529
H124  H     H_    0.779128 0.780459 0.042482 0.125629
H125  H     H_    0.641771 0.043236 0.053889 0.130630
H126  H     H_    0.358229 0.043224 0.946117 0.130538
H127  H     H_    0.141774 0.543245 0.053892 0.130549
H128  H     H_    0.858229 0.543237 0.946115 0.130625
H129  H     H_    0.675014 0.225144 0.568538 0.184461
H130  H     H_    0.769838 0.868530 0.460499 0.167482
H131  H     H_    0.318561 0.224514 0.432780 0.171004
H132  H     H_    0.181442 0.724510 0.567209 0.170944
H133  H     H_    0.824989 0.725144 0.431455 0.184484
H134  H     H_    0.651357 0.101369 0.935467 0.120206
H135  H     H_    0.348643 0.101372 0.064538 0.120293
H136  H     H_    0.151357 0.601359 0.935466 0.120290
H137  H     H_    0.848643 0.601360 0.064540 0.120204
H138  H     H_    0.035269 0.546195 0.059967 0.134525
H139  H     H_    0.964734 0.546197 0.940029 0.134701
H140  H     H_    0.535266 0.046198 0.059970 0.134701
O1    O     O_R   0.957210 0.449410 0.665480 -0.529127
O2    O     O_R   0.167480 0.095300 0.164000 -0.533197
O3    O     O_R   0.332520 0.595300 0.836000 -0.533199
O4    O     O_R   0.667480 0.595300 0.164000 -0.532845
O5    O     O_R   0.946380 0.253940 0.826940 -0.510978
O6    O     O_R   0.053620 0.253940 0.173060 -0.511209
O7    O     O_R   0.446380 0.753940 0.826940 -0.511208
O8    O     O_R   0.553620 0.753940 0.173060 -0.510985
O9    O     O_3   0.834560 0.334570 0.748840 -0.286185
O10   O     O_3   0.165440 0.334570 0.251160 -0.288531
O11   O     O_3   0.334560 0.834570 0.748840 -0.288484
O12   O     O_R   0.042790 0.449410 0.334520 -0.529550
O13   O     O_3   0.665440 0.834570 0.251160 -0.286181
O14   O     O_R   0.820730 0.541240 0.668250 -0.523144
O15   O     O_R   0.179270 0.541240 0.331750 -0.523855
O16   O     O_R   0.320730 0.041240 0.668250 -0.523866
O17   O     O_R   0.679270 0.041240 0.331750 -0.523139
O18   O     O_R   0.714240 0.455060 0.663710 -0.466502
O19   O     O_R   0.285760 0.455060 0.336290 -0.457987
O20   O     O_R   0.214240 0.955060 0.663710 -0.457994
O21   O     O_R   0.785760 0.955060 0.336290 -0.466509
O22   O     O_R   0.736780 0.204870 0.675910 -0.511079
O23   O     O_R   0.457210 0.949410 0.665480 -0.529532
O24   O     O_R   0.263220 0.204870 0.324090 -0.510032
O25   O     O_R   0.236780 0.704870 0.675910 -0.510008
O26   O     O_R   0.763220 0.704870 0.324090 -0.511073
O27   O     O_R   0.833070 0.087590 0.673490 -0.519323
O28   O     O_R   0.166930 0.087590 0.326510 -0.527529
O29   O     O_R   0.333070 0.587590 0.673490 -0.527543
O30   O     O_R   0.666930 0.587590 0.326510 -0.519334
O31   O     O_R   0.946890 0.246800 0.676300 -0.501792
O32   O     O_R   0.053110 0.246800 0.323700 -0.502732
O33   O     O_R   0.446890 0.746800 0.676300 -0.502721
O34   O     O_R   0.542790 0.949410 0.334520 -0.529123
O35   O     O_R   0.553110 0.746800 0.323700 -0.501807
O36   O     O_R   0.956650 0.457120 0.827980 -0.531113
O37   O     O_R   0.043350 0.457120 0.172020 -0.530613
O38   O     O_R   0.456650 0.957120 0.827980 -0.530616
O39   O     O_R   0.543350 0.957120 0.172020 -0.531111
O40   O     O_R   0.820220 0.548390 0.818890 -0.511493
O41   O     O_R   0.179780 0.548390 0.181110 -0.510968
O42   O     O_R   0.320220 0.048390 0.818890 -0.510992
O43   O     O_R   0.679780 0.048390 0.181110 -0.511491
O44   O     O_R   0.713680 0.462770 0.826210 -0.528396
O45   O     O_R   0.736260 0.212010 0.826560 -0.511313
O46   O     O_R   0.286320 0.462770 0.173790 -0.525062
O47   O     O_R   0.213680 0.962770 0.826210 -0.525074
O48   O     O_R   0.786320 0.962770 0.173790 -0.528397
O49   O     O_R   0.263740 0.212010 0.173440 -0.511516
O50   O     O_R   0.236260 0.712010 0.826560 -0.511520
O51   O     O_R   0.763740 0.712010 0.173440 -0.511313
O52   O     O_R   0.832520 0.095300 0.836000 -0.532842

loop_
_geom_bond_atom_site_label_1
_geom_bond_atom_site_label_2
_ccdc_geom_bond_type
C101  C106  S    
C83   C87   S    
C75   H113  S    
C103  C108  S    
C103  C116  S    
C111  O32   A    
C70   C79   S    
C113  O35   A    
C86   C91   S    
Cr2   O2    S    
C3    O43   A    
C15   H64   S    
C6    O50   A    
C5    C84   S    
C9    O6    A    
C89   H104  S    
C11   C116  S    
Cr7   O17   S    
C85   C90   S    
C72   C90   S    
C36   H44   S    
C51   H63   S    
C74   C92   S    
C92   H121  S    
C84   C93   S    
C21   C30   S    
C43   C49   S    
C32   H37   S    
C10   C117  S    
C59   C81   S    
C31   H36   S    
C58   H78   S    
C105  C114  S    
Cr3   O33   S    
Cr1   O9    S    
Cr4   O30   S    
C37   H108  S    
C77   H40   S    
Cr3   O11   S    
C26   C30   S    
C16   C24   S    
Cr11  O48   S    
C72   H101  S    
C15   C19   S    
C39   C40   S    
C46   H59   S    
C101  H22   S    
C40   C53   S    
Cr11  O13   S    
C69   H98   S    
C73   H102  S    
C10   O7    A    
C5    O2    A    
C7    O4    A    
C71   C89   S    
C42   C56   S    
C75   C93   S    
C20   C29   S    
C36   H97   S    
C53   C109  S    
C21   H30   S    
C20   H133  S    
Br1   C66   S    
C104  C107  S    
C48   H67   S    
C20   H29   S    
C1    O18   A    
C40   H56   S    
C101  H10   S    
C62   O24   A    
C81   C119  S    
C10   O38   A    
Cr10  O20   S    
C67   C84   S    
C70   H125  S    
C22   C31   S    
Cr9   O10   S    
C67   H95   S    
Br2   C77   S    
C25   H33   S    
C21   C110  S    
C107  H19   S    
C72   C81   S    
C30   H35   S    
Cr9   O46   S    
C3    C79   S    
C118  O44   A    
C12   C17   S    
C119  O41   A    
C24   C99   S    
C38   C99   S    
C69   H93   S    
C9    C114  S    
Cr12  O27   S    
Cr8   O22   S    
C63   O25   A    
C29   C38   S    
C28   C32   S    
C64   O30   A    
C69   C86   S    
C75   C80   S    
C71   C80   S    
C34   H38   S    
C45   C53   S    
C11   O39   A    
C6    C85   S    
C25   C34   S    
C74   H112  S    
C60   C69   S    
C35   H86   S    
C6    O3    A    
C44   O20   A    
C112  O33   A    
C46   H76   S    
C33   O19   A    
C2    C77   S    
C76   H114  S    
C11   O8    A    
C57   H77   S    
Cr12  O9    S    
C18   H131  S    
C60   H89   S    
C93   H122  S    
C42   H58   S    
C25   H24   S    
C22   H31   S    
Cr7   O13   S    
C13   C23   S    
Cr9   O49   S    
C54   C113  S    
C102  H11   S    
C96   H138  S    
C95   H120  S    
C8    C115  S    
Cr8   O9    S    
C89   H135  S    
C45   H72   S    
C90   H136  S    
C100  H7    S    
C71   H100  S    
C28   C63   S    
C120  O47   A    
Cr2   O10   S    
C76   H110  S    
C56   C112  S    
Cr4   O8    S    
C14   H82   S    
Cr11  O26   S    
C86   C95   S    
C93   H117  S    
C19   H28   S    
C63   O29   A    
C58   C80   S    
C17   H26   S    
C68   H96   S    
C14   C18   S    
C12   C110  S    
C106  C115  S    
C35   H43   S    
Cr5   O37   S    
C102  H21   S    
C51   H71   S    
C23   H32   S    
C85   C94   S    
C99   H42   S    
C43   H73   S    
C108  C117  S    
C2    C22   S    
C38   H119  S    
C96   C97   S    
Cr9   O24   S    
C26   C35   S    
C26   C61   S    
C88   H41   S    
C40   H51   S    
Cr2   O28   S    
C108  H20   S    
C43   H61   S    
C29   C34   S    
C47   C56   S    
C98   H6    S    
Cr3   O3    S    
C70   H99   S    
Cr4   O4    S    
C29   C64   S    
C43   C52   S    
C102  C105  S    
C94   H123  S    
Cr6   O38   S    
Cr7   O43   S    
C102  C115  S    
C78   C95   S    
Cr8   O44   S    
C104  C117  S    
C87   H134  S    
C1    O14   A    
C21   H130  S    
C119  O46   A    
C104  H23   S    
C41   C42   S    
C61   O27   A    
C62   O28   A    
C8    O36   A    
Cr4   O35   S    
C75   H109  S    
C24   C25   S    
C90   H105  S    
Cr11  O21   S    
C27   C36   S    
C64   O26   A    
C84   C89   S    
C74   C79   S    
C103  H25   S    
C112  O23   A    
C50   H70   S    
C82   C118  S    
Cr10  O25   S    
C105  H17   S    
C65   C83   S    
C8    O5    A    
C51   C56   S    
C65   H90   S    
C37   H45   S    
Cr1   O40   S    
C59   H88   S    
C60   C82   S    
C41   H57   S    
Cr8   O45   S    
C41   C54   S    
C46   C54   S    
C105  H16   S    
C106  H15   S    
C57   C79   S    
C49   C53   S    
C78   C82   S    
C48   H68   S    
C70   C87   S    
Cr2   O32   S    
C76   C81   S    
C44   O16   A    
C111  O12   A    
C33   O15   A    
C45   C48   S    
Cr10  O11   S    
Cr12  O5    S    
C27   C31   S    
Cr12  O52   S    
C96   C114  S    
C92   H116  S    
C50   H65   S    
C107  H14   S    
C109  O1    A    
C98   C116  S    
C104  H9    S    
C74   H107  S    
C76   C94   S    
C3    O48   A    
Cr6   O11   S    
C22   H2    S    
C23   C32   S    
C17   C26   S    
C49   H66   S    
C91   H137  S    
C100  H3    S    
Cr6   O23   S    
C19   C28   S    
C47   C50   S    
C4    O45   A    
C47   H74   S    
Cr1   O1    S    
C55   C110  S    
Cr2   O6    S    
C52   C111  S    
C9    O37   A    
C57   H85   S    
C91   H106  S    
C59   C68   S    
C68   H92   S    
Cr6   O16   S    
Cr10  O50   S    
Br3   C88   S    
C59   H79   S    
C103  H8    S    
Cr5   O41   S    
C27   C62   S    
C14   H53   S    
C18   H27   S    
C73   H128  S    
C12   H1    S    
C7    C86   S    
C66   C110  S    
C31   H46   S    
C2    C44   S    
C78   H111  S    
Cr5   O10   S    
C47   H60   S    
Cr3   O29   S    
Br4   C99   S    
C19   H132  S    
C16   H75   S    
Cr3   O7    S    
Cr10  O47   S    
C96   H4    S    
C109  O31   A    
C55   O21   A    
C97   H5    S    
Cr6   O42   S    
Cr7   O39   S    
C58   C67   S    
C49   H69   S    
C32   H48   S    
C66   H39   S    
C61   O22   A    
Cr1   O14   S    
C30   H34   S    
C17   H129  S    
C71   H126  S    
C39   H55   S    
C23   H13   S    
C16   H84   S    
C13   C88   S    
C42   H54   S    
C45   H62   S    
Cr11  O51   S    
C2    C14   S    
Cr7   O34   S    
C18   C27   S    
C97   C115  S    
C16   C20   S    
C78   H115  S    
C100  C117  S    
C39   H50   S    
C73   C91   S    
C108  H12   S    
C107  C116  S    
C106  H18   S    
C1    C24   S    
C55   O17   A    
C28   C37   S    
C83   C92   S    
C12   H81   S    
C13   C33   S    
C58   H87   S    
Cr1   O36   S    
C98   C100  S    
Cr4   O13   S    
C72   H127  S    
C5    O49   A    
C73   C82   S    
C7    O51   A    
C15   H83   S    
C94   H118  S    
C50   C54   S    
C57   C65   S    
C113  O34   A    
C67   H91   S    
C36   C77   S    
C60   H80   S    
Cr5   O12   S    
C41   H52   S    
C38   H47   S    
C80   C120  S    
C34   H49   S    
C118  O40   A    
C46   C51   S    
C4    C83   S    
C120  O42   A    
C65   H94   S    
C68   C85   S    
Cr12  O31   S    
C95   H124  S    
C13   C15   S    
C35   C66   S    
Cr8   O18   S    
Cr9   O19   S    
C101  C114  S    
C4    O52   A    
C39   C52   S    
C37   C88   S    
Cr5   O15   S    
C87   H103  S    
C97   H139  S    
C98   H140  S    
C48   C52   S    
