data_mof_unit_14748.cif
_audit_creation_date              2012-12-10T17:22:53-0500
_audit_creation_method            fapswitch 2.2
_symmetry_space_group_name_H-M    P1
_symmetry_Int_Tables_number       1
_space_group_crystal_system       triclinic
_cell_length_a                    10.136694
_cell_length_b                    10.50735
_cell_length_c                    10.808606
_cell_angle_alpha                 90.162458
_cell_angle_beta                  95.501629
_cell_angle_gamma                 81.186834
_cell_volume                      1132.3073706

loop_
_atom_site_label
_atom_site_type_symbol
_atom_type_description
_atom_site_fract_x
_atom_site_fract_y
_atom_site_fract_z
_atom_type_partial_charge
C1    C     C_R   0.443781 0.512333 0.267314 0.944585
C2    C     C_R   0.556256 0.494630 0.732687 0.947836
C3    C     C_R   0.499767 0.257529 0.499261 0.875283
C4    C     C_R   0.500287 0.742490 0.500875 0.869325
C5    C     C_3   0.619176 0.023513 0.466477 -0.201593
C6    C     C_3   0.380827 0.976608 0.533384 -0.201169
C7    C     C_3   0.518922 0.953417 0.385406 -0.232386
C8    C     C_3   0.481119 0.046677 0.614458 -0.232938
C9    C     C_3   0.500021 0.877376 0.501499 -0.019899
C10   C     C_3   0.500042 0.122662 0.498464 -0.021967
C11   C     C_3   0.598966 0.945519 0.581769 0.054344
C12   C     C_3   0.401118 0.054598 0.418101 0.054500
C13   C     C_2   0.412033 0.531868 0.135289 -0.383435
C14   C     C_2   0.588232 0.502086 0.864888 -0.385126
C15   C     C_2   0.512864 0.538850 0.066286 -0.160852
C16   C     C_2   0.488603 0.543544 0.933974 -0.170965
C17   C     C_2   0.072744 0.489774 0.489504 -0.128951
C18   C     C_2   0.927238 0.510297 0.510429 -0.130949
H1    H     H_    0.533360 0.911056 0.292521 0.142650
H2    H     H_    0.466644 0.089030 0.707338 0.142668
H3    H     H_    0.714558 0.047865 0.437569 0.142337
H4    H     H_    0.285330 0.952457 0.562215 0.142062
H5    H     H_    0.385908 0.572885 0.893573 0.187760
H6    H     H_    0.616367 0.531793 0.106570 0.186422
H7    H     H_    0.690662 0.472815 0.905741 0.147310
H8    H     H_    0.308844 0.538777 0.094483 0.145740
H9    H     H_    0.891196 0.579418 0.579027 0.181293
H10   H     H_    0.108775 0.420705 0.420861 0.181528
H11   H     H_    0.880019 0.383156 0.384262 0.160801
H12   H     H_    0.120004 0.616762 0.615810 0.159498
N1    N     N_2   0.157310 0.552180 0.551120 -0.199001
N2    N     N_2   0.842690 0.447820 0.448880 -0.199438
O1    O     O_R   0.568940 0.489500 0.307530 -0.617771
O2    O     O_R   0.431060 0.510500 0.692470 -0.616901
O3    O     O_R   0.348880 0.522990 0.340350 -0.605548
O4    O     O_R   0.651120 0.477010 0.659650 -0.606024
O5    O     O_R   0.610000 0.297210 0.483560 -0.623278
O6    O     O_R   0.390000 0.702790 0.516440 -0.626110
O7    O     O_R   0.389940 0.330700 0.516390 -0.608756
O8    O     O_R   0.610060 0.669300 0.483610 -0.612120
Zn1   Zn    Zn3+2 0.646930 0.477640 0.478080 0.935373
Zn2   Zn    Zn3+2 0.353070 0.522360 0.521920 0.935929
C19   C     C_R   0.706371 0.879669 0.676177 0.121276
C20   C     C_R   0.842809 0.879908 0.662602 -0.143289
C21   C     C_R   0.941292 0.819101 0.751674 -0.167527
C22   C     C_R   0.904432 0.757727 0.854654 -0.119605
C23   C     C_R   0.768952 0.757290 0.868869 -0.127406
C24   C     C_R   0.670137 0.817527 0.779767 -0.155745
H13   H     H_    0.873585 0.926701 0.583559 0.117263
H14   H     H_    0.046257 0.819805 0.740965 0.123678
H15   H     H_    0.980808 0.710846 0.923576 0.122700
H16   H     H_    0.740539 0.710524 0.949142 0.132961
H17   H     H_    0.565460 0.816179 0.791666 0.121325
C25   C     C_R   0.294326 0.121843 0.323952 0.122853
C26   C     C_R   0.331280 0.189210 0.223987 -0.154953
C27   C     C_R   0.233091 0.252912 0.136342 -0.131483
C28   C     C_R   0.097482 0.250011 0.147996 -0.118197
C29   C     C_R   0.059926 0.182947 0.247067 -0.168095
C30   C     C_R   0.157815 0.119123 0.334958 -0.144081
H18   H     H_    0.436042 0.192597 0.214189 0.118320
H19   H     H_    0.262139 0.304380 0.059294 0.131347
H20   H     H_    0.021546 0.299489 0.080168 0.123452
H21   H     H_    0.954871 0.180438 0.255817 0.125609
H22   H     H_    0.126565 0.068193 0.411162 0.117530

loop_
_geom_bond_atom_site_label_1
_geom_bond_atom_site_label_2
_ccdc_geom_bond_type
C20   H13   S    
C21   C22   A    
C19   C20   A    
C11   C19   S    
C23   H16   S    
N1    Zn2   S    
C16   H5    S    
C19   C24   A    
C7    H1    S    
C23   C24   A    
O2    Zn2   S    
N2    Zn1   S    
O1    Zn1   S    
C2    O2    A    
C26   C27   A    
C17   C18   S    
C30   H22   S    
C3    O7    A    
C28   H20   S    
C27   H19   S    
C3    C10   S    
C8    H2    S    
C26   H18   S    
C20   C21   A    
C6    C12   S    
C9    C11   S    
C3    O5    A    
O4    Zn1   S    
H12   N1    S    
C10   C12   S    
C21   H14   S    
C6    C9    S    
C8    C11   S    
C2    C14   S    
C15   H6    S    
C4    O6    A    
C5    C11   S    
O7    Zn2   S    
C28   C29   A    
C25   C30   A    
C13   C15   D    
C14   H7    S    
O5    Zn1   S    
C24   H17   S    
C17   N1    D    
C14   C16   D    
C7    C12   S    
C29   C30   A    
C18   N2    D    
C13   H8    S    
C1    O1    A    
C15   C16   S    
C6    H4    S    
O6    Zn2   S    
C7    C9    S    
C5    C10   S    
C1    C13   S    
C27   C28   A    
C1    O3    A    
C8    C10   S    
C2    O4    A    
C29   H21   S    
C5    C7    S    
O3    Zn2   S    
C25   C26   A    
O8    Zn1   S    
C6    C8    S    
H11   N2    S    
C4    C9    S    
C22   C23   A    
C17   H10   S    
C22   H15   S    
C12   C25   S    
C18   H9    S    
C4    O8    A    
C5    H3    S    
