data_mof_unit_24524.cif
_audit_creation_date              2012-12-11T19:41:54-0500
_audit_creation_method            fapswitch 2.2
_symmetry_space_group_name_H-M    P1
_symmetry_Int_Tables_number       1
_space_group_crystal_system       triclinic
_cell_length_a                    8.296145
_cell_length_b                    15.178253
_cell_length_c                    26.832918
_cell_angle_alpha                 98.4934
_cell_angle_beta                  93.699512
_cell_angle_gamma                 80.154048
_cell_volume                      3289.87645579

loop_
_atom_site_label
_atom_site_type_symbol
_atom_type_description
_atom_site_fract_x
_atom_site_fract_y
_atom_site_fract_z
_atom_type_partial_charge
Ba1   Ba    Ba6+2 0.860050 0.456430 0.522530 1.794874
Ba2   Ba    Ba6+2 0.329780 0.543490 0.477460 1.239654
C1    C     C_3   0.831876 0.219271 0.726918 -0.316905
C2    C     C_3   0.796862 0.244087 0.673745 0.256966
C3    C     C_3   0.520720 0.710448 0.636803 0.687248
C4    C     C_3   0.642864 0.712110 0.681763 -0.288656
C5    C     C_3   0.949532 0.789776 0.341733 0.218931
C6    C     C_3   0.985662 0.808502 0.289337 0.175393
C7    C     C_3   0.495419 0.782002 0.363215 0.394097
C8    C     C_3   0.485903 0.862992 0.335083 0.288916
C9    C     C_R   0.026061 0.428318 0.175630 0.651721
C10   C     C_R   0.884840 0.579881 0.176458 0.560943
C11   C     C_2   0.744165 0.548342 0.270894 -0.036392
C12   C     C_3   0.282849 0.218699 0.651355 0.630239
C13   C     C_3   0.725243 0.583366 0.326251 -0.008832
C14   C     C_1   0.983806 0.485066 0.342131 0.040732
C15   C     C_2   0.022707 0.479050 0.293945 -0.088962
C16   C     C_2   0.894796 0.509159 0.254464 0.192813
C17   C     C_R   0.024147 0.503861 0.100736 -0.081928
C18   C     C_R   0.071765 0.426905 0.125189 -0.059531
C19   C     C_R   0.160251 0.349490 0.098045 0.009715
C20   C     C_R   0.928229 0.580175 0.126491 0.012896
C21   C     C_2   0.845925 0.532665 0.360298 -0.271595
C22   C     C_2   0.371411 0.504712 0.641681 -0.201475
C23   C     C_3   0.375781 0.134262 0.670945 -0.279777
C24   C     C_R   0.235100 0.433592 0.976841 0.035440
C25   C     C_R   0.045140 0.576793 0.973219 0.038723
C26   C     C_R   0.158945 0.504336 0.949483 0.038160
C27   C     C_R   0.368606 0.371419 0.954135 -0.050245
C28   C     C_R   0.398804 0.369202 0.903008 -0.127882
C29   C     C_R   0.314920 0.434412 0.874515 -0.012581
C30   C     C_R   0.198596 0.503718 0.898213 -0.063654
C31   C     C_R   0.122581 0.572969 0.870742 -0.041971
C32   C     C_R   0.164735 0.572597 0.820412 0.577151
C33   C     C_R   0.351394 0.434144 0.823457 0.594475
C34   C     C_3   0.184556 0.256819 0.407013 0.296339
C35   C     C_2   0.475741 0.494532 0.731064 -0.047002
C36   C     C_3   0.518172 0.501708 0.677489 -0.067309
C37   C     C_1   0.221402 0.527533 0.658197 0.082270
C38   C     C_2   0.184487 0.520193 0.704567 -0.025295
C39   C     C_2   0.317696 0.504327 0.744519 0.285088
C40   C     C_R   0.175267 0.429058 0.025410 0.038704
C41   C     C_R   0.070945 0.504413 0.050282 0.061158
C42   C     C_R   0.011115 0.579973 0.024970 0.003162
C43   C     C_R   0.207780 0.350039 0.048978 -0.040558
C44   C     C_R   0.878140 0.656361 0.102006 -0.006475
C45   C     C_3   0.143530 0.164484 0.385386 0.162940
C46   C     C_R   0.967966 0.643744 0.944093 -0.075781
C47   C     C_R   0.006343 0.641938 0.894204 -0.068971
C48   C     C_R   0.917936 0.656284 0.052435 -0.086641
C49   C     C_R   0.831670 0.828292 0.456395 -0.013373
C50   C     C_R   0.765278 0.921722 0.461073 -0.042861
C51   C     C_R   0.637175 0.110313 0.475773 -0.083292
C52   C     C_R   0.773618 0.075464 0.446181 0.052617
C53   C     C_R   0.839100 0.983475 0.440115 -0.104092
C54   C     C_R   0.579115 0.204711 0.486613 0.063183
C55   C     C_R   0.444147 0.234663 0.517161 0.128470
C56   C     C_3   0.974012 0.729795 0.579703 0.419997
C57   C     C_R   0.604607 0.800820 0.502114 0.076463
C58   C     C_R   0.540148 0.893718 0.508566 -0.056056
C59   C     C_R   0.619928 0.954440 0.487828 0.062232
C60   C     C_R   0.399851 0.927898 0.536459 -0.018669
C61   C     C_R   0.336764 0.018884 0.542983 -0.031846
C62   C     C_R   0.415016 0.080688 0.523873 0.025751
C63   C     C_R   0.557968 0.048627 0.496014 0.107897
C64   C     C_R   0.353224 0.173730 0.531766 0.023548
C65   C     C_R   0.745503 0.769033 0.474840 -0.228887
C66   C     C_3   0.932173 0.832076 0.592527 -0.320103
C67   C     C_3   0.699510 0.342823 0.371783 0.340434
C68   C     C_3   0.701014 0.321109 0.314517 0.268390
H1    H     H_    0.904582 0.269513 0.663360 0.137780
H2    H     H_    0.222581 0.134781 0.353263 0.185048
H3    H     H_    0.013552 0.171437 0.371497 0.073998
H4    H     H_    0.865336 0.702130 0.562878 -0.061246
H5    H     H_    0.071792 0.713931 0.552104 0.079308
H6    H     H_    0.829271 0.850268 0.618558 0.131788
H7    H     H_    0.896975 0.863712 0.558016 0.036281
H8    H     H_    0.040131 0.859806 0.610846 0.162180
H9    H     H_    0.822563 0.355354 0.386208 -0.107607
H10   H     H_    0.608116 0.404472 0.382007 0.068362
H11   H     H_    0.947461 0.170228 0.728509 0.095081
H12   H     H_    0.739469 0.376850 0.298395 -0.026638
H13   H     H_    0.788920 0.258355 0.303483 0.092516
H14   H     H_    0.730038 0.189299 0.738847 0.118255
H15   H     H_    0.524089 0.639745 0.618590 -0.046890
H16   H     H_    0.638025 0.782126 0.701576 0.148214
H17   H     H_    0.614941 0.668638 0.708812 0.069830
H18   H     H_    0.768597 0.687739 0.669227 0.117880
H19   H     H_    0.845633 0.280879 0.753791 0.166364
H20   H     H_    0.477863 0.151774 0.697232 0.127495
H21   H     H_    0.910932 0.722516 0.338756 0.006664
H22   H     H_    0.848474 0.842906 0.356346 0.034338
H23   H     H_    0.037657 0.871554 0.292983 0.187505
H24   H     H_    0.627883 0.758142 0.370726 -1.332753
H25   H     H_    0.436696 0.803383 0.400079 0.124752
H26   H     H_    0.577828 0.905343 0.351525 0.060775
H27   H     H_    0.508729 0.839748 0.294684 0.193350
H28   H     H_    0.147807 0.454056 0.283146 0.179670
H29   H     H_    0.192293 0.287523 0.114539 0.147050
H30   H     H_    0.574826 0.486730 0.759340 0.085484
H31   H     H_    0.497547 0.319538 0.886294 0.122385
H32   H     H_    0.266274 0.286558 0.029332 0.080102
H33   H     H_    0.644581 0.568299 0.244527 0.154588
H34   H     H_    0.806595 0.716944 0.121129 0.171355
H35   H     H_    0.873676 0.697844 0.958475 0.078705
H36   H     H_    0.368292 0.249122 0.631391 0.065703
H37   H     H_    0.943536 0.695330 0.873906 0.132553
H38   H     H_    0.057522 0.526954 0.714072 0.116187
H39   H     H_    0.876973 0.718346 0.037035 0.087817
H40   H     H_    0.834126 0.552806 0.400585 0.102641
H41   H     H_    0.395897 0.507244 0.602815 0.125619
H42   H     H_    0.833001 0.118965 0.427897 0.136455
H43   H     H_    0.946948 0.961068 0.418184 0.187679
H44   H     H_    0.227702 0.039828 0.564440 0.089868
H45   H     H_    0.334914 0.885461 0.553781 0.131485
H46   H     H_    0.292515 0.102918 0.691150 0.128479
H47   H     H_    0.796530 0.698019 0.471939 0.064132
H48   H     H_    0.427804 0.084397 0.639286 0.078133
H49   H     H_    0.315255 0.250022 0.419624 0.000558
H50   H     H_    0.106959 0.285851 0.439364 0.079781
N1    N     N_R   0.934870 0.505009 0.201330 -0.425896
N2    N     N_R   0.277300 0.503255 0.796850 -0.418292
O1    O     O_2   0.906480 0.548660 0.619050 -0.488101
O2    O     O_3   0.660537 0.268786 0.391277 -0.619403
O3    O     O_3   0.144455 0.196378 0.622017 -0.653822
O4    O     O_2   0.283210 0.451310 0.380920 -0.400041
O5    O     O_3   0.051220 0.451340 0.441120 -0.474262
O6    O     O_3   0.503410 0.617620 0.414290 -0.448358
O7    O     O_3   0.158884 0.308171 0.367353 -0.619027
O8    O     O_3   0.617150 0.609960 0.527100 -0.452919
O9    O     O_3   0.088210 0.664420 0.439670 -0.451234
O10   O     O_2   0.169395 0.824302 0.469457 -0.438532
O11   O     O_3   0.089646 0.793298 0.373847 -0.525034
O12   O     O_3   0.138490 0.548590 0.558870 -0.452435
O13   O     O_3   0.572560 0.389960 0.472890 -0.405000
O14   O     O_2   0.345660 0.723580 0.528500 -0.452364
O15   O     O_3   0.558603 0.767637 0.604320 -0.648718
O16   O     O_2   0.399566 0.542651 0.323759 -0.446585
O17   O     O_3   0.416174 0.715247 0.334140 -0.528879
O18   O     O_2   0.066052 0.360866 0.196253 -0.537039
O19   O     O_2   0.448557 0.371951 0.802706 -0.544759
O20   O     O_2   0.803090 0.647501 0.198020 -0.521028
O21   O     O_2   0.102830 0.635156 0.797867 -0.575226
O22   O     O_3   0.686300 0.382310 0.585700 -0.388745
O23   O     O_2   0.851920 0.425201 0.672258 -0.492840
O24   O     O_3   0.025666 0.693702 0.624174 -0.588230
O25   O     O_3   0.650569 0.307355 0.673431 -0.577119
O26   O     O_2   0.844040 0.276390 0.471470 -0.468190
O27   O     O_3   0.101510 0.335500 0.560330 -0.385740
O28   O     O_2   0.010772 0.176048 0.531370 -0.439979
P1    P     P_3+3 0.071950 0.575820 0.612140 1.057413
P2    P     P_3+3 0.664370 0.290050 0.457240 1.079182
P3    P     P_3+3 0.152066 0.219074 0.560219 1.018329
P4    P     P_3+3 0.117760 0.424110 0.387850 1.043681
P5    P     P_3+3 0.041596 0.779701 0.434591 1.019024
P6    P     P_3+3 0.679601 0.407345 0.651775 1.062847
P7    P     P_3+3 0.533463 0.724536 0.540257 0.982005
P8    P     P_3+3 0.511334 0.609768 0.348902 1.053406
Cl1   Cl    Cl    0.174225 0.089794 0.430938 -0.710523
Cl2   Cl    Cl    0.502039 0.306767 0.288776 -0.545309
C69   C     C_2   0.782209 0.160884 0.636814 0.504178
H51   H     H_    0.875714 0.101375 0.636974 -0.005985
O29   O     O_2   0.668849 0.159745 0.605631 -0.615293
Cl3   Cl    Cl    0.325126 0.755665 0.660812 -0.711747
C70   C     C_2   0.100867 0.731635 0.262557 0.735459
H52   H     H_    0.079259 0.662810 0.261012 -0.037642
O30   O     O_2   0.219541 0.745912 0.242266 -0.505255
Cl4   Cl    Cl    0.802258 0.829278 0.251914 -0.612248
Cl5   Cl    Cl    0.292177 0.932449 0.339708 -0.584029
Cl6   Cl    Cl    0.215090 0.298924 0.704050 -0.697997
C71   C     C_2   0.497848 0.317728 0.983098 0.477952
H53   H     H_    0.562719 0.253777 0.965242 0.002049
O31   O     O_2   0.540558 0.347002 0.025882 -0.551780
Cl7   Cl    Cl    0.393902 0.349547 0.540234 -0.669108

loop_
_geom_bond_atom_site_label_1
_geom_bond_atom_site_label_2
_ccdc_geom_bond_type
C25   C46   A    
C71   H53   S    
C70   H52   S    
C37   P1    S    
C57   P7    S    
C17   C18   A    
C36   P6    S    
C55   C64   A    
C12   Cl6   S    
C23   H48   S    
O10   P5    D    
C69   H51   S    
O6    P8    S    
C5    C6    S    
C47   H37   S    
C45   Cl1   S    
C51   C52   A    
C8    Cl5   S    
C71   O31   D    
C56   H4    S    
C23   H20   S    
Ba2   O12   S    
C12   O3    S    
C11   C16   D    
C34   C45   S    
O8    P7    S    
C35   C36   S    
C5    O11   S    
C50   C59   A    
C3    C4    S    
C19   H29   S    
C5    H22   S    
C31   C47   A    
O13   P2    S    
C10   C20   A    
C22   C37   D    
C4    H18   S    
C54   C55   A    
Ba1   P2    S    
C58   C60   A    
Ba1   Ba2   S    
C34   H49   S    
O27   P3    S    
C6    Cl4   S    
C57   C65   A    
C61   H44   S    
C25   C42   A    
C10   N1    Am   
C29   C30   A    
O17   P8    S    
O3    P3    S    
C14   C15   D    
O28   P3    D    
C1    H11   S    
C22   C36   S    
Ba1   O27   S    
C11   H33   S    
C51   C63   A    
C7    C8    S    
C7    H25   S    
C50   C53   A    
C38   H38   S    
C3    H15   S    
Ba2   O5    S    
C13   C21   S    
O2    P2    S    
C57   C58   A    
C70   O30   D    
O23   P6    D    
C9    N1    Am   
C22   H41   S    
C68   H12   S    
O5    P4    S    
C69   O29   D    
C17   C41   A    
C56   H5    S    
Ba2   O9    S    
C19   C43   A    
C66   H8    S    
C32   O21   D    
O1    P1    D    
C9    C18   A    
C49   C50   A    
C3    Cl3   S    
O26   P2    D    
C26   C30   A    
C17   C20   A    
C45   H3    S    
C13   P8    S    
Ba1   O8    S    
C43   H32   S    
C23   H46   S    
C34   O7    S    
C37   C38   D    
C53   H43   S    
C67   O2    S    
C2    O25   S    
C44   H34   S    
C48   H39   S    
Ba2   O14   S    
C4    H17   S    
C61   C62   A    
C58   C59   A    
C40   C43   A    
C62   C64   A    
C39   N2    S    
O22   P6    S    
C8    H27   S    
C9    O18   D    
Ba1   O1    S    
C27   C28   A    
C68   H13   S    
O16   P8    D    
C46   H35   S    
C10   O20   D    
C8    H26   S    
C28   C29   A    
C5    H21   S    
C60   C61   A    
C15   C16   S    
C52   H42   S    
C49   C65   A    
C27   C71   S    
O25   P6    S    
C65   H47   S    
C33   O19   D    
O14   P7    D    
O4    P4    D    
C56   C66   S    
C46   C47   A    
C20   C44   A    
C14   C21   D    
C11   C13   S    
C41   C42   A    
C14   P4    S    
C29   C33   A    
C67   H9    S    
C54   P2    S    
C40   C41   A    
Ba1   O12   S    
Ba2   O4    S    
C25   C26   A    
C24   C40   A    
C15   H28   S    
C51   C54   A    
C42   C48   A    
C66   H7    S    
C21   H40   S    
C52   C53   A    
C38   C39   S    
O11   P5    S    
C33   N2    Am   
C6    H23   S    
Ba1   O5    S    
C67   H10   S    
C64   P3    S    
C56   O24   S    
C3    O15   S    
C66   H6    S    
C44   C48   A    
C24   C26   A    
Ba2   O13   S    
C4    H16   S    
O15   P7    S    
C1    H19   S    
C62   C63   A    
O9    P5    S    
C60   H45   S    
Ba1   O22   S    
C49   P5    S    
C30   C31   A    
C7    O17   S    
O7    P4    S    
O12   P1    S    
C28   H31   S    
Ba2   O8    S    
C31   C32   A    
Ba1   P1    S    
C68   Cl2   S    
C35   H30   S    
C12   C23   S    
C35   C39   D    
C67   C68   S    
C34   H50   S    
C45   H2    S    
C6    C70   S    
C16   N1    S    
O24   P1    S    
C59   C63   A    
C12   H36   S    
C18   C19   A    
C24   C27   A    
C32   N2    Am   
Ba2   P4    S    
C1    H14   S    
C2    C69   S    
Ba1   O26   S    
Ba1   O13   S    
C7    H24   S    
C2    H1    S    
C1    C2    S    
C55   Cl7   S    
Ba2   O6    S    
