data_mof_unit_46291.cif
_audit_creation_date              2013-03-05T16:00:03-0500
_audit_creation_method            fapswitch 2.2
_symmetry_space_group_name_H-M    P1
_symmetry_Int_Tables_number       1
_space_group_crystal_system       triclinic
_cell_length_a                    20.785746
_cell_length_b                    21.125749
_cell_length_c                    14.70584
_cell_angle_alpha                 90.001988
_cell_angle_beta                  127.963125
_cell_angle_gamma                 89.999755
_cell_volume                      5091.17402584

loop_
_atom_site_label
_atom_site_type_symbol
_atom_site_description
_atom_site_fract_x
_atom_site_fract_y
_atom_site_fract_z
_atom_type_partial_charge
O1    O     O_R   0.600040 0.935040 0.546740 -0.588045
O2    O     O_R   0.399960 0.064960 0.453260 -0.576574
O3    O     O_R   0.399960 0.935040 0.453260 -0.588031
O4    O     O_R   0.600040 0.064960 0.546740 -0.576567
O5    O     O_R   0.100040 0.435040 0.546740 -0.588001
O6    O     O_R   0.899960 0.564960 0.453260 -0.576600
O7    O     O_R   0.899960 0.435040 0.453260 -0.587944
O8    O     O_R   0.100040 0.564960 0.546740 -0.576603
O9    O     O_R   0.555010 0.935070 0.653220 -0.591348
O10   O     O_R   0.444990 0.064930 0.346780 -0.589640
O11   O     O_R   0.444990 0.935070 0.346780 -0.591337
O12   O     O_R   0.555010 0.064930 0.653220 -0.589636
O13   O     O_R   0.055010 0.435070 0.653220 -0.591361
O14   O     O_R   0.944990 0.564930 0.346780 -0.589613
O15   O     O_R   0.944990 0.435070 0.346780 -0.591423
O16   O     O_R   0.055010 0.564930 0.653220 -0.589628
C1    C     C_R   0.601975 0.912822 0.630427 0.826817
C2    C     C_R   0.395496 0.085057 0.366327 0.841978
C3    C     C_R   0.398031 0.912816 0.369578 0.826820
C4    C     C_R   0.604507 0.085055 0.633678 0.841970
C5    C     C_R   0.101969 0.412816 0.630421 0.826814
C6    C     C_R   0.895502 0.585061 0.366335 0.841980
C7    C     C_R   0.898031 0.412815 0.369578 0.826694
C8    C     C_R   0.104505 0.585056 0.633675 0.841975
Cu1   Cu    Cu3+1 0.526640 0.000000 0.436960 0.960648
Cu2   Cu    Cu3+1 0.473360 0.000000 0.563040 0.960647
Cu3   Cu    Cu3+1 0.026640 0.500000 0.436960 0.960618
Cu4   Cu    Cu3+1 0.973360 0.500000 0.563040 0.960654
C9    C     C_R   0.670708 0.128286 0.716996 -0.121931
C10   C     C_R   0.344944 0.858610 0.302985 -0.122102
C11   C     C_R   0.329310 0.128300 0.283031 -0.121938
C12   C     C_R   0.655095 0.858641 0.697053 -0.122086
C13   C     C_R   0.170697 0.628297 0.716975 -0.121935
C14   C     C_R   0.844944 0.358608 0.302986 -0.122158
C15   C     C_R   0.829325 0.628312 0.283051 -0.121909
C16   C     C_R   0.155064 0.358616 0.697024 -0.122105
C17   C     C_R   0.795868 0.184754 0.789723 0.353160
C18   C     C_R   0.245255 0.779648 0.262326 0.345717
C19   C     C_R   0.204184 0.184803 0.210354 0.353194
C20   C     C_R   0.754904 0.779765 0.737850 0.345719
C21   C     C_R   0.295814 0.684810 0.789636 0.353178
C22   C     C_R   0.745229 0.279665 0.262305 0.345691
C23   C     C_R   0.704160 0.684773 0.210303 0.353182
C24   C     C_R   0.254804 0.279689 0.737744 0.345699
C25   C     C_R   0.730043 0.146946 0.705676 -0.207603
C26   C     C_R   0.294268 0.832036 0.325218 -0.216255
C27   C     C_R   0.269989 0.146975 0.294372 -0.207615
C28   C     C_R   0.705832 0.832113 0.674893 -0.216245
C29   C     C_R   0.230005 0.646982 0.705616 -0.207621
C30   C     C_R   0.794251 0.332049 0.325201 -0.216197
C31   C     C_R   0.769965 0.646949 0.294334 -0.207629
C32   C     C_R   0.205772 0.332063 0.674831 -0.216251
C33   C     C_R   0.677224 0.147333 0.813024 -0.230988
C34   C     C_R   0.347995 0.831891 0.219264 -0.223276
C35   C     C_R   0.322798 0.147353 0.187011 -0.230969
C36   C     C_R   0.652035 0.831911 0.780757 -0.223302
C37   C     C_R   0.177227 0.647335 0.813016 -0.230973
C38   C     C_R   0.848008 0.331875 0.219283 -0.223327
C39   C     C_R   0.822863 0.647407 0.187090 -0.230880
C40   C     C_R   0.151998 0.331888 0.780725 -0.223283
C41   C     C_R   0.743074 0.184063 0.900500 0.053540
C42   C     C_R   0.302411 0.778010 0.157152 0.058999
C43   C     C_R   0.256965 0.184103 0.099560 0.053556
C44   C     C_R   0.697684 0.778069 0.842938 0.058996
C45   C     C_R   0.243062 0.684087 0.900465 0.053553
C46   C     C_R   0.802418 0.277993 0.157178 0.059073
C47   C     C_R   0.757027 0.684144 0.099618 0.053543
C48   C     C_R   0.197613 0.278026 0.842872 0.058993
C49   C     C_R   0.801484 0.204984 0.886354 0.028929
C50   C     C_R   0.249347 0.752103 0.177967 0.027251
C51   C     C_R   0.198573 0.205038 0.113730 0.028989
C52   C     C_R   0.750814 0.752213 0.822204 0.027182
C53   C     C_R   0.301440 0.705036 0.886276 0.028994
C54   C     C_R   0.749329 0.252107 0.177962 0.027235
C55   C     C_R   0.698586 0.705037 0.113722 0.028977
C56   C     C_R   0.250705 0.252139 0.822091 0.027240
C57   C     C_R   0.749483 0.203126 0.998561 0.098774
C58   C     C_R   0.306194 0.750850 0.071876 0.092226
C59   C     C_R   0.250556 0.203168 0.001500 0.098786
C60   C     C_R   0.693896 0.750897 0.928200 0.092224
C61   C     C_R   0.249483 0.703143 0.998538 0.098790
C62   C     C_R   0.806215 0.250815 0.071926 0.092217
C63   C     C_R   0.750652 0.703229 0.001593 0.098732
C64   C     C_R   0.193832 0.250863 0.928148 0.092221
C65   C     C_R   0.364627 0.769768 0.057315 -0.170095
C66   C     C_R   0.701805 0.175356 0.026537 -0.200134
C67   C     C_R   0.635411 0.769766 0.942691 -0.170040
C68   C     C_R   0.298226 0.175394 0.973512 -0.200103
C69   C     C_R   0.864685 0.269698 0.057419 -0.170200
C70   C     C_R   0.201837 0.675351 0.026549 -0.200101
C71   C     C_R   0.135390 0.269769 0.942699 -0.170086
C72   C     C_R   0.798382 0.675495 0.973675 -0.199833
C73   C     C_R   0.362332 0.747198 0.966841 -0.072291
C74   C     C_R   0.703025 0.198634 0.115750 -0.111853
C75   C     C_R   0.637679 0.747177 0.033129 -0.072294
C76   C     C_R   0.297009 0.198669 0.884304 -0.111823
C77   C     C_R   0.862400 0.247122 0.966955 -0.072458
C78   C     C_R   0.203063 0.698620 0.115772 -0.111804
C79   C     C_R   0.137680 0.247196 0.033164 -0.072303
C80   C     C_R   0.797169 0.698774 0.884472 -0.111689
H1    H     H_    0.407375 0.765182 0.958895 0.195956
H2    H     H_    0.666471 0.174404 0.134323 0.196202
H3    H     H_    0.592592 0.765122 0.041017 0.195996
H4    H     H_    0.333560 0.174437 0.865728 0.196200
H5    H     H_    0.907471 0.265081 0.959047 0.196034
H6    H     H_    0.166534 0.674373 0.134370 0.196192
H7    H     H_    0.092629 0.265171 0.041102 0.195952
H8    H     H_    0.833764 0.674568 0.865947 0.196202
H9    H     H_    0.385801 0.854897 0.202755 0.157476
H10   H     H_    0.628400 0.134565 0.816052 0.168900
H11   H     H_    0.614172 0.854880 0.797198 0.157487
H12   H     H_    0.371613 0.134573 0.183971 0.168892
H13   H     H_    0.885820 0.354872 0.202774 0.157492
H14   H     H_    0.128424 0.634544 0.816074 0.168896
H15   H     H_    0.114154 0.354872 0.797186 0.157474
H16   H     H_    0.871716 0.634664 0.184112 0.168911
H17   H     H_    0.291318 0.852819 0.389930 0.195166
H18   H     H_    0.726319 0.131045 0.632515 0.199499
H19   H     H_    0.708787 0.852906 0.610194 0.195131
H20   H     H_    0.273711 0.131071 0.367527 0.199496
H21   H     H_    0.791292 0.352842 0.389898 0.195181
H22   H     H_    0.226270 0.631087 0.632445 0.199503
H23   H     H_    0.208732 0.352853 0.610136 0.195167
H24   H     H_    0.773653 0.631015 0.367448 0.199451
H25   H     H_    0.414751 0.800904 0.116361 0.147644
H26   H     H_    0.664524 0.134016 0.982945 0.134420
H27   H     H_    0.585264 0.800875 0.883613 0.147664
H28   H     H_    0.335503 0.134053 0.017094 0.134409
H29   H     H_    0.914832 0.300807 0.116509 0.147710
H30   H     H_    0.164573 0.634001 0.982976 0.134406
H31   H     H_    0.085263 0.300900 0.883655 0.147635
H32   H     H_    0.835709 0.634183 0.017304 0.134268
N1    N     N_R   0.433280 0.000000 0.657760 -0.186143
N2    N     N_R   0.566720 0.000000 0.342240 -0.186142
N3    N     N_R   0.933280 0.500000 0.657760 -0.186145
N4    N     N_R   0.066720 0.500000 0.342240 -0.186120
C81   C     C_R   0.322293 0.984921 0.663474 -0.189518
C82   C     C_R   0.677701 0.984890 0.336522 -0.189534
C83   C     C_R   0.822292 0.485049 0.663509 -0.189450
C84   C     C_R   0.177720 0.484949 0.336543 -0.189526
C85   C     C_R   0.352391 0.991830 0.601817 0.095186
C86   C     C_R   0.647606 0.991812 0.398181 0.095191
C87   C     C_R   0.852381 0.491911 0.601831 0.095201
C88   C     C_R   0.147615 0.491867 0.398192 0.095227
C89   C     C_R   0.486469 0.002833 0.775626 0.047270
C90   C     C_R   0.513533 0.002840 0.224375 0.047273
C91   C     C_R   0.986489 0.502799 0.775628 0.047235
C92   C     C_R   0.013525 0.502783 0.224369 0.047165
C93   C     C_R   0.460921 0.989896 0.844427 -0.036215
C94   C     C_R   0.539076 0.989894 0.155570 -0.036217
C95   C     C_R   0.960948 0.489896 0.844446 -0.036263
C96   C     C_R   0.039093 0.489864 0.155585 -0.036230
C97   C     C_R   0.375932 0.983763 0.785178 -0.018323
C98   C     C_R   0.624063 0.983740 0.214817 -0.018342
C99   C     C_R   0.875951 0.483836 0.785210 -0.018358
C100  C     C_R   0.124085 0.483760 0.214841 -0.018279
C101  C     C_R   0.516160 0.983426 0.968519 -0.074882
C102  C     C_R   0.483835 0.983431 0.031476 -0.074885
C103  C     C_R   0.016192 0.483414 0.968541 -0.074816
C104  C     C_R   0.983866 0.483400 0.031497 -0.075013
C105  C     C_R   0.398402 0.971711 0.968553 0.133527
C106  C     C_R   0.601588 0.971685 0.031438 0.133549
C107  C     C_R   0.898440 0.471679 0.968574 0.133376
C108  C     C_R   0.101625 0.471689 0.031471 0.133544
C109  C     C_R   0.345658 0.972778 0.846911 0.321214
C110  C     C_R   0.654332 0.972741 0.153081 0.321190
C111  C     C_R   0.845680 0.472869 0.846946 0.321643
C112  C     C_R   0.154365 0.472770 0.153115 0.321193
H33   H     H_    0.451719 0.015709 0.185548 0.145964
H34   H     H_    0.548286 0.015691 0.814456 0.145956
H35   H     H_    0.951685 0.515585 0.185522 0.146021
H36   H     H_    0.048315 0.515614 0.814439 0.145993
H37   H     H_    0.689017 0.990022 0.491415 0.134247
H38   H     H_    0.310979 0.990046 0.508582 0.134253
H39   H     H_    0.189028 0.490113 0.491429 0.134244
H40   H     H_    0.810953 0.490165 0.508593 0.134225
H41   H     H_    0.257171 0.978694 0.614810 0.206004
H42   H     H_    0.742820 0.978646 0.385185 0.206014
H43   H     H_    0.757160 0.478898 0.614869 0.205940
H44   H     H_    0.242846 0.478747 0.385215 0.206007
N5    N     N_2   0.367378 0.945052 0.023905 -0.431421
H45   H     H_    0.405172 0.916168 0.094127 0.241451
C113  C     C_3   0.301982 0.977112 0.015098 -0.560106
H46   H     H_    0.320255 0.986567 0.102402 0.186920
H47   H     H_    0.247320 0.946151 0.968971 0.277380
H48   H     H_    0.285980 0.022842 0.968464 0.233379
N6    N     N_2   0.632602 0.945023 0.976073 -0.431404
H49   H     H_    0.594800 0.916145 0.905841 0.241461
C114  C     C_3   0.698013 0.977070 0.984901 -0.560081
H50   H     H_    0.679736 0.986548 0.897601 0.186912
H51   H     H_    0.752655 0.946088 0.030985 0.277359
H52   H     H_    0.714051 0.022788 0.031589 0.233393
N7    N     N_2   0.867435 0.444861 0.023843 -0.431372
H53   H     H_    0.905307 0.415986 0.094051 0.241408
C115  C     C_3   0.802161 0.476927 0.015340 -0.560105
H54   H     H_    0.820293 0.485736 0.102773 0.187162
H55   H     H_    0.747186 0.446254 0.968206 0.277906
H56   H     H_    0.786717 0.523013 0.969806 0.232583
N8    N     N_2   0.132650 0.445018 0.976129 -0.431442
H57   H     H_    0.094855 0.416132 0.905908 0.241431
C116  C     C_3   0.198059 0.477064 0.984949 -0.560081
H58   H     H_    0.179791 0.486520 0.897648 0.186895
H59   H     H_    0.252708 0.446091 0.031066 0.277372
H60   H     H_    0.214078 0.522792 0.031598 0.233405
N9    N     N_R   0.356542 0.701231 0.775979 0.109826
O17   O     O_R   0.334448 0.716144 0.674522 -0.298661
O18   O     O_R   0.433231 0.689884 0.858813 -0.344145
N10   N     N_R   0.690523 0.256384 0.283411 0.114476
O19   O     O_R   0.714703 0.252954 0.388577 -0.296309
O20   O     O_R   0.613139 0.250301 0.198289 -0.338152
N11   N     N_R   0.643379 0.701142 0.223878 0.109812
O21   O     O_R   0.665409 0.716027 0.325314 -0.298804
O22   O     O_R   0.566708 0.689769 0.140987 -0.344110
N12   N     N_R   0.309519 0.256411 0.716652 0.114475
O23   O     O_R   0.285347 0.252976 0.611490 -0.296312
O24   O     O_R   0.386901 0.250334 0.801782 -0.338155
N13   N     N_R   0.856622 0.201147 0.776106 0.109820
O25   O     O_R   0.834558 0.216064 0.674665 -0.298707
O26   O     O_R   0.933300 0.189770 0.858953 -0.344109
N14   N     N_R   0.190569 0.756348 0.283455 0.114477
O27   O     O_R   0.214762 0.752920 0.388628 -0.296285
O28   O     O_R   0.113187 0.750242 0.198347 -0.338194
N15   N     N_R   0.143446 0.201213 0.223993 0.109818
O29   O     O_R   0.165525 0.216126 0.325445 -0.298717
O30   O     O_R   0.066761 0.189860 0.141146 -0.344192
N16   N     N_R   0.809648 0.756514 0.716794 0.114468
O31   O     O_R   0.785485 0.753050 0.611638 -0.296386
O32   O     O_R   0.887036 0.750494 0.801935 -0.338123
N17   N     N_R   0.261033 0.957626 0.785598 0.125458
O33   O     O_R   0.239015 0.899496 0.782313 -0.315503
O34   O     O_R   0.206043 0.001928 0.733138 -0.344132
N18   N     N_R   0.738949 0.957561 0.214389 0.125465
O35   O     O_R   0.760927 0.899430 0.217565 -0.315542
O36   O     O_R   0.793969 0.001841 0.266907 -0.344125
N19   N     N_R   0.761022 0.457854 0.785634 0.125359
O37   O     O_R   0.738810 0.399700 0.781661 -0.315550
O38   O     O_R   0.706183 0.502286 0.733662 -0.344054
N20   N     N_R   0.238992 0.457624 0.214439 0.125453
O39   O     O_R   0.261016 0.399494 0.217742 -0.315492
O40   O     O_R   0.293977 0.501931 0.266888 -0.344155

loop_
_geom_bond_atom_site_label_1
_geom_bond_atom_site_label_2
_geom_bond_distance
_ccdc_geom_bond_type
C33   H10   1.077142 S    
C25   H18   1.083455 S    
C109  N17   1.434653 S    
C95   C99   1.415287 A    
C96   C104  1.445385 A    
C47   C63   1.422385 A    
C101  C102  1.440137 A    
O8    C8    1.295094 A    
C17   C49   1.418274 A    
C35   H12   1.077130 S    
C66   H26   1.078411 S    
Cu4   N3    2.015448 S    
N19   O38   1.301057 A    
C116  H58   1.110205 S    
C54   C74   1.398601 A    
C65   H25   1.076613 S    
N15   O29   1.301277 A    
C17   N13   1.437314 S    
C23   C31   1.398913 A    
N14   O28   1.301330 A    
O4    Cu1   1.945975 S    
C116  H59   1.109346 S    
C12   C28   1.398313 A    
C55   C75   1.397864 A    
C5    C16   1.469191 S    
C43   C59   1.422391 A    
N5    H45   1.028505 S    
C111  N19   1.434576 S    
C6    C15   1.467774 S    
C10   C34   1.390864 A    
O11   C3    1.299536 A    
C62   C69   1.414466 A    
C105  C109  1.410531 A    
C24   N12   1.437175 S    
Cu3   N4    2.015447 S    
C72   H32   1.078378 S    
C60   C67   1.414499 A    
C113  H47   1.109345 S    
C103  C104  1.440127 A    
C106  N6    1.428782 S    
N4    C88   1.353409 A    
C32   H23   1.083467 S    
N12   O24   1.301337 A    
C71   H31   1.076589 S    
C100  C112  1.406014 A    
C13   C29   1.398856 A    
C46   C54   1.423090 A    
C67   H27   1.076605 S    
C92   H35   1.071589 S    
C45   C53   1.422448 A    
C42   C50   1.423085 A    
C15   C39   1.392505 A    
C24   C56   1.419386 A    
C93   C97   1.415264 A    
C59   C68   1.413203 A    
C66   C74   1.386620 A    
C102  C105  1.431545 A    
C39   C47   1.401431 A    
C90   C94   1.428792 A    
C83   C87   1.390246 A    
C38   C46   1.401053 A    
O6    Cu4   1.946046 S    
C96   C100  1.415248 A    
C99   C111  1.405951 A    
N10   O19   1.301308 A    
N7    C115  1.451419 S    
C35   C43   1.401456 A    
C38   H13   1.071214 S    
C13   C37   1.392509 A    
N19   O37   1.301043 A    
C36   C44   1.401021 A    
O13   Cu4   1.936917 S    
C22   N10   1.437170 S    
C64   C71   1.414479 A    
C53   C73   1.397872 A    
O14   Cu3   1.936916 S    
C86   H37   1.081778 S    
C23   N11   1.437313 S    
C36   H11   1.071172 S    
O16   Cu4   1.936860 S    
C16   C32   1.398312 A    
C108  N8    1.428772 S    
C115  H56   1.111266 S    
C77   H5    1.081286 S    
C82   C98   1.411340 A    
O15   C7    1.299534 A    
N8    H57   1.028501 S    
O16   C8    1.298317 A    
O5    Cu3   1.946046 S    
O1    Cu1   1.946046 S    
C31   H24   1.083454 S    
C44   C60   1.424558 A    
C19   N15   1.437308 S    
C114  H50   1.110208 S    
C30   H21   1.083466 S    
C33   C41   1.401449 A    
C87   H40   1.081781 S    
C60   C63   1.415732 A    
C21   C29   1.398914 A    
N14   O27   1.301305 A    
C75   H3    1.081291 S    
O9    Cu2   1.936917 S    
C28   H19   1.083470 S    
C4    C9    1.467809 S    
N9    O18   1.301282 A    
C23   C55   1.418282 A    
N2    C90   1.368436 A    
N20   O40   1.301033 A    
C14   C30   1.398328 A    
C80   H8    1.081318 S    
C1    C12   1.469132 S    
O13   C5    1.299528 A    
C48   C64   1.424573 A    
C104  C107  1.431432 A    
C18   N14   1.437166 S    
C108  C112  1.410560 A    
C82   C86   1.390236 A    
C113  H48   1.110698 S    
C73   H1    1.081286 S    
C72   C80   1.386588 A    
C106  C110  1.410537 A    
N12   O23   1.301307 A    
C39   H16   1.077125 S    
C112  N20   1.434649 S    
C34   C42   1.401033 A    
N13   O25   1.301284 A    
N9    O17   1.301281 A    
C51   C79   1.397866 A    
O7    Cu4   1.945977 S    
C34   H9    1.071181 S    
O12   Cu2   1.936860 S    
C68   C76   1.386612 A    
O5    C5    1.294509 A    
C95   C103  1.445511 A    
C114  H52   1.110729 S    
C107  C111  1.410404 A    
C113  H46   1.110195 S    
N11   O21   1.301281 A    
N17   O33   1.301025 A    
C63   C72   1.413226 A    
N2    C86   1.353404 A    
N1    C89   1.368433 A    
O15   Cu3   1.936863 S    
C65   C73   1.386262 A    
C83   C99   1.411337 A    
C7    C14   1.469179 S    
C37   C45   1.401439 A    
O12   C4    1.298310 A    
N18   O36   1.301044 A    
C81   C97   1.411342 A    
O2    Cu2   1.946046 S    
C91   C95   1.428777 A    
O3    C3    1.294489 A    
Cu1   N2    2.015447 S    
C40   C48   1.401057 A    
N4    C92   1.368447 A    
C22   C54   1.419376 A    
C22   C30   1.399594 A    
C61   C70   1.413199 A    
C58   C65   1.414482 A    
O9    C1    1.299531 A    
C18   C50   1.419382 A    
N11   O22   1.301285 A    
C49   C77   1.397889 A    
C84   C100  1.411334 A    
C57   C66   1.413205 A    
N7    H53   1.028524 S    
N3    C91   1.368439 A    
C76   H4    1.081313 S    
C15   C31   1.398853 A    
C85   H38   1.081778 S    
N17   O34   1.301038 A    
C116  H60   1.110703 S    
C47   C55   1.422458 A    
C17   C25   1.398924 A    
N6    C114  1.451433 S    
C82   H42   1.081618 S    
N8    C116  1.451425 S    
C91   H36   1.071504 S    
O10   Cu1   1.936916 S    
C19   C27   1.398912 A    
C52   C80   1.398563 A    
C41   C49   1.422455 A    
C21   N9    1.437308 S    
C20   C28   1.399571 A    
C41   C57   1.422371 A    
C81   C85   1.390234 A    
C89   H34   1.071527 S    
C27   H20   1.083456 S    
C110  N18   1.434664 S    
C20   C52   1.419374 A    
C97   C109  1.405999 A    
C103  C108  1.431549 A    
O1    C1    1.294478 A    
C42   C58   1.424545 A    
O3    Cu2   1.945977 S    
C92   C96   1.428804 A    
C43   C51   1.422448 A    
O2    C2    1.295113 A    
C16   C40   1.390887 A    
C67   C75   1.386258 A    
N15   O30   1.301274 A    
C37   H14   1.077128 S    
O4    C4    1.295111 A    
C48   C56   1.423094 A    
C79   H7    1.081281 S    
C94   C102  1.445449 A    
N1    C85   1.353405 A    
C8    C13   1.467787 S    
C78   H6    1.081309 S    
C10   C26   1.398317 A    
C11   C35   1.392537 A    
O14   C6    1.298307 A    
C84   C88   1.390241 A    
Cu1   Cu2   2.681505 S    
N6    H49   1.028506 S    
C68   H28   1.078402 S    
Cu2   N1    2.015448 S    
C56   C76   1.398588 A    
C3    C10   1.469163 S    
C58   C61   1.415718 A    
C24   C32   1.399593 A    
C59   C64   1.415741 A    
C9    C33   1.392530 A    
C57   C62   1.415715 A    
O10   C2    1.298309 A    
O7    C7    1.294499 A    
C29   H22   1.083451 S    
C88   H39   1.081780 S    
N20   O39   1.301013 A    
N3    C87   1.353404 A    
C84   H44   1.081620 S    
C12   C36   1.390860 A    
C44   C52   1.423094 A    
C20   N16   1.437167 S    
N13   O26   1.301287 A    
C89   C93   1.428789 A    
C18   C26   1.399592 A    
C83   H43   1.081652 S    
C21   C53   1.418265 A    
C115  H54   1.110714 S    
C70   H30   1.078401 S    
O11   Cu1   1.936863 S    
C50   C78   1.398586 A    
C26   H17   1.083467 S    
C81   H41   1.081620 S    
C74   H2    1.081316 S    
N10   O20   1.301341 A    
N16   O31   1.301307 A    
C94   C98   1.415267 A    
C90   H33   1.071530 S    
C69   C77   1.386276 A    
Cu3   Cu4   2.681505 S    
C14   C38   1.390886 A    
O8    Cu3   1.945975 S    
C107  N7    1.428777 S    
C45   C61   1.422364 A    
C98   C110  1.406005 A    
C40   H15   1.071171 S    
C11   C27   1.398851 A    
C2    C11   1.467806 S    
C71   C79   1.386264 A    
C69   H29   1.076617 S    
C93   C101  1.445451 A    
C101  C106  1.431549 A    
C70   C78   1.386610 A    
C105  N5    1.428784 S    
C9    C25   1.398865 A    
N16   O32   1.301333 A    
C46   C62   1.424535 A    
N5    C113  1.451431 S    
N18   O35   1.301039 A    
C114  H51   1.109364 S    
C115  H55   1.109776 S    
C19   C51   1.418276 A    
O6    C6    1.295099 A    
