data_mof_unit_22303.cif
_audit_creation_date              2012-12-10T17:57:51-0500
_audit_creation_method            fapswitch 2.2
_symmetry_space_group_name_H-M    P1
_symmetry_Int_Tables_number       1
_space_group_crystal_system       triclinic
_cell_length_a                    10.794436
_cell_length_b                    9.518252
_cell_length_c                    15.076013
_cell_angle_alpha                 90.615498
_cell_angle_beta                  90.135684
_cell_angle_gamma                 90.122106
_cell_volume                      1548.87500201

loop_
_atom_site_label
_atom_site_type_symbol
_atom_type_description
_atom_site_fract_x
_atom_site_fract_y
_atom_site_fract_z
_atom_type_partial_charge
C1    C     C_R   0.262397 0.499895 0.499919 0.886794
C2    C     C_R   0.737605 0.500104 0.500037 0.887144
C3    C     C_R   0.351892 0.693433 0.050006 0.128749
C4    C     C_R   0.645719 0.304845 0.949439 0.140262
C5    C     C_R   0.064911 0.416038 0.561033 0.057136
C6    C     C_R   0.935098 0.583932 0.438872 0.057954
C7    C     C_R   0.935164 0.416225 0.561128 0.066910
C8    C     C_R   0.064852 0.583719 0.438760 0.071867
C9    C     C_R   0.871491 0.500223 0.500067 -0.078270
C10   C     C_R   0.128517 0.499762 0.499851 -0.078454
C11   C     C_R   0.424461 0.073294 0.443807 -0.027695
C12   C     C_R   0.575540 0.926705 0.556192 -0.027231
C13   C     C_R   0.575566 0.075543 0.556182 -0.013034
C14   C     C_R   0.424435 0.924456 0.443816 -0.013409
C15   C     C_R   0.502768 0.499097 0.328847 0.814776
C16   C     C_R   0.497179 0.500892 0.671152 0.816451
C17   C     C_R   0.567753 0.405423 0.812231 -0.256536
C18   C     C_R   0.431314 0.594141 0.187862 -0.281743
C19   C     C_R   0.494569 0.502775 0.767736 -0.112545
C20   C     C_R   0.504922 0.497076 0.232253 -0.095880
C21   C     C_R   0.419961 0.598789 0.815423 0.098935
C22   C     C_R   0.579198 0.400842 0.184511 0.098519
C23   C     C_R   0.421986 0.597475 0.908561 0.069149
C24   C     C_R   0.576583 0.401689 0.091377 0.097385
C25   C     C_R   0.497729 0.499690 0.953328 -0.025501
C26   C     C_R   0.500495 0.499235 0.046710 -0.008993
C27   C     C_R   0.570594 0.402420 0.904759 0.106452
C28   C     C_R   0.427477 0.596489 0.095298 0.068711
C29   C     C_R   0.349893 0.692856 0.957739 -0.156718
C30   C     C_R   0.648350 0.305931 0.042161 -0.220369
Cu1   Cu    Cu3+1 0.500000 0.640660 0.500000 0.956029
Cu2   Cu    Cu3+1 0.500000 0.359340 0.500000 0.956195
H1    H     H_    0.624313 0.333367 0.773709 0.182327
H2    H     H_    0.375578 0.666372 0.226730 0.157419
H3    H     H_    0.291347 0.768654 0.924865 0.193131
H4    H     H_    0.706337 0.230254 0.075576 0.177179
H5    H     H_    0.363961 0.128502 0.398796 0.121894
H6    H     H_    0.636041 0.871498 0.601202 0.122704
H7    H     H_    0.636105 0.132530 0.601195 0.132184
H8    H     H_    0.363899 0.867469 0.398800 0.129222
N1    N     N_R   0.500000 0.852070 0.500000 -0.159827
N2    N     N_R   0.500000 0.147930 0.500000 -0.159976
O1    O     O_R   0.319640 0.618740 0.499990 -0.575594
O2    O     O_R   0.680360 0.381260 0.500010 -0.575760
O3    O     O_R   0.680360 0.618740 0.500010 -0.568902
O4    O     O_R   0.319640 0.381260 0.499990 -0.568939
O5    O     O_R   0.499970 0.618800 0.370260 -0.573967
O6    O     O_R   0.500030 0.381200 0.629740 -0.574620
O7    O     O_R   0.500030 0.618800 0.629740 -0.601263
O8    O     O_R   0.499970 0.381200 0.370260 -0.602454
N3    N     N_3   0.339061 0.694610 0.770489 -0.611980
H9    H     H_    0.392460 0.768567 0.736927 0.245613
H10   H     H_    0.284259 0.638464 0.725044 0.225838
N4    N     N_3   0.660483 0.305364 0.229397 -0.612104
H11   H     H_    0.607396 0.231395 0.263196 0.245186
H12   H     H_    0.715458 0.361777 0.274603 0.224549
N5    N     N_3   0.275982 0.794092 0.095742 -0.600915
H13   H     H_    0.332797 0.857796 0.135566 0.219681
H14   H     H_    0.213448 0.740347 0.136017 0.215994
N6    N     N_3   0.719309 0.204899 0.900506 -0.605019
H15   H     H_    0.778400 0.150249 0.942943 0.220262
H16   H     H_    0.658648 0.130528 0.872914 0.214869
N7    N     N_3   0.133164 0.334696 0.624189 -0.582619
H17   H     H_    0.109235 0.367895 0.688174 0.216431
H18   H     H_    0.108928 0.228934 0.616306 0.227384
N8    N     N_3   0.866843 0.665276 0.375719 -0.583546
H19   H     H_    0.890768 0.632074 0.311734 0.213605
H20   H     H_    0.891094 0.771033 0.383599 0.226562
N9    N     N_3   0.866999 0.334852 0.624281 -0.598626
H21   H     H_    0.891763 0.367585 0.688302 0.221791
H22   H     H_    0.890360 0.229011 0.616145 0.218629
N10   N     N_3   0.133027 0.665005 0.375564 -0.604989
H23   H     H_    0.108268 0.632197 0.311555 0.208899
H24   H     H_    0.109677 0.770859 0.383640 0.216709

loop_
_geom_bond_atom_site_label_1
_geom_bond_atom_site_label_2
_ccdc_geom_bond_type
N8    H20   S    
N7    H18   S    
C15   O5    A    
C16   O6    A    
C6    C9    A    
C22   N4    S    
Cu1   O1    S    
C23   C29   A    
C3    C28   A    
C19   C21   A    
C24   C26   A    
C11   C14   A    
C1    O4    A    
N5    H14   S    
C5    N7    S    
C11   N2    A    
N6    H16   S    
C15   O8    A    
C11   H5    S    
C1    O1    A    
C2    O2    A    
N8    H19   S    
Cu1   O5    S    
Cu2   O6    S    
C17   H1    S    
Cu1   O7    S    
C13   N2    A    
C2    O3    A    
C15   C20   S    
N4    H12   S    
C8    N10   S    
N9    H22   S    
N3    H9    S    
C17   C27   A    
C18   C28   A    
C16   O7    A    
N10   H24   S    
C5    C7    A    
C6    C8    A    
C25   C26   A    
N6    H15   S    
N3    H10   S    
C12   N1    A    
Cu1   Cu2   S    
C4    N6    S    
Cu2   O2    S    
C18   H2    S    
Cu2   O8    S    
C14   N1    A    
C3    N5    S    
C20   C22   A    
C21   C23   A    
C22   C24   A    
C21   N3    S    
C4    C27   A    
C7    C9    A    
N4    H11   S    
Cu1   N1    S    
Cu2   O4    S    
C1    C10   S    
N10   H23   S    
C7    N9    S    
C25   C27   A    
C29   H3    S    
C26   C28   A    
C30   H4    S    
C5    C10   A    
C3    C29   A    
N5    H13   S    
C16   C19   S    
C17   C19   A    
C18   C20   A    
C23   C25   A    
C12   H6    S    
N9    H21   S    
C24   C30   A    
C13   H7    S    
C14   H8    S    
N7    H17   S    
C6    N8    S    
C12   C13   A    
C8    C10   A    
Cu1   O3    S    
Cu2   N2    S    
C2    C9    S    
C4    C30   A    
