data_mof_unit_30234.cif
_audit_creation_date              2012-12-10T17:22:05-0500
_audit_creation_method            fapswitch 2.2
_symmetry_space_group_name_H-M    P1
_symmetry_Int_Tables_number       1
_space_group_crystal_system       triclinic
_cell_length_a                    10.254108
_cell_length_b                    10.511418
_cell_length_c                    15.716503
_cell_angle_alpha                 91.929667
_cell_angle_beta                  81.281921
_cell_angle_gamma                 94.97678
_cell_volume                      1667.75922806

loop_
_atom_site_label
_atom_site_type_symbol
_atom_type_description
_atom_site_fract_x
_atom_site_fract_y
_atom_site_fract_z
_atom_type_partial_charge
C1    C     C_R   0.554940 0.734526 0.498151 0.866050
C2    C     C_3   0.414637 0.611099 0.063013 0.901395
C3    C     C_3   0.498976 0.499862 0.083150 -0.513145
C4    C     C_3   0.448317 0.362024 0.049360 0.820445
C5    C     C_3   0.435676 0.367992 0.951369 0.837465
C6    C     C_1   0.500463 0.497188 0.174382 0.279721
C7    C     C_1   0.494711 0.505870 0.826189 0.246819
C8    C     C_1   0.498895 0.503911 0.750432 -0.183841
C9    C     C_2   0.583988 0.871585 0.510008 0.218049
C10   C     C_2   0.502396 0.935464 0.568985 0.476601
C11   C     C_2   0.417479 0.131872 0.530460 0.481239
C12   C     C_R   0.499946 0.501183 0.661467 0.841859
C13   C     C_2   0.510379 0.074219 0.562604 -0.346501
C14   C     C_2   0.930367 0.523322 0.499934 0.583358
C15   C     C_2   0.076136 0.502225 0.483293 0.572088
C16   C     C_R   0.445182 0.265888 0.509276 0.757370
C17   C     C_R   0.500015 0.498903 0.338561 0.860286
C18   C     C_3   0.400271 0.610554 0.964533 0.653702
C19   C     C_3   0.635527 0.535969 0.936859 0.312986
C20   C     C_3   0.644509 0.532971 0.034667 0.896049
C21   C     C_1   0.500270 0.497283 0.249709 -0.134693
C22   C     C_3   0.489702 0.504933 0.918507 -0.413474
H1    H     H_    0.602534 0.126476 0.574046 0.149439
H2    H     H_    0.671875 0.632780 0.912275 0.154029
N1    N     N_2   0.842720 0.448890 0.465540 0.039532
N2    N     N_2   0.157250 0.551040 0.534500 0.124784
O1    O     O_R   0.431050 0.692470 0.506940 -0.539555
O2    O     O_R   0.651130 0.659650 0.484820 -0.589609
O3    O     O_R   0.389910 0.516410 0.633920 -0.553233
O4    O     O_R   0.609990 0.483590 0.611800 -0.625318
O5    O     O_R   0.348870 0.340350 0.515180 -0.613186
O6    O     O_R   0.568950 0.307530 0.493060 -0.621275
O7    O     O_R   0.390010 0.516410 0.388200 -0.568600
O8    O     O_R   0.610090 0.483590 0.366080 -0.634980
Zn1   Zn    Zn3+2 0.353060 0.521920 0.514770 1.107932
Zn2   Zn    Zn3+2 0.646940 0.478080 0.485230 0.997030
F1    F     F_    0.475546 0.727008 0.087016 -0.592737
O9    O     O_3   0.262871 0.580927 0.957658 -0.596667
C23   C     C_3   0.228006 0.597108 0.875013 -0.080960
H3    H     H_    0.218988 0.503039 0.841323 0.218224
H4    H     H_    0.296746 0.664057 0.833110 0.147798
H5    H     H_    0.129198 0.635159 0.883441 0.173927
F2    F     F_    0.291653 0.606732 0.113271 -0.666676
F3    F     F_    0.548173 0.282840 0.054617 -0.545701
O10   O     O_3   0.403077 0.868750 0.625078 -0.569813
C24   C     C_3   0.373664 0.936217 0.703801 -0.240016
H6    H     H_    0.308526 0.872162 0.749708 0.182919
H7    H     H_    0.318484 0.020361 0.695718 0.197241
H8    H     H_    0.464814 0.965370 0.732497 0.124536
F4    F     F_    0.301387 0.067506 0.516548 -0.641049
O11   O     O_3   0.678346 0.936445 0.450738 -0.623774
C25   C     C_3   0.799726 0.949401 0.483148 -0.235605
H9    H     H_    0.844276 0.856651 0.479347 0.234583
H10   H     H_    0.789620 0.988724 0.550329 0.142435
H11   H     H_    0.869209 0.017143 0.442325 0.210747
O12   O     O_3   0.127669 0.458334 0.401791 -0.646792
C26   C     C_3   0.150103 0.327280 0.402610 -0.111950
H12   H     H_    0.097695 0.274772 0.353948 0.162440
H13   H     H_    0.118608 0.280317 0.465919 0.173177
H14   H     H_    0.255682 0.314303 0.380153 0.181471
O13   O     O_3   0.896754 0.643128 0.530574 -0.658399
C27   C     C_3   0.852269 0.642660 0.620193 -0.123426
H15   H     H_    0.920641 0.707981 0.652963 0.214753
H16   H     H_    0.843234 0.546934 0.650203 0.181254
H17   H     H_    0.755041 0.683714 0.633146 0.145651
F5    F     F_    0.105189 0.575781 0.615823 -0.614089
O14   O     O_3   0.448855 0.732005 0.928503 -0.648404
C28   C     C_3   0.369182 0.832370 0.959874 -0.101676
H18   H     H_    0.281397 0.803681 0.008159 0.217871
H19   H     H_    0.334049 0.875533 0.904999 0.090283
H20   H     H_    0.431117 0.907133 0.990235 0.214366
O15   O     O_3   0.876640 0.330553 0.441815 -0.609407
C29   C     C_3   0.833617 0.301496 0.361929 -0.072359
H21   H     H_    0.866567 0.379284 0.315133 0.149006
H22   H     H_    0.725372 0.280124 0.368730 0.206872
H23   H     H_    0.877784 0.213724 0.334429 0.134004
F6    F     F_    0.719521 0.452199 0.891403 -0.552057
O16   O     O_3   0.697710 0.656251 0.060157 -0.618474
C30   C     C_3   0.797068 0.651672 0.112917 -0.047619
H24   H     H_    0.888799 0.618380 0.074952 0.196124
H25   H     H_    0.763260 0.590526 0.169651 0.152640
H26   H     H_    0.821584 0.749684 0.137380 0.175378
F7    F     F_    0.727823 0.439090 0.047407 -0.569780
F8    F     F_    0.304258 0.345535 0.938366 -0.693949
O17   O     O_3   0.513801 0.277022 0.902661 -0.520472
C31   C     C_3   0.444710 0.155119 0.900246 -0.066490
H27   H     H_    0.373462 0.152926 0.853421 0.148702
H28   H     H_    0.392449 0.126037 0.964745 0.186198
H29   H     H_    0.517112 0.084219 0.877810 0.154549
O18   O     O_3   0.337640 0.293265 0.099130 -0.600050
C32   C     C_3   0.222136 0.356473 0.123225 -0.170038
H30   H     H_    0.194883 0.411256 0.070830 0.266275
H31   H     H_    0.229238 0.413892 0.183083 0.212612
H32   H     H_    0.138797 0.282793 0.139947 0.181573

loop_
_geom_bond_atom_site_label_1
_geom_bond_atom_site_label_2
_ccdc_geom_bond_type
C12   O3    A    
C2    C18   S    
C29   H21   S    
C19   C20   S    
C9    O11   S    
C3    C6    S    
C26   H12   S    
C7    C8    T    
C23   H4    S    
O17   C31   S    
C16   O5    A    
C24   H8    S    
O6    Zn2   S    
O9    C23   S    
C31   H28   S    
C26   H13   S    
O12   C26   S    
C13   H1    S    
C19   F6    S    
C27   H16   S    
C5    C22   S    
C28   H18   S    
C1    O2    A    
C9    C10   D    
C25   H11   S    
C5    O17   S    
C18   C22   S    
C29   H22   S    
C17   O7    A    
C25   H10   S    
C23   H5    S    
C4    O18   S    
C24   H7    S    
O14   C28   S    
N2    F5    S    
C14   O13   S    
C19   C22   S    
C1    C9    S    
C23   H3    S    
C30   H25   S    
C5    F8    S    
O16   C30   S    
C4    C5    S    
C26   H14   S    
C4    F3    S    
O1    Zn1   S    
C18   O14   S    
O10   C24   S    
C6    C21   T    
C10   C13   S    
C17   C21   S    
O11   C25   S    
C27   H15   S    
C32   H31   S    
C11   C16   S    
C2    F2    S    
C8    C12   S    
C10   O10   S    
C3    C20   S    
N1    O15   S    
C29   H23   S    
O5    Zn1   S    
C17   O8    A    
C3    C4    S    
C32   H30   S    
C25   H9    S    
C24   H6    S    
C27   H17   S    
C12   O4    A    
C31   H27   S    
O15   C29   S    
C15   N2    D    
C31   H29   S    
C30   H26   S    
O4    Zn2   S    
C16   O6    A    
C7    C22   S    
O3    Zn1   S    
C20   O16   S    
C15   O12   S    
C2    C3    S    
C18   O9    S    
C11   F4    S    
C32   H32   S    
C11   C13   D    
C2    F1    S    
O18   C32   S    
C28   H20   S    
O7    Zn1   S    
C19   H2    S    
O8    Zn2   S    
C14   N1    D    
O13   C27   S    
N1    Zn2   S    
C30   H24   S    
N2    Zn1   S    
O2    Zn2   S    
C28   H19   S    
C20   F7    S    
C1    O1    A    
C14   C15   S    
