data_mof_unit_19707.cif
_audit_creation_date              2012-12-10T19:03:03-0500
_audit_creation_method            fapswitch 2.2
_symmetry_space_group_name_H-M    P1
_symmetry_Int_Tables_number       1
_space_group_crystal_system       triclinic
_cell_length_a                    10.755499
_cell_length_b                    10.869277
_cell_length_c                    9.590712
_cell_angle_alpha                 90.826982
_cell_angle_beta                  90.19748
_cell_angle_gamma                 91.129067
_cell_volume                      1120.8551142

loop_
_atom_site_label
_atom_site_type_symbol
_atom_type_description
_atom_site_fract_x
_atom_site_fract_y
_atom_site_fract_z
_atom_type_partial_charge
C1    C     C_R   0.496391 0.262700 0.499366 0.822619
C2    C     C_3   0.878612 0.497304 0.500462 0.128070
C3    C     C_3   0.931620 0.609284 0.420047 -0.361374
C4    C     C_3   0.926128 0.376800 0.430563 0.264214
C5    C     C_R   0.472579 0.066114 0.623527 0.084463
C6    C     C_R   0.481235 0.130077 0.498900 -0.102525
C7    C     C_R   0.469195 0.062491 0.373646 -0.230981
C8    C     C_R   0.466491 0.933920 0.375418 -0.196591
C9    C     C_R   0.481193 0.870926 0.501584 -0.088779
C10   C     C_R   0.472834 0.939765 0.625228 0.043940
C11   C     C_3   0.538411 0.937608 0.762793 -0.481752
C12   C     C_R   0.260064 0.498649 0.500243 0.762791
C13   C     C_3   0.534898 0.078075 0.762927 0.103771
C14   C     C_R   0.600202 0.545168 0.074359 0.150903
C15   C     C_R   0.407255 0.442290 0.071834 0.320712
C16   C     C_R   0.406163 0.445867 0.923298 -0.130413
C17   C     C_R   0.602859 0.539194 0.926828 0.107122
C18   C     C_3   0.662723 0.661941 0.913537 -0.480025
C19   C     C_3   0.647447 0.676278 0.069540 0.715151
C20   C     C_R   0.496349 0.737750 0.500877 0.784945
C21   C     C_R   0.740180 0.499047 0.500232 0.774676
C22   C     C_3   0.071994 0.502745 0.653207 -0.387509
C23   C     C_3   0.929551 0.504927 0.652346 -0.460258
C24   C     C_3   0.074736 0.611061 0.423320 -0.380255
C25   C     C_3   0.070283 0.378407 0.430173 -0.413946
C26   C     C_3   0.122272 0.497625 0.501557 0.114368
Cu1   Cu    Cu3+1 0.499990 0.499980 0.640670 0.937388
Cu2   Cu    Cu3+1 0.500010 0.500020 0.359330 0.989041
H1    H     H_    0.108926 0.586444 0.708838 0.184104
H2    H     H_    0.110656 0.611465 0.314574 0.179414
H3    H     H_    0.901631 0.602663 0.309686 0.247680
H4    H     H_    0.467856 0.107949 0.274379 0.174794
H5    H     H_    0.457513 0.885002 0.277652 0.219520
H6    H     H_    0.478696 0.897064 0.845274 0.178091
H7    H     H_    0.632369 0.898847 0.753334 0.205180
H8    H     H_    0.471303 0.116816 0.842870 0.108023
H9    H     H_    0.103117 0.421183 0.711976 0.168511
H10   H     H_    0.329028 0.404710 0.865671 0.148650
H11   H     H_    0.760821 0.656076 0.878934 0.182053
H12   H     H_    0.604242 0.722355 0.851982 0.189401
H13   H     H_    0.892537 0.426544 0.714301 0.183323
H14   H     H_    0.899058 0.591578 0.703599 0.185413
H15   H     H_    0.109333 0.697149 0.475869 0.154551
H16   H     H_    0.896213 0.696697 0.465234 0.134805
H17   H     H_    0.104724 0.371769 0.321537 0.200001
H18   H     H_    0.104429 0.296362 0.485724 0.113167
H19   H     H_    0.892059 0.297220 0.492359 0.063841
N1    N     N_R   0.500800 0.500930 0.147930 -0.223051
N2    N     N_R   0.500800 0.500890 0.852020 -0.192464
O1    O     O_R   0.500000 0.319640 0.618810 -0.563378
O2    O     O_R   0.500010 0.319680 0.381230 -0.557738
O3    O     O_R   0.317690 0.499960 0.618790 -0.602288
O4    O     O_R   0.317700 0.500000 0.381210 -0.569122
O5    O     O_R   0.499990 0.680320 0.618770 -0.585883
O6    O     O_R   0.500000 0.680360 0.381190 -0.566335
O7    O     O_R   0.682300 0.500000 0.618790 -0.587138
O8    O     O_R   0.682310 0.500040 0.381210 -0.537044
O9    O     O_3   0.880687 0.364219 0.293260 -0.718724
H20   H     H_    0.892887 0.277210 0.264361 0.316781
N3    N     N_2   0.656007 0.141389 0.762999 -0.379761
H21   H     H_    0.686576 0.165817 0.861776 0.256889
C27   C     C_3   0.755381 0.099575 0.673209 -0.668086
H22   H     H_    0.828483 0.172611 0.669003 0.201962
H23   H     H_    0.721688 0.079982 0.565661 0.236781
H24   H     H_    0.799174 0.016816 0.716616 0.211300
N4    N     N_2   0.308037 0.381445 0.140956 -0.372992
H25   H     H_    0.226623 0.429534 0.134106 0.234387
C28   C     C_3   0.289638 0.252745 0.104003 -0.736511
H26   H     H_    0.235714 0.243095 0.005283 0.202325
H27   H     H_    0.236886 0.206147 0.188059 0.231501
H28   H     H_    0.380178 0.206757 0.090670 0.226243
O10   O     O_3   0.760975 0.695761 0.138601 -0.734291
H29   H     H_    0.740139 0.720216 0.235700 0.337343
O11   O     O_3   0.559152 0.764995 0.105659 -0.757756
H30   H     H_    0.478810 0.742218 0.059761 0.286759

loop_
_geom_bond_atom_site_label_1
_geom_bond_atom_site_label_2
_ccdc_geom_bond_type
N4    C28   S    
C22   H1    S    
C4    C25   S    
C19   O10   S    
Cu1   O5    S    
C7    C8    A    
C13   N3    S    
Cu2   O8    S    
C23   H14   S    
C24   C26   S    
C5    C6    A    
Cu2   O2    S    
C15   C16   A    
N3    C27   S    
C18   C19   S    
C18   H12   S    
C27   H23   S    
C8    C9    A    
C1    O1    A    
C5    C13   S    
C12   O4    A    
Cu1   O1    S    
N4    H25   S    
C15   N4    S    
C14   C17   A    
C3    C24   S    
C15   N1    A    
C20   O6    A    
C12   O3    A    
Cu2   O6    S    
C11   H6    S    
C3    H16   S    
O11   H30   S    
C1    C6    S    
C16   N2    A    
C13   H8    S    
C20   O5    A    
C17   N2    A    
Cu1   O7    S    
C28   H26   S    
C14   N1    A    
O9    H20   S    
C22   H9    S    
C12   C26   S    
N3    H21   S    
C2    C4    S    
C18   H11   S    
C21   O8    A    
C27   H22   S    
C9    C20   S    
C2    C21   S    
C17   C18   S    
C3    H3    S    
C1    O2    A    
C25   H17   S    
Cu1   Cu2   S    
Cu1   O3    S    
C9    C10   A    
Cu2   N1    S    
C7    H4    S    
C27   H24   S    
C14   C19   S    
C19   O11   S    
O10   H29   S    
C21   O7    A    
Cu2   O4    S    
C6    C7    A    
C23   H13   S    
C11   H7    S    
C2    C3    S    
C25   C26   S    
C5    C10   A    
C11   C13   S    
C28   H28   S    
C8    H5    S    
C24   H2    S    
C10   C11   S    
C28   H27   S    
C22   C26   S    
C4    O9    S    
C2    C23   S    
C24   H15   S    
C22   C23   S    
C25   H18   S    
Cu1   N2    S    
C16   H10   S    
C4    H19   S    
