data_mof_unit_31631.cif
_audit_creation_date              2012-12-10T17:20:54-0500
_audit_creation_method            fapswitch 2.2
_symmetry_space_group_name_H-M    P1
_symmetry_Int_Tables_number       1
_space_group_crystal_system       triclinic
_cell_length_a                    14.338018
_cell_length_b                    10.80207
_cell_length_c                    9.63099
_cell_angle_alpha                 90.131597
_cell_angle_beta                  90.049385
_cell_angle_gamma                 93.153157
_cell_volume                      1489.38745604

loop_
_atom_site_label
_atom_site_type_symbol
_atom_type_description
_atom_site_fract_x
_atom_site_fract_y
_atom_site_fract_z
_atom_type_partial_charge
C1    C     C_R   0.497160 0.262626 0.499888 0.752465
C2    C     C_1   0.771107 0.499924 0.500049 -0.169674
C3    C     C_R   0.347758 0.122903 0.645161 -0.193149
C4    C     C_R   0.277679 0.056260 0.717080 -0.249030
C5    C     C_R   0.275106 0.927742 0.717533 -0.168111
C6    C     C_R   0.342603 0.864487 0.646400 0.574948
C7    C     C_R   0.416811 0.930107 0.575412 -0.030238
C8    C     C_R   0.418709 0.061618 0.574924 0.041871
C9    C     C_R   0.489592 0.128442 0.499699 -0.057296
C10   C     C_R   0.554587 0.067026 0.421606 -0.187272
C11   C     C_R   0.553554 0.939286 0.422227 -0.191929
C12   C     C_R   0.331203 0.498324 0.499920 0.850462
C13   C     C_R   0.487278 0.870341 0.500443 -0.087811
C14   C     C_R   0.622287 0.666497 0.149329 -0.137525
C15   C     C_R   0.681679 0.751730 0.083434 -0.341183
C16   C     C_R   0.683772 0.755216 0.941801 -0.206723
C17   C     C_R   0.626945 0.673577 0.863539 0.621559
C18   C     C_R   0.561252 0.584050 0.926536 0.072656
C19   C     C_R   0.560333 0.582680 0.076400 0.154855
C20   C     C_R   0.442712 0.421408 0.073286 -0.040723
C21   C     C_R   0.442716 0.421406 0.925803 -0.036487
C22   C     C_R   0.495004 0.736895 0.500228 0.917197
C23   C     C_R   0.668737 0.499972 0.499984 0.844601
C24   C     C_1   0.228819 0.498323 0.499823 -0.136170
C25   C     C_1   0.143379 0.498603 0.499890 -0.002924
C26   C     C_1   0.042693 0.499048 0.499984 0.006268
C27   C     C_1   0.957247 0.499414 0.500037 0.008767
C28   C     C_1   0.856554 0.499759 0.500062 -0.004268
Cu1   Cu    Cu3+1 0.499990 0.499990 0.640660 1.019216
Cu2   Cu    Cu3+1 0.500010 0.500010 0.359340 0.942510
H1    H     H_    0.395656 0.356764 0.870728 0.126155
H2    H     H_    0.344125 0.222507 0.643144 0.145950
H3    H     H_    0.395623 0.356727 0.127812 0.132617
H4    H     H_    0.629242 0.671428 0.258350 0.210038
H5    H     H_    0.727405 0.814854 0.143165 0.178025
N1    N     N_R   0.500820 0.501210 0.147910 -0.178781
N2    N     N_R   0.500850 0.501290 0.852040 -0.175593
O1    O     O_R   0.499990 0.319640 0.618810 -0.590325
O2    O     O_R   0.500000 0.319660 0.381240 -0.578506
O3    O     O_R   0.376050 0.499990 0.618810 -0.526177
O4    O     O_R   0.376060 0.500010 0.381240 -0.573820
O5    O     O_R   0.500000 0.680340 0.618760 -0.463672
O6    O     O_R   0.500010 0.680360 0.381190 -0.615615
O7    O     O_R   0.623940 0.499990 0.618760 -0.494152
O8    O     O_R   0.623950 0.500010 0.381190 -0.598149
H6    H     H_    0.608028 0.118546 0.362555 0.148654
H7    H     H_    0.731763 0.821564 0.890947 0.182909
F1    F     F_    0.644019 0.689219 0.728288 -0.674019
H8    H     H_    0.224023 0.104553 0.770481 0.163602
H9    H     H_    0.219081 0.876395 0.771136 0.165504
F2    F     F_    0.331001 0.739643 0.643637 -0.692021
H10   H     H_    0.606513 0.893857 0.363727 0.140514

loop_
_geom_bond_atom_site_label_1
_geom_bond_atom_site_label_2
_ccdc_geom_bond_type
Cu1   O1    S    
C14   H4    S    
C3    H2    S    
Cu2   O4    S    
C12   O3    A    
C12   O4    A    
C23   O8    A    
Cu1   O5    S    
Cu1   Cu2   S    
C11   C13   A    
C9    C10   A    
C12   C24   S    
Cu2   O8    S    
C22   O6    A    
C17   F1    S    
Cu2   N1    S    
C4    H8    S    
C17   C18   A    
C1    C9    S    
C7    C8    A    
C24   C25   T    
C4    C5    A    
C21   H1    S    
C26   C27   T    
C22   O5    A    
C1    O1    A    
C20   H3    S    
C16   H7    S    
C15   H5    S    
C18   N2    A    
C13   C22   S    
C3    C8    A    
C6    C7    A    
C19   N1    A    
Cu1   O7    S    
C5    C6    A    
C5    H9    S    
Cu2   O6    S    
C10   C11   A    
C1    O2    A    
C3    C4    A    
C20   N1    A    
C10   H6    S    
C7    C13   A    
C21   N2    A    
C20   C21   A    
Cu1   O3    S    
C18   C19   A    
C6    F2    S    
Cu1   N2    S    
C2    C23   S    
C14   C15   A    
C16   C17   A    
C2    C28   T    
C11   H10   S    
C25   C26   S    
C14   C19   A    
C23   O7    A    
C15   C16   A    
Cu2   O2    S    
C8    C9    A    
C27   C28   S    
