data_mof_unit_30268.cif
_audit_creation_date              2012-12-10T17:50:10-0500
_audit_creation_method            fapswitch 2.2
_symmetry_space_group_name_H-M    P1
_symmetry_Int_Tables_number       1
_space_group_crystal_system       triclinic
_cell_length_a                    10.663162
_cell_length_b                    14.701332
_cell_length_c                    14.578197
_cell_angle_alpha                 65.246672
_cell_angle_beta                  103.282996
_cell_angle_gamma                 102.633774
_cell_volume                      2000.31864714

loop_
_atom_site_label
_atom_site_type_symbol
_atom_type_description
_atom_site_fract_x
_atom_site_fract_y
_atom_site_fract_z
_atom_type_partial_charge
C1    C     C_R   0.478766 0.119558 0.311367 0.884498
C2    C     C_R   0.519101 0.880624 0.688461 0.881284
C3    C     C_R   0.470795 0.289835 0.175895 -0.316935
C4    C     C_R   0.508935 0.710728 0.824793 -0.313145
C5    C     C_R   0.459283 0.359859 0.074319 0.081393
C6    C     C_R   0.486755 0.640727 0.922375 0.084680
C7    C     C_R   0.443173 0.323333 0.995551 0.036581
C8    C     C_R   0.489764 0.677753 0.998604 0.035662
C9    C     C_R   0.465646 0.465646 0.049450 0.099304
C10   C     C_R   0.466014 0.534571 0.946293 0.098523
C11   C     C_R   0.441164 0.495317 0.869534 -0.221853
C12   C     C_R   0.470448 0.504980 0.123920 -0.218166
C13   C     C_R   0.429215 0.392512 0.893601 -0.155497
C14   C     C_R   0.481325 0.607998 0.098900 -0.157648
C15   C     C_R   0.714142 0.283226 0.671575 -0.280530
C16   C     C_R   0.282335 0.715148 0.330956 -0.297353
C17   C     C_R   0.681738 0.202325 0.640657 0.118753
C18   C     C_R   0.316461 0.796847 0.360677 0.112171
C19   C     C_R   0.518907 0.285342 0.508622 0.048761
C20   C     C_R   0.480892 0.714559 0.491443 0.051168
C21   C     C_R   0.547657 0.370800 0.535844 -0.024442
C22   C     C_R   0.450286 0.628262 0.465500 -0.022130
C23   C     C_R   0.260071 0.001001 0.499428 0.942810
C24   C     C_R   0.739951 0.998981 0.500611 0.944515
C25   C     C_R   0.647282 0.367389 0.619880 0.149171
C26   C     C_R   0.349477 0.631130 0.382337 0.155204
C27   C     C_R   0.481239 0.458246 0.483961 0.084393
C28   C     C_R   0.516076 0.540529 0.517782 0.077167
C29   C     C_R   0.614803 0.531988 0.603019 -0.220102
C30   C     C_R   0.381400 0.466292 0.399487 -0.226881
C31   C     C_R   0.678992 0.447382 0.652488 -0.149971
C32   C     C_R   0.316784 0.550692 0.350366 -0.171033
C33   C     C_3   0.015509 0.016496 0.404532 -0.225435
C34   C     C_3   0.984586 0.983495 0.595553 -0.226514
C35   C     C_3   0.962130 0.087813 0.434567 0.278163
C36   C     C_3   0.037965 0.912175 0.565523 0.277020
C37   C     C_3   0.875590 0.997445 0.501856 -0.198287
C38   C     C_3   0.124481 0.002540 0.498227 -0.197663
C39   C     C_3   0.929830 0.925962 0.472841 0.314045
C40   C     C_3   0.070264 0.074023 0.527244 0.313481
C41   C     C_R   0.465074 0.186569 0.201482 -0.075575
C42   C     C_R   0.517763 0.814444 0.797479 -0.079684
C43   C     C_R   0.438312 0.218317 0.020042 -0.102458
C44   C     C_R   0.503960 0.783619 0.973340 -0.098900
C45   C     C_R   0.450665 0.149768 0.124011 0.365834
C46   C     C_R   0.513682 0.852106 0.871079 0.371522
Cu1   Cu    Cu3+1 0.465750 0.918270 0.475680 1.024832
Cu2   Cu    Cu3+1 0.534250 0.081730 0.524320 1.023260
H1    H     H_    0.558399 0.720328 0.551524 0.129457
H2    H     H_    0.442763 0.280163 0.447511 0.128982
H3    H     H_    0.265754 0.862229 0.320269 0.170905
H4    H     H_    0.732184 0.136822 0.681283 0.168232
H5    H     H_    0.790414 0.279679 0.736084 0.165366
H6    H     H_    0.204772 0.718106 0.267381 0.173162
H7    H     H_    0.644721 0.589478 0.634167 0.137175
H8    H     H_    0.350300 0.408288 0.369083 0.135955
H9    H     H_    0.408810 0.368349 0.830446 0.181250
H10   H     H_    0.485294 0.631917 0.160395 0.183118
H11   H     H_    0.521769 0.686029 0.768038 0.163111
H12   H     H_    0.487453 0.314111 0.238088 0.168918
H13   H     H_    0.425641 0.542165 0.789030 0.149081
H14   H     H_    0.462616 0.458552 0.202778 0.137639
H15   H     H_    0.754321 0.444452 0.717465 0.156597
H16   H     H_    0.240510 0.553183 0.286054 0.160851
N1    N     N_R   0.585750 0.204560 0.560800 -0.189405
N2    N     N_R   0.414250 0.795440 0.439200 -0.187013
O1    O     O_R   0.454850 0.022100 0.338110 -0.518454
O2    O     O_R   0.545150 0.977900 0.661890 -0.520343
O3    O     O_R   0.512700 0.160150 0.379180 -0.620343
O4    O     O_R   0.487300 0.839850 0.620820 -0.618759
O5    O     O_R   0.287930 0.931000 0.479440 -0.569862
O6    O     O_R   0.712070 0.069000 0.520560 -0.568954
O7    O     O_R   0.345780 0.069050 0.520520 -0.556291
O8    O     O_R   0.654220 0.930950 0.479480 -0.555726
O9    O     O_3   0.919874 0.180065 0.367225 -0.691014
H17   H     H_    0.997189 0.222957 0.336620 0.335581
O10   O     O_3   0.080288 0.819946 0.632870 -0.692428
H18   H     H_    0.003040 0.777065 0.663583 0.335528
C47   C     C_2   0.028543 0.036204 0.297383 0.886272
O11   O     O_2   0.931415 0.043106 0.232497 -0.511384
O12   O     O_R   0.151078 0.047257 0.271941 -0.795036
H19   H     H_    0.147139 0.060530 0.197330 0.344381
C48   C     C_2   0.971649 0.963869 0.702695 0.887821
O13   O     O_2   0.068811 0.956949 0.767557 -0.510626
O14   O     O_R   0.849155 0.952954 0.728140 -0.795604
H20   H     H_    0.853158 0.939805 0.802724 0.343520
O15   O     O_3   0.854664 0.847301 0.446335 -0.678258
H21   H     H_    0.917324 0.814968 0.433242 0.338699
O16   O     O_3   0.145469 0.152672 0.553755 -0.681119
H22   H     H_    0.082850 0.184969 0.566941 0.338352
O17   O     O_3   0.517178 0.955292 0.840424 -0.689667
H23   H     H_    0.481056 0.969307 0.889131 0.353761
O18   O     O_3   0.452537 0.047550 0.152574 -0.693265
H24   H     H_    0.475766 0.035437 0.097174 0.355652
C49   C     C_2   0.419630 0.179687 0.937823 0.813055
O19   O     O_2   0.326626 0.116174 0.930609 -0.546036
O20   O     O_R   0.509514 0.214953 0.869920 -0.753916
H25   H     H_    0.486428 0.182994 0.817529 0.355529
C50   C     C_2   0.510452 0.823489 0.052837 0.817926
O21   O     O_2   0.605868 0.881212 0.069495 -0.544379
O22   O     O_R   0.406371 0.796903 0.106652 -0.755706
H26   H     H_    0.422045 0.829889 0.157732 0.353717

loop_
_geom_bond_atom_site_label_1
_geom_bond_atom_site_label_2
_ccdc_geom_bond_type
C25   C31   A    
C38   C40   S    
O15   H21   S    
C26   C32   A    
O22   H26   S    
C34   C37   S    
C49   O19   D    
C39   O15   S    
Cu2   O3    S    
C45   O18   S    
O20   H25   S    
O10   H18   S    
C35   O9    S    
O18   H24   S    
C48   O13   D    
C34   C40   S    
C15   H5    S    
C20   N2    A    
C28   C29   A    
C19   C21   A    
C23   O7    A    
C2    O2    A    
C36   O10   S    
C44   C50   S    
C15   C25   A    
C13   H9    S    
C42   C46   A    
C33   C35   S    
Cu1   Cu2   S    
C43   C49   S    
C7    C43   A    
Cu2   N1    S    
C9    C10   A    
Cu1   N2    S    
C3    H12   S    
C21   C27   A    
C22   C28   A    
C27   C30   A    
Cu2   O6    S    
C17   H4    S    
Cu1   O1    S    
C44   C46   A    
C18   H3    S    
O12   H19   S    
C16   C26   A    
C14   H10   S    
C31   H15   S    
C32   H16   S    
C4    C6    A    
O17   H23   S    
C5    C7    A    
C33   C47   S    
C6    C8    A    
C46   O17   S    
C29   H7    S    
C3    C5    A    
O14   H20   S    
C30   H8    S    
C1    O3    A    
O9    H17   S    
Cu1   O4    S    
C5    C9    A    
C20   H1    S    
C23   O5    A    
C12   H14   S    
C50   O21   D    
C29   C31   A    
C24   C37   S    
C33   C39   S    
Cu2   O2    S    
C43   C45   A    
Cu1   O5    S    
C1    C41   S    
C48   O14   S    
C12   C14   A    
C40   O16   S    
C34   C48   S    
C24   O6    A    
C47   O12   S    
C15   C17   A    
C21   C25   A    
C3    C41   A    
C8    C14   A    
C35   C37   S    
Cu2   O7    S    
C36   C39   S    
C8    C44   A    
Cu1   O8    S    
C20   C22   A    
C11   H13   S    
C6    C10   A    
C49   O20   S    
C18   N2    A    
C23   C38   S    
C17   N1    A    
C33   C38   S    
C36   C38   S    
C35   C40   S    
C37   C39   S    
C30   C32   A    
C11   C13   A    
C19   H2    S    
C24   O8    A    
C4    C42   A    
C2    C42   S    
C4    H11   S    
C1    O1    A    
C19   N1    A    
C34   C36   S    
C9    C12   A    
C16   H6    S    
C10   C11   A    
C47   O11   D    
C7    C13   A    
C16   C18   A    
C22   C26   A    
C27   C28   A    
C41   C45   A    
O16   H22   S    
C2    O4    A    
C50   O22   S    
