data_mof_unit_20350.cif
_audit_creation_date              2013-03-05T15:55:25-0500
_audit_creation_method            fapswitch 2.2
_symmetry_space_group_name_H-M    P1
_symmetry_Int_Tables_number       1
_space_group_crystal_system       triclinic
_cell_length_a                    8.364661
_cell_length_b                    16.64595
_cell_length_c                    19.05981
_cell_angle_alpha                 97.772814
_cell_angle_beta                  93.591717
_cell_angle_gamma                 93.296208
_cell_volume                      2618.45020401

loop_
_atom_site_label
_atom_site_type_symbol
_atom_site_description
_atom_site_fract_x
_atom_site_fract_y
_atom_site_fract_z
_atom_type_partial_charge
P1    P     P_3+3 0.048660 0.430750 0.339650 0.512389
O1    O     O_2   0.875590 0.454550 0.328720 -0.359360
O2    O     O_3   0.127960 0.455900 0.416100 -0.343367
O3    O     O_3   0.634460 0.601950 0.371690 -0.326553
O4    O     O_2   0.763635 0.546309 0.254171 -0.413015
O5    O     O_3   0.018476 0.324682 0.328575 -0.591819
O6    O     O_3   0.619676 0.671411 0.243270 -0.528562
C1    C     C_3   0.472207 0.722647 0.151416 -0.738210
H1    H     H_    0.565061 0.772660 0.149000 0.198896
H2    H     H_    0.507367 0.668760 0.116162 0.199087
P2    P     P_3+3 0.638170 0.686040 0.555200 0.479075
P3    P     P_3+3 0.073248 0.752049 0.416214 0.496163
O7    O     O_2   0.810360 0.697790 0.534100 -0.339147
O8    O     O_3   0.049190 0.643760 0.407000 -0.409397
O9    O     O_2   0.947869 0.789104 0.464893 -0.366544
O10   O     O_3   0.654550 0.716843 0.647514 -0.560018
O11   O     O_3   0.027622 0.788678 0.336102 -0.490045
C2    C     C_3   0.996635 0.723000 0.282030 0.557099
H3    H     H_    0.902592 0.680342 0.296553 0.171949
H4    H     H_    0.107199 0.690709 0.271857 0.053224
C3    C     C_3   0.936468 0.754949 0.214883 -0.848116
H5    H     H_    0.900684 0.703323 0.172536 0.228629
H6    H     H_    0.830909 0.791081 0.225367 0.276641
C4    C     C_3   0.207148 0.709667 0.620998 0.396091
H7    H     H_    0.319563 0.685207 0.602222 0.076258
H8    H     H_    0.110446 0.697981 0.577568 0.120625
C5    C     C_3   0.234414 0.800894 0.643353 -0.943788
H9    H     H_    0.336296 0.814065 0.684358 0.278680
H10   H     H_    0.262117 0.831795 0.597500 0.213479
H11   H     H_    0.124593 0.825542 0.665426 0.268584
Ba1   Ba    Ba6+2 0.843980 0.537940 0.465850 1.583500
C6    C     C_3   0.134217 0.287584 0.287019 0.338598
H12   H     H_    0.167506 0.232406 0.309853 0.152244
H13   H     H_    0.247195 0.325635 0.287280 0.087724
C7    C     C_3   0.063265 0.261015 0.211343 -0.983161
H14   H     H_    0.957264 0.217669 0.211416 0.271498
H15   H     H_    0.154473 0.230735 0.179108 0.248312
H16   H     H_    0.025200 0.314183 0.186846 0.250314
C8    C     C_3   0.704375 0.654353 0.684037 0.316760
H17   H     H_    0.826809 0.639403 0.670114 0.108122
H18   H     H_    0.616738 0.600862 0.672181 0.159833
C9    C     C_3   0.708999 0.682162 0.763844 -0.750628
H19   H     H_    0.738224 0.630566 0.792623 0.149813
H20   H     H_    0.588579 0.701147 0.778264 0.249966
P4    P     P_3+3 0.141040 0.569320 0.660360 0.467758
O12   O     O_2   0.314110 0.545480 0.671320 -0.362327
O13   O     O_3   0.061730 0.544170 0.583900 -0.378752
O14   O     O_3   0.555240 0.398120 0.628310 -0.402670
O15   O     O_3   0.162608 0.675143 0.680294 -0.573503
P5    P     P_3+3 0.116122 0.248402 0.588692 0.499387
O16   O     O_3   0.629280 0.402460 0.464250 -0.384016
O17   O     O_3   0.140510 0.356300 0.593010 -0.336037
O18   O     O_2   0.254133 0.213442 0.546585 -0.362586
O19   O     O_3   0.161936 0.221865 0.673176 -0.541696
Ba2   Ba    Ba6+2 0.345840 0.462130 0.534150 1.623383
P6    P     P_3+3 0.604506 0.579296 0.278091 0.498866
C10   C     C_3   0.470940 0.702893 0.228065 0.286201
H21   H     H_    0.366592 0.660031 0.232514 0.068100
O20   O     O_3   0.560420 0.597610 0.535760 -0.454501
C11   C     C_3   0.614807 0.324752 0.310750 0.373140
H22   H     H_    0.600391 0.390830 0.323827 0.119534
H23   H     H_    0.737020 0.309403 0.326811 0.139631
C12   C     C_3   0.587929 0.301233 0.230772 -0.998043
H24   H     H_    0.466557 0.316327 0.211889 0.243718
H25   H     H_    0.678846 0.335135 0.204017 0.243692
H26   H     H_    0.599945 0.235047 0.216410 0.276257
P7    P     P_3+3 0.551882 0.300648 0.436270 0.486158
O21   O     O_2   0.379340 0.302240 0.465940 -0.305966
O22   O     O_3   0.502953 0.281205 0.344709 -0.586466
H27   H     H_    0.031845 0.794895 0.196958 0.274246
C13   C     C_3   0.054085 0.254123 0.721808 0.359852
H28   H     H_    0.952579 0.282804 0.696941 0.019803
C14   C     C_3   0.145325 0.319383 0.775917 -0.793552
H29   H     H_    0.190784 0.369769 0.748502 0.274489
H30   H     H_    0.064856 0.343798 0.816517 0.211514
H31   H     H_    0.248402 0.293924 0.802911 0.281394
P8    P     P_3+3 0.582002 0.406918 0.722557 0.450643
C15   C     C_3   0.561353 0.251089 0.694345 0.445019
H32   H     H_    0.686620 0.257585 0.679022 0.032240
O23   O     O_2   0.454907 0.462656 0.753839 -0.381721
O24   O     O_3   0.530945 0.312657 0.749005 -0.525676
H33   H     H_    0.478031 0.252562 0.647025 0.169327
H34   H     H_    0.617082 0.165614 0.767172 0.264124
C16   C     C_3   0.535261 0.168821 0.719615 -0.857934
H35   H     H_    0.559885 0.119799 0.676818 0.234818
H36   H     H_    0.409524 0.159376 0.733752 0.276523
N1    N     N_R   0.202296 0.525851 0.955281 -0.063831
N2    N     N_R   0.254372 0.523575 0.022804 -0.065777
C17   C     C_2   0.318161 0.488213 0.291457 -0.318109
C18   C     C_3   0.443553 0.498837 0.239625 0.179885
C19   C     C_2   0.374907 0.508410 0.165894 -0.271397
C20   C     C_2   0.214753 0.498563 0.147748 0.069633
C21   C     C_2   0.105083 0.481071 0.205024 -0.296861
C22   C     C_1   0.164548 0.472149 0.270314 0.254660
N3    N     N_R   0.995541 0.484610 0.049412 -0.078935
N4    N     N_R   0.943571 0.486493 0.981743 -0.077162
C23   C     C_R   0.045344 0.507166 0.932806 0.160615
C24   C     C_R   0.152823 0.502635 0.071720 0.222537
C25   C     C_R   0.084413 0.534495 0.804418 -0.231529
C26   C     C_R   0.035341 0.520253 0.730672 0.204070
C27   C     C_R   0.787936 0.449702 0.758128 0.162327
C28   C     C_R   0.834868 0.464673 0.830972 -0.242005
C29   C     C_R   0.987848 0.503148 0.855363 0.020164
C30   C     C_R   0.896078 0.470962 0.709790 -0.478625
H37   H     H_    0.459380 0.519098 0.126668 0.148427
H38   H     H_    0.977695 0.468785 0.190978 0.172473
H39   H     H_    0.196692 0.569130 0.821772 0.164307
H40   H     H_    0.753675 0.444540 0.868062 0.164741
H41   H     H_    0.362865 0.481332 0.344928 0.137378
C31   C     C_R   0.387413 0.734928 0.467930 -0.454476
C32   C     C_R   0.528595 0.760157 0.510064 0.261641
C33   C     C_R   0.573696 0.844019 0.525805 -0.200377
C34   C     C_R   0.472599 0.901999 0.502311 0.138486
C35   C     C_R   0.320122 0.874624 0.469388 -0.263210
C36   C     C_R   0.276720 0.791180 0.453365 0.241550
C37   C     C_R   0.616676 0.141587 0.475232 -0.225005
C38   C     C_R   0.674480 0.223326 0.474049 0.096782
C39   C     C_R   0.708165 0.090889 0.515764 0.126757
N5    N     N_2   0.517100 0.987324 0.510450 -0.055587
N6    N     N_2   0.664898 0.006051 0.516501 -0.044413
C40   C     C_R   0.835238 0.245750 0.498880 -0.308718
H42   H     H_    0.236831 0.918149 0.455044 0.178577
C41   C     C_R   0.919471 0.201160 0.543769 0.162874
C42   C     C_R   0.855642 0.123390 0.551967 -0.253017
H43   H     H_    0.685149 0.863755 0.556950 0.166593
H44   H     H_    0.924869 0.086142 0.583143 0.195048
C43   C     C_2   0.458829 0.779497 0.279310 1.008889
O25   O     O_2   0.339225 0.818077 0.276347 -0.652185
O26   O     O_R   0.585469 0.806693 0.329943 -0.735882
H45   H     H_    0.565554 0.859893 0.359669 0.344844
C44   C     C_2   0.834173 0.750546 0.786173 0.734779
H46   H     H_    0.959734 0.740910 0.779257 0.017473
O27   O     O_2   0.795979 0.817058 0.812458 -0.544856
C45   C     C_2   0.312789 0.745059 0.122113 1.111523
O28   O     O_2   0.295840 0.814442 0.109940 -0.593609
O29   O     O_R   0.186453 0.685639 0.106072 -0.826902
H47   H     H_    0.089665 0.706195 0.081071 0.320160
C46   C     C_2   0.983900 0.185898 0.757365 0.962961
O30   O     O_2   0.910568 0.127645 0.721031 -0.659218
O31   O     O_R   0.001808 0.188500 0.831160 -0.790984
H48   H     H_    0.948326 0.138947 0.847844 0.344807
C47   C     C_2   0.849189 0.449838 0.635934 1.164434
O32   O     O_2   0.846840 0.379531 0.608321 -0.655030
O33   O     O_R   0.774745 0.507752 0.602753 -0.797283
H49   H     H_    0.695414 0.483483 0.563697 0.406992
C48   C     C_2   0.483372 0.105612 0.423253 1.062534
O34   O     O_2   0.353459 0.135466 0.421797 -0.603293
O35   O     O_R   0.508237 0.037123 0.375006 -0.797487
H50   H     H_    0.409188 0.017425 0.342463 0.341411
C49   C     C_2   0.358944 0.651583 0.432275 0.684400
H51   H     H_    0.338454 0.600781 0.460889 0.042839
O36   O     O_2   0.339026 0.640799 0.367839 -0.655322
C50   C     C_2   0.934070 0.303111 0.465872 0.669169
H52   H     H_    0.039889 0.281712 0.441302 0.036491
O37   O     O_2   0.915021 0.375090 0.474996 -0.468337

loop_
_geom_bond_atom_site_label_1
_geom_bond_atom_site_label_2
_geom_bond_distance
_ccdc_geom_bond_type
C1    H1    1.113082 S    
O14   Ba2   2.786057 S    
C25   C29   1.433304 A    
N1    N2    1.338783 A    
C12   H25   1.110826 S    
C21   C22   1.341254 D    
Ba2   O20   2.795956 S    
C5    H10   1.102426 S    
C2    C3    1.519277 S    
C14   H29   1.108084 S    
C19   H37   1.085168 S    
O4    P6    1.540605 D    
O5    C6    1.406586 S    
C32   C33   1.411728 A    
C4    C5    1.520715 S    
P1    Ba1   3.406894 S    
O8    Ba1   2.781244 S    
C43   O26   1.398923 S    
Ba2   O21   2.836875 S    
C10   H21   1.109997 S    
N3    C24   1.360752 A    
C20   C24   1.519647 S    
C41   C42   1.403933 A    
C8    H18   1.109516 S    
P4    O12   1.532145 D    
P5    O19   1.751994 S    
C40   C50   1.458695 S    
C11   C12   1.520874 S    
C42   H44   1.081973 S    
C7    H15   1.110309 S    
C4    H8    1.109859 S    
O26   H45   1.012952 S    
C21   H38   1.083194 S    
C17   H41   1.086438 S    
C26   C30   1.390052 A    
C37   C38   1.421126 A    
C11   H23   1.102721 S    
P1    O1    1.531860 D    
Ba1   O20   2.949032 S    
C17   C22   1.323397 D    
C38   C40   1.409354 A    
C31   C32   1.395996 A    
C34   N5    1.432569 S    
O2    Ba2   2.792159 S    
O19   C13   1.409675 S    
C7    H14   1.110700 S    
P1    C22   1.868425 S    
O12   Ba2   2.824679 S    
P5    O17   1.786057 S    
C28   H40   1.082300 S    
C9    C44   1.499749 S    
P4    O15   1.747483 S    
C50   O37   1.208419 D    
C2    H4    1.110529 S    
O17   Ba2   2.782059 S    
P3    C36   1.849089 S    
P6    C18   1.883404 S    
C12   H26   1.110609 S    
P2    Ba1   3.414844 S    
Ba1   O13   2.791507 S    
C3    H5    1.109990 S    
O3    P6    1.771652 S    
C5    H11   1.110981 S    
C14   H30   1.108461 S    
C9    H20   1.112564 S    
O6    P6    1.752468 S    
P2    O20   1.561802 S    
C33   C34   1.417902 A    
C35   C36   1.402774 A    
C8    C9    1.526313 S    
C48   O35   1.398670 S    
P4    O13   1.555965 S    
O31   H48   1.013888 S    
P5    O18   1.543509 D    
C48   O34   1.220929 D    
P2    C32   1.849506 S    
P7    O21   1.583057 D    
C27   C28   1.403834 A    
C7    H16   1.108242 S    
C4    H7    1.106707 S    
Ba1   O16   2.796578 S    
C19   C20   1.357376 D    
C13   C14   1.526146 S    
C15   H32   1.108497 S    
C2    H3    1.102660 S    
C45   O29   1.395011 S    
C31   C49   1.459466 S    
C1    C45   1.499840 S    
P1    O5    1.751260 S    
C11   H22   1.109675 S    
P1    O2    1.555771 S    
C6    H13   1.106352 S    
O14   P8    1.781305 S    
P3    O11   1.747717 S    
C6    C7    1.522592 S    
C49   O36   1.216390 D    
C1    C10   1.540774 S    
P2    O10   1.759303 S    
C15   H33   1.108600 S    
H34   C16   1.110153 S    
P3    O9    1.543584 D    
P8    O24   1.749952 S    
N4    C23   1.365913 A    
O11   C2    1.397761 S    
C39   C42   1.416404 A    
C13   C46   1.508328 S    
C16   H35   1.110842 S    
O2    Ba1   2.951537 S    
P7    C38   1.880599 S    
C33   H43   1.082648 S    
C23   C29   1.514990 S    
C46   O31   1.399640 S    
P3    O8    1.785737 S    
C27   C30   1.395744 A    
C3    H6    1.109949 S    
C14   H31   1.110468 S    
C30   C47   1.428317 S    
C9    H19   1.110442 S    
C44   H46   1.084981 S    
C8    H17   1.107549 S    
C47   O33   1.379016 S    
O13   Ba2   2.952464 S    
C34   C35   1.408414 A    
P8    O23   1.545881 D    
C4    O15   1.396479 S    
C47   O32   1.215111 D    
O7    Ba1   2.836729 S    
P5    C41   1.884125 S    
C16   H36   1.109706 S    
O29   H47   1.013523 S    
C44   O27   1.220461 D    
P4    C26   1.899024 S    
C10   C43   1.510169 S    
N5    N6    1.251779 D    
C45   O28   1.222707 D    
C25   H39   1.082166 S    
C25   C26   1.423636 A    
C3    H27   1.109023 S    
O33   H49   0.991772 S    
Ba1   Ba2   4.600913 S    
C6    H12   1.110376 S    
C17   C18   1.504372 S    
C13   H28   1.109454 S    
C37   C48   1.485850 S    
P2    O7    1.528379 D    
C15   O24   1.405260 S    
C18   C19   1.516560 S    
O16   P7    1.778162 S    
C11   O22   1.394478 S    
C20   C21   1.516177 S    
C37   C39   1.439166 A    
P8    C27   1.875117 S    
O16   Ba2   2.948091 S    
O35   H50   1.013918 S    
C28   C29   1.419302 A    
C39   N6    1.439699 S    
C40   C41   1.391318 A    
O3    Ba1   2.786672 S    
C46   O30   1.221818 D    
O10   C8    1.396308 S    
C12   H24   1.109661 S    
C35   H42   1.082973 S    
C15   C16   1.520577 S    
P4    Ba2   3.407600 S    
C1    H2    1.111159 S    
N3    N4    1.340040 A    
C49   H51   1.077828 S    
O1    Ba1   2.824086 S    
P7    O22   1.749368 S    
C50   H52   1.082930 S    
N1    C23   1.360274 A    
C31   C36   1.396057 A    
O6    C10   1.406176 S    
N2    C24   1.365778 A    
C43   O25   1.221936 D    
C5    H9    1.110792 S    
