data_mof_unit_46654.cif
_audit_creation_date              2012-12-10T20:26:24-0500
_audit_creation_method            fapswitch 2.2
_symmetry_space_group_name_H-M    P1
_symmetry_Int_Tables_number       1
_space_group_crystal_system       triclinic
_cell_length_a                    10.672542
_cell_length_b                    10.661047
_cell_length_c                    9.893991
_cell_angle_alpha                 89.857817
_cell_angle_beta                  91.80506
_cell_angle_gamma                 89.923586
_cell_volume                      1125.17976422

loop_
_atom_site_label
_atom_site_type_symbol
_atom_type_description
_atom_site_fract_x
_atom_site_fract_y
_atom_site_fract_z
_atom_type_partial_charge
C1    C     C_R   0.506728 0.260252 0.500465 0.968875
C2    C     C_R   0.528946 0.128814 0.504241 -0.307952
C3    C     C_R   0.593762 0.065765 0.402011 0.367396
C4    C     C_R   0.593413 0.934445 0.401627 0.360584
C5    C     C_R   0.528092 0.871089 0.503330 -0.297859
C6    C     C_R   0.491422 0.935956 0.617000 0.005954
C7    C     C_3   0.374320 0.927843 0.695629 0.221531
C8    C     C_3   0.375654 0.071274 0.697498 0.219740
C9    C     C_R   0.397962 0.457718 0.067531 0.113786
C10   C     C_R   0.604205 0.532141 0.075168 0.025574
C11   C     C_R   0.604165 0.532240 0.931574 -0.015005
C12   C     C_R   0.262652 0.497028 0.497804 0.860170
C13   C     C_R   0.398643 0.456639 0.925062 0.078497
C14   C     C_3   0.268271 0.507937 0.912286 0.163504
C15   C     C_3   0.267549 0.510354 0.066420 0.521405
C16   C     C_R   0.506362 0.739730 0.500082 0.929675
C17   C     C_R   0.737138 0.508449 0.502303 0.947085
C18   C     C_2   0.931305 0.557682 0.399852 -0.044068
C19   C     C_2   0.867546 0.535231 0.510260 -0.255235
C20   C     C_2   0.065545 0.565865 0.413935 -0.204543
C21   C     C_2   0.130930 0.483289 0.490141 0.295877
C22   C     C_R   0.492299 0.063195 0.617848 0.011123
H1    H     H_    0.886328 0.569082 0.300541 0.204264
H2    H     H_    0.687500 0.561557 0.131336 0.163996
H3    H     H_    0.687341 0.561586 0.880512 0.161595
H4    H     H_    0.264101 0.601827 0.863240 0.195569
H5    H     H_    0.913328 0.536340 0.610152 0.199893
H6    H     H_    0.111732 0.641829 0.361930 0.198067
H7    H     H_    0.294226 0.887830 0.635472 0.073746
H8    H     H_    0.295884 0.114721 0.639325 0.113681
N1    N     N_R   0.499170 0.499140 0.142800 -0.101033
N2    N     N_R   0.499170 0.499180 0.857150 -0.110357
O1    O     O_R   0.500020 0.316790 0.614690 -0.578328
O2    O     O_R   0.500000 0.316760 0.385350 -0.561650
O3    O     O_R   0.319080 0.500020 0.614640 -0.595761
O4    O     O_R   0.319070 0.499980 0.385300 -0.583967
O5    O     O_R   0.500000 0.683240 0.614650 -0.603110
O6    O     O_R   0.499980 0.683210 0.385310 -0.551762
O7    O     O_R   0.680930 0.500020 0.614700 -0.627391
O8    O     O_R   0.680920 0.499980 0.385360 -0.613792
Zn1   Zn    Zn3+2 0.500010 0.500020 0.653130 1.041894
Zn2   Zn    Zn3+2 0.499990 0.499980 0.346870 1.088724
Cl1   Cl    Cl    0.406934 0.142218 0.858835 -0.432541
O9    O     O_3   0.181411 0.423853 0.852184 -0.648009
H9    H     H_    0.207082 0.336538 0.874742 0.404101
Cl2   Cl    Cl    0.259995 0.666470 0.131358 -0.515343
Cl3   Cl    Cl    0.158347 0.405661 0.141081 -0.473137
Cl4   Cl    Cl    0.070238 0.342398 0.557315 -0.507768
Cl5   Cl    Cl    0.673659 0.147733 0.274869 -0.407827
Cl6   Cl    Cl    0.673075 0.852874 0.274296 -0.473200
Cl7   Cl    Cl    0.402901 0.850892 0.854785 -0.426668

loop_
_geom_bond_atom_site_label_1
_geom_bond_atom_site_label_2
_ccdc_geom_bond_type
C2    C22   A    
C8    C22   S    
N2    Zn1   S    
C6    C7    S    
C7    H7    S    
N1    Zn2   S    
C12   O4    A    
C19   H5    S    
C13   N2    A    
O4    Zn2   S    
O2    Zn2   S    
C8    Cl1   S    
C15   Cl3   S    
C16   O5    A    
C21   Cl4   S    
C8    H8    S    
O8    Zn2   S    
C2    C3    A    
C3    Cl5   S    
C7    Cl7   S    
C7    C8    S    
O7    Zn1   S    
C13   C14   S    
C14   H4    S    
C12   O3    A    
C12   C21   S    
C17   C19   S    
C1    O2    A    
O6    Zn2   S    
O1    Zn1   S    
C18   C20   S    
O5    Zn1   S    
C5    C6    A    
O3    Zn1   S    
C10   C11   A    
C9    N1    A    
C1    O1    A    
C3    C4    A    
C6    C22   A    
C20   C21   D    
C14   O9    S    
C1    C2    S    
C17   O7    A    
C4    Cl6   S    
C11   H3    S    
C14   C15   S    
C18   C19   D    
C5    C16   S    
C9    C13   A    
C20   H6    S    
C15   Cl2   S    
C10   H2    S    
C9    C15   S    
C10   N1    A    
O9    H9    S    
C18   H1    S    
C16   O6    A    
C4    C5    A    
C11   N2    A    
C17   O8    A    
