data_mof_unit_5492.cif
_audit_creation_date              2012-12-11T15:32:42-0500
_audit_creation_method            fapswitch 2.2
_symmetry_space_group_name_H-M    P1
_symmetry_Int_Tables_number       1
_space_group_crystal_system       triclinic
_cell_length_a                    6.95761
_cell_length_b                    20.294022
_cell_length_c                    24.502012
_cell_angle_alpha                 89.666418
_cell_angle_beta                  90.629542
_cell_angle_gamma                 89.090161
_cell_volume                      3458.92519548

loop_
_atom_site_label
_atom_site_type_symbol
_atom_type_description
_atom_site_fract_x
_atom_site_fract_y
_atom_site_fract_z
_atom_type_partial_charge
O1    O     O_R   0.507320 0.423560 0.460500 -0.535043
O2    O     O_R   0.170760 0.556250 0.437010 -0.531190
O3    O     O_R   0.004030 0.576440 0.539500 -0.534979
C1    C     C_R   0.338189 0.575854 0.420661 0.714852
O4    O     O_R   0.177370 0.422820 0.454110 -0.540041
O5    O     O_R   0.010680 0.442050 0.556720 -0.535269
C2    C     C_R   0.347132 0.399059 0.442848 0.695218
O6    O     O_R   0.500680 0.557950 0.443280 -0.530301
O7    O     O_3   0.340380 0.506470 0.533650 -0.367598
V1    V     V_3+5 0.064130 0.498800 0.493760 1.409527
O8    O     O_R   0.681160 0.443750 0.562990 -0.542343
C3    C     C_R   0.851261 0.423822 0.578873 0.723382
O9    O     O_R   0.674560 0.577180 0.545890 -0.538639
C4    C     C_R   0.842607 0.601120 0.556785 0.698821
V2    V     V_3+5 0.564560 0.501200 0.506240 1.399200
O10   O     O_3   0.838180 0.493530 0.466350 -0.362484
C5    C     C_R   0.974823 0.837031 0.910570 -0.133908
C6    C     C_R   0.847760 0.663239 0.588072 -0.068497
C7    C     C_R   0.004320 0.718007 0.903328 -0.181813
C8    C     C_R   0.034933 0.775618 0.933165 0.027001
C9    C     C_R   0.903729 0.839615 0.855978 0.281024
C10   C     C_R   0.906196 0.781494 0.822850 0.018063
C11   C     C_R   0.934955 0.720490 0.849595 0.046153
C12   C     C_R   0.882689 0.780542 0.764599 0.054024
C13   C     C_R   0.845115 0.719577 0.736639 0.026806
C14   C     C_R   0.812675 0.662563 0.769833 0.075689
C15   C     C_R   0.883223 0.662259 0.823651 -0.205375
C16   C     C_R   0.913340 0.837654 0.733350 -0.102613
C17   C     C_R   0.889204 0.838202 0.677290 -0.204922
C18   C     C_R   0.857188 0.780026 0.649100 0.111289
C19   C     C_R   0.845832 0.719203 0.677619 0.071498
C20   C     C_R   0.852902 0.782296 0.591963 -0.185033
C21   C     C_R   0.847281 0.724698 0.561054 0.069548
C22   C     C_R   0.852583 0.661045 0.645565 -0.252890
H1    H     H_    0.882219 0.616882 0.847277 0.113252
H2    H     H_    0.874337 0.613524 0.663792 0.109572
H3    H     H_    0.909755 0.884096 0.655383 0.127773
H4    H     H_    0.036844 0.670563 0.922177 0.123831
H5    H     H_    0.967134 0.882192 0.751197 0.186325
H6    H     H_    0.861778 0.829405 0.571024 0.113558
C23   C     C_3   0.861303 0.310395 0.769384 0.093222
C24   C     C_3   0.047672 0.272332 0.786110 -0.183945
H7    H     H_    0.160604 0.289745 0.814707 0.104181
C25   C     C_1   0.959296 0.122682 0.876037 -0.164180
C26   C     C_1   0.863858 0.378529 0.624688 -0.210096
C27   C     C_3   0.741168 0.247431 0.776801 -0.149657
C28   C     C_3   0.927882 0.209344 0.792556 0.135067
C29   C     C_3   0.775631 0.229938 0.715843 -0.189609
C30   C     C_3   0.893414 0.293125 0.709097 0.121626
C31   C     C_3   0.961457 0.191177 0.732353 -0.155469
C32   C     C_3   0.077129 0.254889 0.725418 0.118788
C33   C     C_1   0.945883 0.161768 0.838435 -0.041255
C34   C     C_1   0.875605 0.340090 0.662726 -0.051004
H8    H     H_    0.004611 0.141753 0.717130 0.123562
H9    H     H_    0.670625 0.211733 0.685362 0.127276
H10   H     H_    0.602205 0.244532 0.798454 0.108059
C35   C     C_3   0.511155 0.720189 0.209589 -0.240378
C36   C     C_3   0.311427 0.697126 0.229763 -0.217534
H11   H     H_    0.229200 0.654927 0.213600 0.167808
H12   H     H_    0.598121 0.696655 0.177136 0.167232
C37   C     C_1   0.345562 0.620433 0.373936 -0.168535
C38   C     C_1   0.477731 0.878362 0.125178 -0.162784
C39   C     C_3   0.576878 0.728666 0.269729 0.472871
C40   C     C_3   0.379293 0.706049 0.289575 0.021139
C41   C     C_3   0.503632 0.800815 0.268908 0.005088
C42   C     C_3   0.437683 0.792606 0.209129 0.004657
C43   C     C_3   0.304711 0.778399 0.289139 -0.231730
C44   C     C_3   0.240523 0.769840 0.229007 0.476684
C45   C     C_1   0.357203 0.658448 0.335476 0.076267
C46   C     C_1   0.463313 0.840031 0.163289 0.062036
H13   H     H_    0.215882 0.803234 0.320421 0.160264
C47   C     C_R   0.467609 0.162499 0.088814 -0.037408
C48   C     C_R   0.362689 0.337872 0.410233 -0.071823
C49   C     C_R   0.472930 0.281438 0.091201 -0.171948
C50   C     C_R   0.479602 0.222864 0.061982 -0.167901
C51   C     C_R   0.448818 0.160984 0.145788 -0.202292
C52   C     C_R   0.446046 0.220063 0.177058 0.067942
C53   C     C_R   0.456619 0.281547 0.148736 0.094155
C54   C     C_R   0.434750 0.219786 0.235412 0.057819
C55   C     C_R   0.410655 0.280368 0.264021 0.022267
C56   C     C_R   0.438857 0.339374 0.235308 -0.220959
C57   C     C_R   0.456889 0.341656 0.178267 0.067394
C58   C     C_R   0.460797 0.161470 0.266531 -0.178705
C59   C     C_R   0.472119 0.163352 0.323185 -0.196588
C60   C     C_R   0.440248 0.222164 0.351161 0.123472
C61   C     C_R   0.386856 0.280357 0.322193 0.071093
C62   C     C_R   0.465063 0.223366 0.407902 -0.176160
C63   C     C_R   0.438532 0.281722 0.436428 -0.198427
C64   C     C_R   0.317685 0.335601 0.353380 -0.003057
H14   H     H_    0.471022 0.282503 0.479787 0.114054
H15   H     H_    0.506805 0.118230 0.345341 0.120714
H16   H     H_    0.482660 0.326514 0.067779 0.108202
H17   H     H_    0.494058 0.224697 0.018005 0.099158
H18   H     H_    0.433849 0.113069 0.164343 0.093507
H19   H     H_    0.456203 0.383824 0.258555 0.126785
H20   H     H_    0.488717 0.114167 0.248272 0.122512
H21   H     H_    0.513252 0.179623 0.430007 0.117766
O11   O     O_R   0.323550 0.942140 0.056770 -0.538379
O12   O     O_R   0.647080 0.077200 0.045890 -0.542393
O13   O     O_R   0.813610 0.057920 0.943260 -0.526841
C65   C     C_R   0.477544 0.101184 0.056772 0.677015
O14   O     O_R   0.653470 0.943760 0.063000 -0.535238
O15   O     O_R   0.820050 0.923540 0.960490 -0.515175
C66   C     C_R   0.486012 0.923705 0.079018 0.699371
O16   O     O_R   0.317110 0.076520 0.039540 -0.540892
O17   O     O_3   0.483830 0.993580 0.966380 -0.349020
V3    V     V_3+5 0.760140 0.001190 0.006240 1.487877
O18   O     O_R   0.149510 0.922740 0.954070 -0.543690
C67   C     C_R   0.981679 0.897976 0.944011 0.779882
O19   O     O_R   0.143120 0.056170 0.936970 -0.538479
C68   C     C_R   0.972912 0.076498 0.921316 0.759309
V4    V     V_3+5 0.259690 0.998700 0.993700 1.474106
O20   O     O_3   0.986130 0.006420 0.033620 -0.375815
C69   C     C_3   0.808408 0.379596 0.789160 -0.376230
C70   C     C_3   0.778550 0.380740 0.850951 -0.290056
C71   C     C_3   0.726002 0.450056 0.870154 -0.790586
H22   H     H_    0.842555 0.484791 0.860212 0.223136
H23   H     H_    0.589994 0.467403 0.850251 0.225719
H24   H     H_    0.705863 0.449639 0.915044 0.216894
H25   H     H_    0.660959 0.346874 0.862018 0.188828
H26   H     H_    0.912486 0.363933 0.872313 0.192211
H27   H     H_    0.926143 0.413408 0.778115 0.171228
H28   H     H_    0.675008 0.396897 0.767950 0.169426
C72   C     C_3   0.266610 0.256947 0.695269 -0.365551
C73   C     C_3   0.342592 0.327614 0.690272 -0.315394
C74   C     C_3   0.380572 0.346556 0.631072 -0.702561
H29   H     H_    0.426507 0.398591 0.629310 0.225185
H30   H     H_    0.494957 0.314245 0.613987 0.213769
H31   H     H_    0.248601 0.341624 0.605751 0.226342
H32   H     H_    0.241371 0.364547 0.707793 0.194218
H33   H     H_    0.478353 0.331344 0.713857 0.189487
H34   H     H_    0.370398 0.225507 0.718512 0.154657
H35   H     H_    0.245600 0.234068 0.654560 0.178739
Cl1   Cl    Cl    0.016525 0.799397 0.202082 -0.698060
C75   C     C_3   0.609712 0.860316 0.291482 -0.287904
C76   C     C_3   0.631051 0.856381 0.353764 -0.316082
C77   C     C_3   0.749675 0.913247 0.375578 -0.785728
H36   H     H_    0.896430 0.911532 0.358160 0.236904
H37   H     H_    0.679209 0.961183 0.364903 0.230480
H38   H     H_    0.762141 0.909242 0.420704 0.215182
H39   H     H_    0.486755 0.858357 0.372756 0.186895
H40   H     H_    0.702491 0.809158 0.365916 0.236800
H41   H     H_    0.753464 0.862534 0.272551 0.246266
H42   H     H_    0.527509 0.905799 0.280006 0.162418
Cl2   Cl    Cl    0.801016 0.698400 0.296339 -0.687474
C78   C     C_3   0.477371 0.407543 0.148266 -0.365778
C79   C     C_3   0.475099 0.469984 0.183639 -0.304633
C80   C     C_3   0.490436 0.532062 0.148588 -0.762025
H43   H     H_    0.625366 0.530753 0.124770 0.227940
H44   H     H_    0.365401 0.536625 0.120156 0.222440
H45   H     H_    0.492167 0.575950 0.175350 0.225679
H46   H     H_    0.338879 0.473135 0.206873 0.195768
H47   H     H_    0.598963 0.468526 0.212649 0.198231
H48   H     H_    0.615129 0.406227 0.125674 0.174448
H49   H     H_    0.357005 0.412444 0.118207 0.174114
C81   C     C_3   0.168528 0.384534 0.330355 -0.390680
C82   C     C_3   0.965348 0.366962 0.349186 -0.263184
C83   C     C_3   0.819033 0.420235 0.332175 -0.723483
H50   H     H_    0.856892 0.468192 0.350719 0.243749
H51   H     H_    0.814869 0.425562 0.287056 0.212020
H52   H     H_    0.674107 0.406486 0.346288 0.207244
H53   H     H_    0.923001 0.319467 0.330465 0.192811
H54   H     H_    0.960041 0.360469 0.394096 0.211114
H55   H     H_    0.205804 0.435378 0.342814 0.165123
H56   H     H_    0.159704 0.384587 0.285386 0.183694
C84   C     C_3   0.862032 0.730933 0.499729 -0.363324
C85   C     C_3   0.072888 0.739678 0.483979 -0.309724
C86   C     C_3   0.092006 0.755859 0.423636 -0.750248
H57   H     H_    0.028029 0.716401 0.398456 0.281385
H58   H     H_    0.019262 0.803606 0.413943 0.233537
H59   H     H_    0.246665 0.760015 0.413763 0.204020
H60   H     H_    0.137172 0.780411 0.507846 0.195471
H61   H     H_    0.155675 0.693617 0.493383 0.199957
H62   H     H_    0.802929 0.687229 0.478682 0.173581
H63   H     H_    0.774457 0.774182 0.485465 0.173416
C87   C     C_3   0.126097 0.768392 0.989393 -0.364554
C88   C     C_3   0.985814 0.739146 0.030554 -0.321233
C89   C     C_3   0.091673 0.716386 0.082334 -0.694196
H64   H     H_    0.191956 0.674890 0.073112 0.203671
H65   H     H_    0.175006 0.757520 0.099866 0.259659
H66   H     H_    0.986389 0.699190 0.112804 0.249863
H67   H     H_    0.875552 0.777084 0.041147 0.204483
H68   H     H_    0.910946 0.696104 0.012911 0.192107
H69   H     H_    0.255332 0.735736 0.985959 0.179891
H70   H     H_    0.178449 0.815893 0.005394 0.171397
Cl3   Cl    Cl    0.778297 0.912400 0.834918 -0.685941
C90   C     C_3   0.678720 0.606240 0.754979 -0.363232
C91   C     C_3   0.483818 0.631025 0.732027 -0.274094
C92   C     C_3   0.347931 0.573974 0.721657 -0.779116
H71   H     H_    0.410701 0.539448 0.691399 0.227918
H72   H     H_    0.320432 0.546875 0.760244 0.221547
H73   H     H_    0.208769 0.593465 0.705290 0.220368
H74   H     H_    0.416119 0.665354 0.761651 0.203467
H75   H     H_    0.502361 0.658049 0.693050 0.207187
H76   H     H_    0.746780 0.568958 0.728537 0.157558
H77   H     H_    0.646070 0.577486 0.792473 0.175101

loop_
_geom_bond_atom_site_label_1
_geom_bond_atom_site_label_2
_ccdc_geom_bond_type
C13   C19   A    
C29   H9    S    
C42   C44   S    
C62   C63   A    
C39   C41   S    
C74   H29   S    
C70   H26   S    
C90   H77   S    
C23   C24   S    
C4    C6    S    
O2    C1    A    
C21   C84   S    
C80   H45   S    
C79   C80   S    
C35   C42   S    
C47   C51   A    
C69   C70   S    
C9    Cl3   S    
C2    C48   S    
O17   V4    S    
C52   C53   A    
C71   H22   S    
C77   H37   S    
C38   C46   T    
C84   H63   S    
C82   C83   S    
C72   H35   S    
C16   C17   A    
C80   H44   S    
C23   C69   S    
O5    C3    A    
C18   C19   A    
C56   H19   S    
C30   C34   S    
C41   C43   S    
O17   V3    S    
V2    O10   S    
C5    C8    A    
O18   C67   A    
C72   H34   S    
C44   Cl1   S    
C49   H16   S    
C92   H72   S    
C53   C57   A    
O19   C68   A    
V3    O20   S    
C55   C61   A    
C83   H52   S    
C51   H18   S    
O8    V2    S    
C73   H32   S    
C86   H59   S    
C78   H49   S    
C7    C8    A    
C30   C32   S    
C76   H40   S    
C23   C27   S    
C12   C13   A    
C35   C39   S    
O1    V2    S    
C59   H15   S    
C11   C15   A    
O7    V1    S    
C82   H54   S    
C43   H13   S    
C1    O6    A    
C24   C32   S    
C85   H61   S    
C25   C33   T    
C86   H58   S    
C26   C34   T    
O9    C4    A    
C83   H51   S    
C32   C72   S    
C84   C85   S    
C47   C50   A    
C23   C30   S    
V4    O20   S    
C57   C78   S    
C89   H64   S    
C28   C31   S    
C38   C66   S    
C52   C54   A    
C36   C40   S    
C77   H38   S    
C27   C29   S    
C84   H62   S    
C65   O16   A    
O11   V4    S    
C49   C50   A    
C60   C62   A    
C43   C44   S    
C40   C43   S    
C75   C76   S    
C51   C52   A    
C87   H70   S    
C85   C86   S    
O4    C2    A    
C28   C33   S    
C55   C56   A    
C64   C81   S    
C16   H5    S    
C15   H1    S    
C36   H11   S    
C88   H68   S    
C1    C37   S    
C56   C57   A    
C54   C55   A    
C91   C92   S    
C69   H27   S    
C83   H50   S    
C92   H73   S    
C7    C11   A    
C48   C63   A    
C17   C18   A    
C7    H4    S    
C14   C90   S    
C73   H33   S    
C58   C59   A    
C78   H48   S    
C29   C30   S    
C31   C32   S    
C14   C15   A    
C19   C22   A    
O14   V3    S    
C31   H8    S    
C40   C45   S    
C59   C60   A    
O14   C66   A    
C6    C22   A    
C60   C61   A    
C41   C75   S    
O3    C4    A    
C69   H28   S    
C36   C44   S    
C86   H57   S    
O12   C65   A    
O16   V4    S    
C63   H14   S    
C91   H74   S    
C70   H25   S    
O6    V2    S    
O9    V2    S    
C49   C53   A    
C73   C74   S    
C10   C12   A    
C24   H7    S    
C27   H10   S    
O2    V1    S    
C50   H17   S    
C78   C79   S    
C37   C45   T    
C87   H69   S    
C27   C28   S    
C81   C82   S    
O13   V3    S    
C74   H30   S    
C90   H76   S    
O1    C2    A    
C12   C16   A    
C76   C77   S    
C35   H12   S    
C61   C64   A    
C5    C67   S    
O5    V1    S    
C89   H65   S    
O8    C3    A    
C85   H60   S    
C3    C26   S    
O12   V3    S    
C77   H36   S    
C42   C46   S    
C74   H31   S    
C71   H24   S    
O15   C67   A    
C20   C21   A    
C87   C88   S    
C79   H46   S    
C13   C14   A    
C48   C64   A    
O4    V1    S    
C41   C42   S    
O3    V1    S    
V1    O10   S    
C18   C20   A    
C35   C36   S    
C8    C87   S    
C81   H56   S    
O11   C66   A    
C58   H20   S    
C29   C31   S    
C75   H41   S    
C76   H39   S    
C71   H23   S    
C22   H2    S    
C80   H43   S    
C20   H6    S    
O7    V2    S    
C92   H71   S    
C79   H47   S    
C6    C21   A    
O19   V4    S    
C75   H42   S    
C89   H66   S    
C91   H75   S    
C39   C40   S    
C54   C58   A    
C25   C68   S    
O18   V4    S    
C90   C91   S    
C24   C28   S    
C81   H55   S    
O13   C68   A    
C88   C89   S    
C47   C65   S    
C17   H3    S    
C10   C11   A    
O15   V3    S    
C70   C71   S    
C9    C10   A    
C82   H53   S    
C39   Cl2   S    
C88   H67   S    
C72   C73   S    
C62   H21   S    
C5    C9    A    
