data_mof_unit_19367.cif
_audit_creation_date              2012-12-10T16:55:01-0500
_audit_creation_method            fapswitch 2.2
_symmetry_space_group_name_H-M    P1
_symmetry_Int_Tables_number       1
_space_group_crystal_system       triclinic
_cell_length_a                    7.772835
_cell_length_b                    8.578665
_cell_length_c                    15.718898
_cell_angle_alpha                 90.845785
_cell_angle_beta                  85.846478
_cell_angle_gamma                 93.629031
_cell_volume                      1043.24107137

loop_
_atom_site_label
_atom_site_type_symbol
_atom_type_description
_atom_site_fract_x
_atom_site_fract_y
_atom_site_fract_z
_atom_type_partial_charge
C1    C     C_R   0.545763 0.794723 0.497813 0.959646
C2    C     C_2   0.430153 0.041803 0.503429 -0.365298
C3    C     C_R   0.502000 0.500002 0.661598 0.900673
C4    C     C_R   0.454236 0.205277 0.502188 0.967230
C5    C     C_R   0.497976 0.499906 0.338402 0.900634
C6    C     C_3   0.353895 0.594957 0.955427 -0.361997
C7    C     C_3   0.675927 0.568862 0.946732 -0.520198
C8    C     C_3   0.671864 0.569170 0.045010 -0.517043
C9    C     C_1   0.493672 0.499416 0.249639 -0.151254
C10   C     C_3   0.502118 0.496892 0.917304 0.142561
C11   C     C_3   0.349801 0.595130 0.053698 -0.362058
C12   C     C_3   0.495298 0.497303 0.082735 0.141570
C13   C     C_3   0.469259 0.327223 0.048929 0.468570
C14   C     C_3   0.473253 0.326981 0.950276 0.470209
C15   C     C_1   0.492928 0.498545 0.174294 -0.009492
C16   C     C_1   0.505795 0.497786 0.825722 -0.011719
C17   C     C_1   0.505875 0.498782 0.750363 -0.151423
C18   C     C_2   0.569847 0.958197 0.496573 -0.370968
F1    F     F_    0.320485 0.257529 0.922906 -0.619928
F2    F     F_    0.314067 0.257829 0.083387 -0.620120
H1    H     H_    0.366886 0.717472 0.077734 0.189426
H2    H     H_    0.784648 0.500605 0.919784 0.196279
H3    H     H_    0.699860 0.690665 0.923225 0.223902
H4    H     H_    0.693856 0.691144 0.068873 0.224607
H5    H     H_    0.778787 0.501181 0.065484 0.197131
H6    H     H_    0.580814 0.256756 0.923905 0.028454
H7    H     H_    0.227316 0.546347 0.934624 0.218334
H8    H     H_    0.221365 0.546432 0.080429 0.218799
H9    H     H_    0.575028 0.257178 0.068816 0.029892
H10   H     H_    0.701796 0.009224 0.490040 0.182643
H11   H     H_    0.298204 0.990776 0.509963 0.182314
H12   H     H_    0.013413 0.381935 0.436574 0.198299
H13   H     H_    0.986587 0.618065 0.563426 0.194491
H14   H     H_    0.372971 0.717242 0.932172 0.189310
N1    N     N_2   0.950340 0.457950 0.477370 -0.170079
N2    N     N_2   0.049660 0.542050 0.522630 -0.171095
O1    O     O_R   0.389240 0.738570 0.505550 -0.613550
O2    O     O_R   0.678400 0.711630 0.491050 -0.630259
O3    O     O_R   0.355360 0.513470 0.630110 -0.605406
O4    O     O_R   0.644510 0.486530 0.615610 -0.623556
O5    O     O_R   0.321600 0.288370 0.508950 -0.627792
O6    O     O_R   0.610760 0.261430 0.494450 -0.612825
O7    O     O_R   0.355490 0.513470 0.384390 -0.617170
O8    O     O_R   0.644640 0.486530 0.369890 -0.610756
Zn1   Zn    Zn3+2 0.306930 0.517990 0.509680 0.961504
Zn2   Zn    Zn3+2 0.693070 0.482010 0.490320 0.957512

loop_
_geom_bond_atom_site_label_1
_geom_bond_atom_site_label_2
_ccdc_geom_bond_type
C6    C10   S    
C7    C10   S    
C2    C4    S    
C11   C12   S    
C5    C9    S    
C18   H10   S    
C8    C12   S    
C2    C18   D    
C7    H2    S    
C6    H7    S    
N1    N2    D    
C12   C15   S    
C1    O1    A    
O3    Zn1   S    
C5    O7    A    
C3    O3    A    
N2    Zn1   S    
C10   C16   S    
C13   C14   S    
C14   H6    S    
O4    Zn2   S    
C8    H5    S    
O7    Zn1   S    
C1    C18   S    
C4    O6    A    
C1    O2    A    
C7    H3    S    
C11   H8    S    
C13   H9    S    
C8    H4    S    
C5    O8    A    
O8    Zn2   S    
C3    O4    A    
C3    C17   S    
C10   C14   S    
O2    Zn2   S    
C4    O5    A    
O1    Zn1   S    
H12   N1    S    
C7    C8    S    
H13   N2    S    
C12   C13   S    
O6    Zn2   S    
C6    C11   S    
O5    Zn1   S    
C2    H11   S    
C13   F2    S    
C9    C15   T    
N1    Zn2   S    
C14   F1    S    
C11   H1    S    
C6    H14   S    
C16   C17   T    
