data_mof_unit_26932.cif
_audit_creation_date              2012-12-10T18:57:09-0500
_audit_creation_method            fapswitch 2.2
_symmetry_space_group_name_H-M    P1
_symmetry_Int_Tables_number       1
_space_group_crystal_system       triclinic
_cell_length_a                    10.711462
_cell_length_b                    9.844734
_cell_length_c                    10.644658
_cell_angle_alpha                 89.761072
_cell_angle_beta                  90.103275
_cell_angle_gamma                 90.078994
_cell_volume                      1122.48245218

loop_
_atom_site_label
_atom_site_type_symbol
_atom_type_description
_atom_site_fract_x
_atom_site_fract_y
_atom_site_fract_z
_atom_type_partial_charge
C1    C     C_R   0.259905 0.499885 0.499868 0.865184
C2    C     C_R   0.446429 0.595950 0.935578 0.108762
C3    C     C_R   0.518112 0.503805 0.128969 -0.224767
C4    C     C_R   0.517869 0.501758 0.871455 -0.220197
C5    C     C_R   0.608211 0.423693 0.067046 0.157852
C6    C     C_R   0.609659 0.424756 0.935457 0.164672
C7    C     C_3   0.309686 0.624584 0.927742 -0.466184
C8    C     C_3   0.310196 0.626401 0.070310 -0.481563
C9    C     C_R   0.063758 0.378532 0.523454 -0.202966
C10   C     C_R   0.935900 0.378557 0.523263 -0.204282
C11   C     C_R   0.872515 0.499914 0.499434 -0.009281
C12   C     C_R   0.740080 0.499985 0.499819 0.842593
C13   C     C_R   0.127429 0.499806 0.499543 -0.011881
C14   C     C_R   0.936161 0.621151 0.475402 -0.200233
C15   C     C_R   0.064029 0.621084 0.475356 -0.198801
C16   C     C_3   0.673859 0.200417 0.137818 -0.700857
C17   C     C_3   0.817101 0.430866 0.848420 -0.763789
C18   C     C_R   0.583938 0.071700 0.571156 -0.073531
C19   C     C_R   0.416403 0.072142 0.428395 -0.087461
C20   C     C_R   0.583820 0.927854 0.571313 -0.072393
C21   C     C_R   0.416436 0.928262 0.428346 -0.073320
C22   C     C_R   0.503637 0.500406 0.260375 0.898538
C23   C     C_R   0.505380 0.499806 0.739633 0.911309
C24   C     C_R   0.446953 0.597483 0.063038 0.108148
H1    H     H_    0.290158 0.725605 0.885056 0.207981
H2    H     H_    0.349614 0.126795 0.371084 0.127930
H3    H     H_    0.650833 0.873208 0.628372 0.126592
H4    H     H_    0.349663 0.873921 0.370993 0.120946
H5    H     H_    0.723170 0.383714 0.221155 0.223646
H6    H     H_    0.584760 0.178692 0.187230 0.241480
H7    H     H_    0.750814 0.148154 0.188538 0.222916
H8    H     H_    0.668939 0.158797 0.041181 0.242000
H9    H     H_    0.676488 0.298581 0.793373 0.235223
H10   H     H_    0.888995 0.365104 0.804837 0.236133
H11   H     H_    0.855068 0.470340 0.938387 0.255681
H12   H     H_    0.256240 0.541566 0.113323 0.196664
H13   H     H_    0.796887 0.517182 0.783940 0.224286
H14   H     H_    0.255555 0.538609 0.887424 0.196238
H15   H     H_    0.290989 0.728468 0.110117 0.200265
H16   H     H_    0.112335 0.284300 0.543066 0.156771
H17   H     H_    0.887092 0.284358 0.542903 0.154546
H18   H     H_    0.887557 0.715417 0.456001 0.155944
H19   H     H_    0.112827 0.715308 0.455809 0.151299
H20   H     H_    0.651297 0.125883 0.627788 0.112284
N1    N     N_R   0.500000 0.857200 0.500000 -0.079290
N2    N     N_R   0.500000 0.142810 0.500000 -0.078153
N3    N     N_2   0.697924 0.345126 0.134859 -0.283518
N4    N     N_2   0.705008 0.352552 0.870760 -0.297922
O1    O     O_R   0.316770 0.614620 0.499990 -0.627771
O2    O     O_R   0.683230 0.614620 0.500010 -0.631183
O3    O     O_R   0.316800 0.385290 0.500000 -0.626145
O4    O     O_R   0.683200 0.385290 0.500000 -0.632760
O5    O     O_R   0.500000 0.614690 0.316780 -0.613227
O6    O     O_R   0.500000 0.614690 0.683220 -0.610272
O7    O     O_R   0.500020 0.385360 0.316780 -0.618866
O8    O     O_R   0.499980 0.385360 0.683220 -0.629952
Zn1   Zn    Zn3+2 0.500000 0.653120 0.500000 0.942456
Zn2   Zn    Zn3+2 0.500000 0.346880 0.500000 0.932225

loop_
_geom_bond_atom_site_label_1
_geom_bond_atom_site_label_2
_ccdc_geom_bond_type
C2    C4    A    
C11   C12   S    
C8    H12   S    
C22   O7    A    
C20   H3    S    
C18   H20   S    
C16   H8    S    
C1    O3    A    
C9    C10   A    
C21   N1    A    
C20   N1    A    
C7    H1    S    
C17   N4    S    
C14   H18   S    
C19   N2    A    
C15   H19   S    
C23   O8    A    
O3    Zn2   S    
C17   H13   S    
N2    Zn2   S    
C16   H7    S    
C5    N3    S    
N1    Zn1   S    
C3    C24   A    
C6    N4    S    
H5    N3    S    
C18   N2    A    
C16   N3    S    
C8    H15   S    
C12   O4    A    
C7    H14   S    
O8    Zn2   S    
C22   O5    A    
C18   C20   A    
C13   C15   A    
C2    C24   A    
C5    C6    A    
O4    Zn2   S    
C11   C14   A    
C1    C13   S    
C17   H10   S    
C16   H6    S    
C3    C5    A    
C7    C8    S    
O1    Zn1   S    
C19   H2    S    
C23   O6    A    
C4    C6    A    
C10   C11   A    
O7    Zn2   S    
C4    C23   S    
H9    N4    S    
C9    C13   A    
C14   C15   A    
C3    C22   S    
O5    Zn1   S    
C17   H11   S    
C8    C24   S    
C19   C21   A    
O2    Zn1   S    
C1    O1    A    
C21   H4    S    
C9    H16   S    
C2    C7    S    
C12   O2    A    
C10   H17   S    
O6    Zn1   S    
