data_mof_unit_56919.cif
_audit_creation_date              2012-12-10T20:32:45-0500
_audit_creation_method            fapswitch 2.2
_symmetry_space_group_name_H-M    P1
_symmetry_Int_Tables_number       1
_space_group_crystal_system       triclinic
_cell_length_a                    11.558763
_cell_length_b                    10.816063
_cell_length_c                    9.930384
_cell_angle_alpha                 88.636334
_cell_angle_beta                  89.44091
_cell_angle_gamma                 93.063646
_cell_volume                      1239.29853997

loop_
_atom_site_label
_atom_site_type_symbol
_atom_type_description
_atom_site_fract_x
_atom_site_fract_y
_atom_site_fract_z
_atom_type_partial_charge
Br1   Br    Br    0.448616 0.207246 0.082403 -0.533611
Br2   Br    Br    0.636045 0.878418 0.237544 -0.545902
Br3   Br    Br    0.282416 0.075102 0.812086 -0.621833
C1    C     C_R   0.497818 0.259834 0.501159 0.884325
C2    C     C_R   0.590737 0.551277 0.071225 -0.069485
C3    C     C_R   0.590418 0.555301 0.927693 0.133242
C4    C     C_R   0.282152 0.501800 0.500440 0.891223
C5    C     C_R   0.399485 0.475118 0.931160 0.031064
C6    C     C_3   0.316331 0.368010 0.916941 -0.136566
C7    C     C_3   0.337986 0.338091 0.068209 0.295908
C8    C     C_R   0.506115 0.739615 0.498489 0.912330
C9    C     C_R   0.718034 0.501000 0.499251 0.905757
C10   C     C_1   0.161943 0.506717 0.500593 -0.199970
C11   C     C_1   0.059926 0.509165 0.498591 -0.020288
C12   C     C_R   0.494243 0.126986 0.499062 -0.201986
C13   C     C_1   0.941103 0.507848 0.496558 -0.010277
C14   C     C_1   0.838772 0.504644 0.497194 -0.178487
C15   C     C_R   0.436276 0.052625 0.598068 0.054869
C16   C     C_3   0.226978 0.318826 0.159867 -0.385803
C17   C     C_3   0.235777 0.229005 0.281604 -0.275218
C18   C     C_3   0.117619 0.199757 0.348547 -0.904159
C19   C     C_3   0.410531 0.833655 0.847353 -0.241990
C20   C     C_3   0.293712 0.775482 0.800162 -0.282715
C21   C     C_3   0.214672 0.741323 0.921012 -0.885221
C22   C     C_3   0.680329 0.643177 0.860983 -0.407965
C23   C     C_R   0.547544 0.071361 0.390108 -0.181518
C24   C     C_3   0.801323 0.592900 0.862243 -0.348665
C25   C     C_3   0.887634 0.683612 0.788994 -0.849705
C26   C     C_3   0.194772 0.413623 0.879692 -0.446024
C27   C     C_3   0.112992 0.309119 0.827953 -0.279516
C28   C     C_3   0.988467 0.347176 0.821650 -0.916536
C29   C     C_R   0.552775 0.943827 0.386346 0.269324
C30   C     C_R   0.507019 0.871342 0.496056 -0.197992
C31   C     C_R   0.449616 0.926649 0.600520 0.035236
C32   C     C_3   0.476529 0.926162 0.748538 -0.142998
C33   C     C_3   0.440126 0.059381 0.747684 0.096231
C34   C     C_R   0.402115 0.464029 0.072680 0.100545
H1    H     H_    0.591093 0.127289 0.311072 0.227359
H2    H     H_    0.294292 0.269947 0.357190 0.247313
H3    H     H_    0.199750 0.409631 0.195353 0.190373
H4    H     H_    0.155025 0.278926 0.099874 0.219964
H5    H     H_    0.259333 0.681959 0.994553 0.253395
H6    H     H_    0.189035 0.826262 0.971684 0.303476
H7    H     H_    0.135488 0.689876 0.887293 0.242624
H8    H     H_    0.248345 0.837337 0.730257 0.260557
H9    H     H_    0.308951 0.690434 0.744749 0.236455
H10   H     H_    0.467287 0.757067 0.870387 0.173930
H11   H     H_    0.400206 0.880648 0.944864 0.256523
H12   H     H_    0.352685 0.305976 0.842994 0.245900
H13   H     H_    0.855824 0.708713 0.687312 0.264033
H14   H     H_    0.901333 0.769180 0.847746 0.273789
H15   H     H_    0.971551 0.640583 0.776273 0.244027
H16   H     H_    0.830406 0.578465 0.967526 0.218259
H17   H     H_    0.799120 0.502393 0.812118 0.255084
H18   H     H_    0.656298 0.668202 0.757844 0.255269
H19   H     H_    0.682936 0.732063 0.915394 0.196248
H20   H     H_    0.956368 0.368520 0.923865 0.263389
H21   H     H_    0.983488 0.429498 0.754710 0.274461
H22   H     H_    0.932396 0.270696 0.780765 0.267900
H23   H     H_    0.571760 0.923470 0.764196 0.130923
H24   H     H_    0.141583 0.283984 0.725411 0.254903
H25   H     H_    0.113522 0.225971 0.894868 0.269223
H26   H     H_    0.154551 0.459312 0.966028 0.199714
H27   H     H_    0.202938 0.486655 0.799994 0.241151
H28   H     H_    0.506929 0.126967 0.786054 0.166998
H29   H     H_    0.662562 0.594029 0.125344 0.169370
H30   H     H_    0.075793 0.285983 0.374211 0.272355
H31   H     H_    0.060118 0.145820 0.279832 0.276297
H32   H     H_    0.128440 0.143861 0.442431 0.268083
H33   H     H_    0.268768 0.139480 0.250441 0.269285
N1    N     N_R   0.499240 0.499140 0.142800 -0.099826
N2    N     N_R   0.499240 0.499180 0.857150 -0.114323
O1    O     O_R   0.500010 0.316790 0.614690 -0.615525
O2    O     O_R   0.500000 0.316760 0.385350 -0.595565
O3    O     O_R   0.334450 0.500030 0.614670 -0.639714
O4    O     O_R   0.334440 0.500000 0.385330 -0.618906
O5    O     O_R   0.500000 0.683240 0.614650 -0.663052
O6    O     O_R   0.499990 0.683210 0.385310 -0.569665
O7    O     O_R   0.665560 0.500000 0.614670 -0.626806
O8    O     O_R   0.665550 0.499970 0.385330 -0.604815
Zn1   Zn    Zn3+2 0.500010 0.500020 0.653130 0.923937
Zn2   Zn    Zn3+2 0.499990 0.499980 0.346870 0.990007

loop_
_geom_bond_atom_site_label_1
_geom_bond_atom_site_label_2
_ccdc_geom_bond_type
C12   C15   A    
C19   H11   S    
C26   H26   S    
C23   C29   A    
C20   H8    S    
C21   H5    S    
C32   C33   S    
C22   H19   S    
C24   H17   S    
C3    N2    A    
C19   C32   S    
C7    C34   S    
C28   H21   S    
C2    C3    A    
C25   H14   S    
C3    C22   S    
C13   C14   T    
C9    O7    A    
Br2   C29   S    
C31   C32   S    
C28   H22   S    
C8    O5    A    
C25   H13   S    
C16   C17   S    
C5    C6    S    
C9    C14   S    
C20   C21   S    
C6    C7    S    
C1    O2    A    
N2    Zn1   S    
C6    C26   S    
N1    Zn2   S    
C19   H10   S    
C26   H27   S    
C20   H9    S    
C10   C11   T    
C18   H30   S    
C17   H33   S    
O2    Zn2   S    
O1    Zn1   S    
C5    N2    A    
C8    C30   S    
C6    H12   S    
O8    Zn2   S    
O4    Zn2   S    
O7    Zn1   S    
C17   H2    S    
C33   H28   S    
O3    Zn1   S    
C12   C23   A    
C4    O3    A    
C18   H32   S    
C32   H23   S    
C26   C27   S    
C8    O6    A    
O6    Zn2   S    
O5    Zn1   S    
C7    C16   S    
C30   C31   A    
C15   C31   A    
C1    O1    A    
C27   H25   S    
C18   H31   S    
C21   H7    S    
C11   C13   S    
C5    C34   A    
C23   H1    S    
Br1   C7    S    
C22   H18   S    
C2    H29   S    
C24   H16   S    
C4    O4    A    
C22   C24   S    
C29   C30   A    
C28   H20   S    
C1    C12   S    
C34   N1    A    
C2    N1    A    
C25   H15   S    
C27   C28   S    
Br3   C33   S    
C9    O8    A    
C16   H3    S    
C4    C10   S    
C17   C18   S    
C27   H24   S    
C24   C25   S    
C21   H6    S    
C19   C20   S    
C15   C33   S    
C16   H4    S    
