data_mof_unit_21442.cif
_audit_creation_date              2012-12-11T14:14:14-0500
_audit_creation_method            fapswitch 2.2
_symmetry_space_group_name_H-M    P1
_symmetry_Int_Tables_number       1
_space_group_crystal_system       triclinic
_cell_length_a                    17.081112
_cell_length_b                    7.252105
_cell_length_c                    16.827435
_cell_angle_alpha                 89.996411
_cell_angle_beta                  99.217279
_cell_angle_gamma                 90.000876
_cell_volume                      2057.56715453

loop_
_atom_site_label
_atom_site_type_symbol
_atom_type_description
_atom_site_fract_x
_atom_site_fract_y
_atom_site_fract_z
_atom_type_partial_charge
O1    O     O_R   0.414560 0.494370 0.416770 -0.536933
O2    O     O_R   0.585440 0.994370 0.583230 -0.536932
O3    O     O_R   0.578370 0.819590 0.429320 -0.534504
O4    O     O_R   0.421630 0.319590 0.570680 -0.534515
C1    C     C_R   0.605987 0.656757 0.415215 0.699752
C2    C     C_R   0.394022 0.156746 0.584795 0.699785
O5    O     O_R   0.414740 0.823790 0.407360 -0.540634
O6    O     O_R   0.585260 0.323790 0.592640 -0.540663
O7    O     O_R   0.420650 0.998510 0.561120 -0.540374
O8    O     O_R   0.579350 0.498510 0.438880 -0.540378
C3    C     C_R   0.389330 0.655676 0.384400 0.744587
C4    C     C_R   0.610662 0.155664 0.615603 0.744637
O9    O     O_3   0.502130 0.662240 0.550470 -0.379165
O10   O     O_3   0.497870 0.162240 0.449530 -0.379155
V1    V     V_3+5 0.499600 0.935390 0.490640 1.380864
V2    V     V_3+5 0.500400 0.435390 0.509360 1.380892
C5    C     C_2   0.809250 0.246096 0.757571 0.174824
C6    C     C_2   0.190727 0.746084 0.242428 0.174844
C7    C     C_2   0.826269 0.108979 0.812495 -0.368911
C8    C     C_2   0.173734 0.608966 0.187505 -0.369042
C9    C     C_2   0.741374 0.229361 0.689205 -0.212528
C10   C     C_2   0.258623 0.729441 0.310782 -0.212402
C11   C     C_2   0.669760 0.148596 0.690276 -0.004733
C12   C     C_2   0.330235 0.648666 0.309720 -0.004726
H1    H     H_    0.750202 0.296378 0.633540 0.097975
H2    H     H_    0.249797 0.796475 0.366440 0.097954
C13   C     C_R   0.328314 0.157211 0.633369 -0.091273
C14   C     C_R   0.671697 0.657253 0.366641 -0.091300
C15   C     C_R   0.170578 0.110739 0.866309 -0.065945
C16   C     C_R   0.829423 0.610697 0.133697 -0.066010
C17   C     C_R   0.291624 0.974161 0.831143 -0.201961
C18   C     C_R   0.708447 0.473916 0.168949 -0.201982
C19   C     C_R   0.238210 0.994616 0.886229 0.144904
C20   C     C_R   0.761835 0.494408 0.113839 0.144952
C21   C     C_R   0.161552 0.211748 0.794114 -0.269894
C22   C     C_R   0.838416 0.711848 0.205849 -0.269917
C23   C     C_R   0.216447 0.193206 0.740373 0.118137
C24   C     C_R   0.783537 0.693286 0.259608 0.118133
C25   C     C_R   0.280944 0.070755 0.758161 0.123871
C26   C     C_R   0.719097 0.570653 0.241888 0.123857
C27   C     C_R   0.335217 0.050328 0.703877 -0.261600
C28   C     C_R   0.664843 0.550200 0.296191 -0.261588
C29   C     C_R   0.262863 0.280367 0.615456 0.135448
C30   C     C_R   0.737093 0.780592 0.384487 0.135449
C31   C     C_R   0.207430 0.294622 0.668733 -0.191394
C32   C     C_R   0.792514 0.794862 0.331197 -0.191422
H3    H     H_    0.342704 0.884526 0.845843 0.114673
H4    H     H_    0.657404 0.384152 0.154296 0.114683
O11   O     O_R   0.920750 0.773600 0.061260 -0.534959
O12   O     O_R   0.079250 0.273600 0.938740 -0.534962
O13   O     O_R   0.085340 0.439850 0.092570 -0.543406
O14   O     O_R   0.914660 0.939850 0.907430 -0.543406
C33   C     C_R   0.109604 0.608216 0.116867 0.732849
C34   C     C_R   0.890398 0.108225 0.883133 0.732817
O15   O     O_R   0.921720 0.444130 0.070790 -0.541653
O16   O     O_R   0.078280 0.944130 0.929210 -0.541640
O17   O     O_R   0.914480 0.269530 0.916840 -0.529994
O18   O     O_R   0.085520 0.769530 0.083160 -0.529984
C35   C     C_R   0.894618 0.611102 0.084587 0.692028
C36   C     C_R   0.105377 0.111111 0.915411 0.692047
O19   O     O_3   0.997840 0.601520 0.949550 -0.375072
O20   O     O_3   0.002160 0.101520 0.050450 -0.375090
V3    V     V_3+5 0.000400 0.328340 0.009360 1.374339
V4    V     V_3+5 0.999600 0.828340 0.990640 1.374373
C37   C     C_3   0.865356 0.406627 0.752795 -0.316137
C38   C     C_3   0.834754 0.581882 0.787120 -0.695006
H5    H     H_    0.774088 0.615112 0.755803 0.205439
H6    H     H_    0.833773 0.565228 0.852404 0.239638
H7    H     H_    0.874781 0.698239 0.778560 0.209138
H8    H     H_    0.871148 0.432140 0.688860 0.148611
H9    H     H_    0.926529 0.376756 0.783318 0.176748
C39   C     C_3   0.134556 0.906471 0.247232 -0.316140
C40   C     C_3   0.165095 0.081895 0.212969 -0.694859
H10   H     H_    0.225751 0.115187 0.244292 0.205403
H11   H     H_    0.166080 0.065416 0.147676 0.239646
H12   H     H_    0.125035 0.198154 0.221575 0.209087
H13   H     H_    0.128735 0.931802 0.311171 0.148585
H14   H     H_    0.073399 0.876520 0.216688 0.176722
H15   H     H_    0.110361 0.300811 0.778692 0.117018
H16   H     H_    0.889569 0.801046 0.221225 0.117070
H17   H     H_    0.793462 0.981222 0.802865 0.121658
H18   H     H_    0.206586 0.481251 0.197122 0.121715
C41   C     C_3   0.644696 0.069995 0.766378 -0.361510
C42   C     C_3   0.555500 0.082590 0.767373 -0.771605
H19   H     H_    0.534485 0.226842 0.756776 0.225382
H20   H     H_    0.522943 0.990994 0.720601 0.223995
H21   H     H_    0.542463 0.036837 0.826868 0.215280
H22   H     H_    0.662242 0.922557 0.772437 0.181009
H23   H     H_    0.673979 0.147095 0.820033 0.200439
C43   C     C_3   0.355333 0.570192 0.233617 -0.361702
C44   C     C_3   0.444483 0.583762 0.232504 -0.771261
H24   H     H_    0.465199 0.728274 0.242951 0.225481
H25   H     H_    0.477280 0.492669 0.279332 0.223736
H26   H     H_    0.457551 0.537992 0.173025 0.215269
H27   H     H_    0.338049 0.422573 0.227679 0.180990
H28   H     H_    0.325858 0.646887 0.179927 0.200474
H29   H     H_    0.384842 0.956732 0.718284 0.124865
H30   H     H_    0.615265 0.456446 0.281837 0.124804
C45   C     C_3   0.248928 0.397245 0.539843 -0.370499
C46   C     C_3   0.269633 0.599195 0.558988 -0.686669
H31   H     H_    0.231492 0.656507 0.600598 0.212009
H32   H     H_    0.332736 0.613098 0.587103 0.240622
H33   H     H_    0.259892 0.681269 0.502682 0.185387
H34   H     H_    0.283366 0.346854 0.493637 0.176214
H35   H     H_    0.185521 0.387505 0.511888 0.164180
C47   C     C_3   0.750987 0.897650 0.460043 -0.370552
C48   C     C_3   0.730166 0.099514 0.440808 -0.686433
H36   H     H_    0.768287 0.156876 0.399186 0.211968
H37   H     H_    0.667062 0.113189 0.412668 0.240629
H38   H     H_    0.739841 0.181707 0.497080 0.185388
H39   H     H_    0.716598 0.847241 0.506289 0.176240
H40   H     H_    0.814405 0.888139 0.487983 0.164157
H41   H     H_    0.157448 0.387709 0.654520 0.117267
H42   H     H_    0.842453 0.888091 0.345358 0.117275
C49   C     C_3   0.257197 0.896620 0.966738 -0.362453
C50   C     C_3   0.283183 0.033408 0.034833 -0.762997
H43   H     H_    0.338209 0.105317 0.024860 0.229310
H44   H     H_    0.236332 0.137655 0.038355 0.213500
H45   H     H_    0.295330 0.958538 0.093087 0.220688
H46   H     H_    0.206068 0.814482 0.979679 0.197343
H47   H     H_    0.306253 0.796047 0.966234 0.171715
C51   C     C_3   0.742852 0.396299 0.033361 -0.362444
C52   C     C_3   0.716765 0.532974 0.965241 -0.762992
H48   H     H_    0.661707 0.604727 0.975220 0.229326
H49   H     H_    0.763555 0.637359 0.961678 0.213484
H50   H     H_    0.704637 0.458038 0.907007 0.220639
H51   H     H_    0.794003 0.314268 0.020407 0.197381
H52   H     H_    0.693846 0.295609 0.033921 0.171704

loop_
_geom_bond_atom_site_label_1
_geom_bond_atom_site_label_2
_ccdc_geom_bond_type
C38   H6    S    
C49   H47   S    
C8    H18   S    
C18   H4    S    
C40   H10   S    
O1    C3    A    
C42   H21   S    
O2    C4    A    
C2    O7    A    
C52   H48   S    
C25   C27   A    
C47   H40   S    
O5    C3    A    
C4    C11   S    
O20   V3    S    
C11   C41   S    
C21   C23   A    
C29   C45   S    
O15   C35   A    
C28   H30   S    
C52   H49   S    
C38   H7    S    
C47   C48   S    
C49   C50   S    
C15   C19   A    
C3    C12   S    
C50   H43   S    
C14   C28   A    
C51   H51   S    
C27   H29   S    
C39   H14   S    
C41   C42   S    
C30   C32   A    
O15   V3    S    
C48   H36   S    
O16   V4    S    
C26   C28   A    
C41   H22   S    
O6    V2    S    
O11   V4    S    
C17   H3    S    
C6    C39   S    
O12   V3    S    
C48   H37   S    
C45   H35   S    
C46   H32   S    
O14   C34   A    
O17   V3    S    
C47   H39   S    
O18   V4    S    
C41   H23   S    
C19   C49   S    
C16   C20   A    
C43   H27   S    
O13   V3    S    
C42   H19   S    
O4    C2    A    
O14   V4    S    
C44   H24   S    
C32   H42   S    
C8    C33   S    
C52   H50   S    
O5    V1    S    
C37   H9    S    
C14   C30   A    
C46   H33   S    
C5    C9    S    
O16   C36   A    
O13   C33   A    
C18   C20   A    
O4    V2    S    
O19   V4    S    
C39   H13   S    
C13   C29   A    
C44   H25   S    
C1    C14   S    
C13   C27   A    
C2    C13   S    
C15   C36   S    
O6    C4    A    
C16   C35   S    
C17   C19   A    
O1    V2    S    
O2    V1    S    
C29   C31   A    
C7    C34   S    
C49   H46   S    
C9    C11   D    
C22   H16   S    
C48   H38   S    
C10   C12   D    
C40   H11   S    
C23   C31   A    
O3    V1    S    
C9    H1    S    
C6    C10   S    
C42   H20   S    
C39   C40   S    
O3    C1    A    
C12   C43   S    
C33   O18   A    
C43   H28   S    
C30   C47   S    
C15   C21   A    
C5    C37   S    
O11   C35   A    
C50   H45   S    
C16   C22   A    
O12   C36   A    
C22   C24   A    
O7    V1    S    
C1    O8    A    
C23   C25   A    
O8    V2    S    
C45   C46   S    
C44   H26   S    
C24   C26   A    
C43   C44   S    
C21   H15   S    
C46   H31   S    
C5    C7    D    
C50   H44   S    
C45   H34   S    
C6    C8    D    
C18   C26   A    
C51   H52   S    
C24   C32   A    
C31   H41   S    
C40   H12   S    
C20   C51   S    
C37   C38   S    
C10   H2    S    
O9    V2    S    
C38   H5    S    
C17   C25   A    
O10   V1    S    
C51   C52   S    
C7    H17   S    
C37   H8    S    
C34   O17   A    
