data_mof_unit_41997.cif
_audit_creation_date              2012-12-10T16:55:05-0500
_audit_creation_method            fapswitch 2.2
_symmetry_space_group_name_H-M    P1
_symmetry_Int_Tables_number       1
_space_group_crystal_system       triclinic
_cell_length_a                    9.719817
_cell_length_b                    10.93549
_cell_length_c                    15.491333
_cell_angle_alpha                 89.898956
_cell_angle_beta                  73.81667
_cell_angle_gamma                 89.955901
_cell_volume                      1581.33977706

loop_
_atom_site_label
_atom_site_type_symbol
_atom_type_description
_atom_site_fract_x
_atom_site_fract_y
_atom_site_fract_z
_atom_type_partial_charge
C1    C     C_R   0.999601 0.265437 0.501100 0.852759
C2    C     C_R   0.675431 0.523514 0.909539 0.104552
C3    C     C_R   0.773538 0.493770 0.959033 0.163700
C4    C     C_R   0.529220 0.548084 0.955731 0.069209
C5    C     C_R   0.480187 0.528802 0.049950 0.061221
C6    C     C_R   0.582523 0.502037 0.097015 -0.198307
C7    C     C_R   0.726242 0.485709 0.052236 -0.221054
C8    C     C_R   0.432208 0.595197 0.911061 -0.305289
C9    C     C_R   0.288313 0.616628 0.955537 -0.023141
C10   C     C_R   0.234578 0.583042 0.046922 0.136396
C11   C     C_R   0.330985 0.538849 0.094281 0.062155
C12   C     C_R   0.916818 0.499968 0.672225 0.796136
C13   C     C_R   0.086781 0.589962 0.092111 -0.168226
C14   C     C_R   0.035524 0.559690 0.182722 -0.211045
C15   C     C_R   0.274627 0.503769 0.184700 -0.225336
C16   C     C_2   0.886164 0.933087 0.502088 -0.154128
C17   C     C_2   0.004810 0.866570 0.494345 -0.304563
C18   C     C_2   0.887942 0.067070 0.498195 -0.145886
C19   C     C_2   0.999961 0.133420 0.505594 -0.312227
C20   C     C_2   0.403116 0.418054 0.541811 -0.017825
C21   C     C_2   0.552772 0.430071 0.551604 -0.055616
C22   C     C_R   0.000560 0.734561 0.498862 0.851804
C23   C     C_R   0.083153 0.502291 0.327834 0.802545
C24   C     C_R   0.870504 0.500596 0.771000 -0.048043
C25   C     C_R   0.129851 0.518724 0.229835 -0.046968
C26   C     C_R   0.918204 0.471477 0.914668 -0.169629
C27   C     C_R   0.966795 0.476349 0.821258 -0.184764
C28   C     C_R   0.726219 0.523175 0.815184 -0.243895
Cu1   Cu    Cu3+1 0.138640 0.500020 0.499980 0.956708
Cu2   Cu    Cu3+1 0.861360 0.499980 0.500020 0.949025
H1    H     H_    0.800480 0.464578 0.090972 0.151966
H2    H     H_    0.008605 0.618495 0.058627 0.188749
H3    H     H_    0.783480 0.888479 0.510242 0.163722
H4    H     H_    0.109690 0.907501 0.482646 0.148330
H5    H     H_    0.792320 0.111834 0.490338 0.173376
H6    H     H_    0.094649 0.092371 0.517027 0.147565
H7    H     H_    0.339559 0.339903 0.572711 0.137498
H8    H     H_    0.397105 0.581746 0.486781 0.191444
H9    H     H_    0.577202 0.378840 0.605514 0.133191
H10   H     H_    0.341115 0.462957 0.222002 0.165510
H11   H     H_    0.922452 0.570646 0.216226 0.162825
H12   H     H_    0.993610 0.448804 0.952206 0.130562
H13   H     H_    0.078677 0.458072 0.788408 0.142182
H14   H     H_    0.654325 0.536249 0.774236 0.150806
H15   H     H_    0.556183 0.496696 0.169205 0.173116
H16   H     H_    0.467837 0.623852 0.841760 0.135701
N1    N     N_2   0.346430 0.498660 0.500980 -0.257588
N2    N     N_2   0.652550 0.498630 0.501000 -0.244478
O1    O     O_R   0.117050 0.321960 0.499980 -0.578360
O2    O     O_R   0.882890 0.321920 0.500020 -0.571526
O3    O     O_R   0.052910 0.500040 0.629810 -0.585019
O4    O     O_R   0.818750 0.499990 0.629840 -0.591777
O5    O     O_R   0.117110 0.678080 0.499980 -0.585577
O6    O     O_R   0.882950 0.678040 0.500020 -0.597090
O7    O     O_R   0.181250 0.500010 0.370160 -0.561653
O8    O     O_R   0.947090 0.499960 0.370190 -0.591707
C29   C     C_2   0.645847 0.532104 0.413098 0.589408
H17   H     H_    0.686271 0.620687 0.385999 0.015532
O9    O     O_2   0.606391 0.459350 0.365053 -0.579863
C30   C     C_2   0.200797 0.676032 0.902438 0.337216
H18   H     H_    0.225321 0.658759 0.830749 0.070135
O10   O     O_2   0.107588 0.750300 0.936134 -0.534465

loop_
_geom_bond_atom_site_label_1
_geom_bond_atom_site_label_2
_ccdc_geom_bond_type
C8    C9    A    
C2    C4    A    
C23   O7    A    
Cu1   Cu2   S    
C6    H15   S    
C16   H3    S    
C1    O2    A    
C12   C24   S    
C13   H2    S    
C17   C22   S    
C21   H9    S    
C24   C27   A    
C4    C8    A    
C21   N2    D    
C10   C11   A    
C9    C30   S    
C11   C15   A    
C30   H18   S    
C2    C3    A    
H8    N1    S    
C23   O8    A    
C22   O6    A    
C16   C18   S    
Cu1   O1    S    
C13   C14   A    
C20   H7    S    
Cu2   O6    S    
C26   C27   A    
C6    C7    A    
Cu1   O5    S    
Cu1   N1    S    
C14   H11   S    
C18   H5    S    
Cu2   N2    S    
C12   O4    A    
Cu1   O3    S    
C5    C11   A    
C22   O5    A    
C3    C7    A    
C19   H6    S    
C23   C25   S    
C14   C25   A    
Cu2   O2    S    
C5    C6    A    
C8    H16   S    
C15   H10   S    
C15   C25   A    
C20   N1    D    
C29   O9    D    
C17   H4    S    
C27   H13   S    
N2    C29   S    
C12   O3    A    
C7    H1    S    
C20   C21   S    
C26   H12   S    
C30   O10   D    
C18   C19   D    
C9    C10   A    
Cu2   O4    S    
C16   C17   D    
C2    C28   A    
Cu1   O7    S    
C29   H17   S    
C1    C19   S    
Cu2   O8    S    
C28   H14   S    
C3    C26   A    
C24   C28   A    
C4    C5    A    
C10   C13   A    
C1    O1    A    
