data_mof_unit_53902.cif
_audit_creation_date              2012-12-11T15:54:03-0500
_audit_creation_method            fapswitch 2.2
_symmetry_space_group_name_H-M    P1
_symmetry_Int_Tables_number       1
_space_group_crystal_system       triclinic
_cell_length_a                    10.62477
_cell_length_b                    10.749391
_cell_length_c                    17.00818
_cell_angle_alpha                 80.540015
_cell_angle_beta                  99.528116
_cell_angle_gamma                 118.828627
_cell_volume                      1670.22830239

loop_
_atom_site_label
_atom_site_type_symbol
_atom_type_description
_atom_site_fract_x
_atom_site_fract_y
_atom_site_fract_z
_atom_type_partial_charge
C1    C     C_R   0.358085 0.223051 0.626191 0.549446
C2    C     C_1   0.293866 0.111739 0.771940 -0.060083
C3    C     C_1   0.316737 0.684013 0.280590 -0.016738
C4    C     C_R   0.370628 0.653437 0.586373 0.569747
C5    C     C_1   0.295715 0.707787 0.209810 -0.051273
C6    C     C_R   0.802860 0.655893 0.149872 -0.009766
C7    C     C_R   0.763453 0.524936 0.197099 0.045840
C8    C     C_R   0.759288 0.519586 0.277547 -0.011169
C9    C     C_R   0.792617 0.759304 0.263557 -0.162336
C10   C     C_R   0.799344 0.767179 0.181410 -0.155062
C11   C     C_3   0.820989 0.417827 0.211224 0.154359
C12   C     C_R   0.400865 0.819225 0.679649 -0.150309
C13   C     C_3   0.818246 0.416706 0.300189 -0.204508
C14   C     C_R   0.787038 0.639017 0.313454 -0.001558
C15   C     C_R   0.259604 0.053160 0.179619 -0.008366
C16   C     C_R   0.774424 0.617679 0.627464 0.572378
C17   C     C_R   0.156977 0.074511 0.209051 -0.032994
C18   C     C_R   0.184696 0.120708 0.283658 0.014410
C19   C     C_R   0.400138 0.092925 0.310446 -0.153356
C20   C     C_R   0.375245 0.050259 0.233106 -0.142886
C21   C     C_3   0.087151 0.167009 0.173225 -0.229062
C22   C     C_3   0.124156 0.223140 0.254466 0.167156
C23   C     C_R   0.382390 0.842726 0.753553 -0.169191
C24   C     C_R   0.309569 0.138795 0.333749 0.007628
C25   C     C_R   0.888631 0.700852 0.856660 0.545112
C26   C     C_R   0.281847 0.750145 0.882844 0.556920
C27   C     C_R   0.252553 0.059229 0.851154 0.544592
C28   C     C_R   0.349376 0.223156 0.400726 0.567402
C29   C     C_R   0.882108 0.688788 0.081584 0.533519
C30   C     C_R   0.284101 0.738728 0.125410 0.536983
C31   C     C_R   0.245511 0.037749 0.094865 0.567629
C32   C     C_R   0.361496 0.657386 0.361961 0.561399
C33   C     C_R   0.764926 0.618608 0.396986 0.557089
C34   C     C_3   0.055886 0.502752 0.756776 0.189525
C35   C     C_R   0.287802 0.729109 0.802421 -0.014787
C36   C     C_R   0.215294 0.591879 0.777526 -0.028659
C37   C     C_R   0.241818 0.565512 0.706488 -0.018909
C38   C     C_3   0.735070 0.275614 0.106371 -0.080406
C39   C     C_3   0.347552 0.423203 0.215139 -0.083411
C40   C     C_3   0.029553 0.301949 0.850846 0.020908
C41   C     C_3   0.961629 0.229649 0.928735 -0.336902
C42   C     C_3   0.949622 0.369794 0.569910 -0.072037
C43   C     C_3   0.089387 0.454965 0.687171 0.160373
C44   C     C_R   0.329046 0.680506 0.655217 0.054309
C45   C     C_1   0.815696 0.654442 0.707027 -0.044943
C46   C     C_1   0.843567 0.682539 0.774827 -0.042156
C47   C     C_1   0.329570 0.157652 0.705519 -0.048744
Cr1   Cr    Cr6+3 0.608440 0.389080 0.519680 1.007827
Cr2   Cr    Cr6+3 0.288640 0.400090 0.490760 1.023495
Cr3   Cr    Cr6+3 0.602940 0.710800 0.489510 1.012313
Cr4   Cr    Cr6+3 0.052530 0.947560 0.964210 0.959430
Cr5   Cr    Cr6+3 0.059970 0.626800 0.992920 0.999755
Cr6   Cr    Cr6+3 0.373320 0.938440 0.995370 0.989221
H1    H     H_    0.474434 0.908971 0.642627 0.138979
H2    H     H_    0.007049 0.573765 0.735455 0.160128
H3    H     H_    0.082574 0.346807 0.696883 0.093012
H4    H     H_    0.798364 0.848937 0.288100 0.138134
H5    H     H_    0.817635 0.865484 0.144799 0.138811
H6    H     H_    0.933248 0.457714 0.196150 0.146678
H7    H     H_    0.847569 0.300639 0.099624 0.100923
H8    H     H_    0.700914 0.346193 0.063573 0.162938
H9    H     H_    0.663728 0.164666 0.091012 0.144768
H10   H     H_    0.325461 0.466696 0.153702 0.146491
H11   H     H_    0.384961 0.344485 0.211882 0.131802
H12   H     H_    0.739279 0.313366 0.328953 0.163654
H13   H     H_    0.439206 0.512348 0.245516 0.144062
H14   H     H_    0.148896 0.355747 0.864701 0.156484
H15   H     H_    0.996250 0.217806 0.810352 0.138866
H16   H     H_    0.842191 0.182894 0.917894 0.141144
H17   H     H_    0.988680 0.142574 0.952996 0.156988
H18   H     H_    0.001933 0.308454 0.973499 0.139566
H19   H     H_    0.854713 0.288637 0.601197 0.114706
H20   H     H_    0.018838 0.322981 0.560769 0.115999
H21   H     H_    0.910020 0.401583 0.509720 0.154945
H22   H     H_    0.927747 0.465088 0.333371 0.095743
H23   H     H_    0.495842 0.101850 0.348568 0.133604
H24   H     H_    0.452334 0.026385 0.213351 0.170880
H25   H     H_    0.969032 0.103565 0.158359 0.084795
H26   H     H_    0.141458 0.247559 0.123839 0.160383
H27   H     H_    0.026249 0.193964 0.283861 0.132557
H28   H     H_    0.443205 0.948973 0.772969 0.140678
O1    O     O_R   0.754020 0.497590 0.609930 -0.473087
O2    O     O_R   0.406180 0.826930 0.920660 -0.508181
O3    O     O_R   0.358620 0.062870 0.901950 -0.498846
O4    O     O_R   0.481420 0.271390 0.600630 -0.497963
O5    O     O_R   0.163910 0.085460 0.050210 -0.531521
O6    O     O_R   0.935200 0.815170 0.045770 -0.517124
O7    O     O_R   0.916120 0.596690 0.069430 -0.551252
O8    O     O_R   0.192310 0.631200 0.086170 -0.492652
O9    O     O_R   0.406770 0.819480 0.096420 -0.516603
O10   O     O_R   0.359170 0.055960 0.064880 -0.506309
O11   O     O_3   0.161940 0.837600 0.984160 -0.324269
O12   O     O_R   0.295080 0.533620 0.397890 -0.465111
O13   O     O_R   0.263810 0.254550 0.589590 -0.531988
O14   O     O_R   0.300820 0.531200 0.560890 -0.489464
O15   O     O_R   0.491480 0.744020 0.564270 -0.535478
O16   O     O_R   0.726290 0.693800 0.583010 -0.501529
O17   O     O_R   0.747830 0.500190 0.434090 -0.532253
O18   O     O_R   0.475680 0.273800 0.437630 -0.516173
O19   O     O_R   0.257620 0.257160 0.413750 -0.488403
O20   O     O_3   0.717819 0.283468 0.185430 -0.581611
O21   O     O_3   0.225218 0.370899 0.258254 -0.545307
O22   O     O_3   0.975438 0.397544 0.816581 -0.550168
O23   O     O_R   0.485280 0.746620 0.388440 -0.525666
O24   O     O_3   0.028318 0.491563 0.612336 -0.562981
O25   O     O_R   0.720550 0.696220 0.420010 -0.501982
O26   O     O_3   0.500010 0.499990 0.499980 -0.251690
O27   O     O_R   0.163320 0.092900 0.874450 -0.527778
O28   O     O_R   0.934650 0.822080 0.882840 -0.512483
O29   O     O_R   0.915520 0.604140 0.893670 -0.482746
O30   O     O_R   0.191760 0.638110 0.923230 -0.466259

loop_
_geom_bond_atom_site_label_1
_geom_bond_atom_site_label_2
_ccdc_geom_bond_type
Cr3   O23   S    
C8    C13   S    
C19   C20   A    
C30   O9    A    
C14   C33   S    
C7    C8    A    
Cr2   O26   S    
C13   H12   S    
C45   C46   T    
C7    C11   S    
C39   H11   S    
C12   C23   A    
C26   O2    A    
C20   H24   S    
Cr6   O3    S    
C18   C24   A    
C27   O3    A    
C10   H5    S    
C38   O20   S    
C16   O16   A    
Cr1   O26   S    
C33   O17   A    
C43   O24   S    
C29   O7    A    
C4    O15   A    
C35   C36   A    
C1    O13   A    
Cr3   O16   S    
C40   H14   S    
C21   H25   S    
Cr6   O10   S    
C32   O23   A    
C2    C27   S    
Cr2   O13   S    
C40   O22   S    
C9    C10   A    
C34   C36   S    
C25   O28   A    
C41   H18   S    
C38   H8    S    
C28   O19   A    
C32   O12   A    
C34   H2    S    
Cr4   O28   S    
C31   O5    A    
C21   C22   S    
Cr5   O8    S    
C30   O8    A    
C11   H6    S    
Cr4   O5    S    
C16   O1    A    
C1    O4    A    
C15   C20   A    
C42   H21   S    
C33   O25   A    
C13   H22   S    
Cr5   O7    S    
Cr4   O6    S    
Cr4   O27   S    
C4    C44   S    
Cr5   O30   S    
C17   C21   S    
C37   C43   S    
C9    C14   A    
Cr4   O11   S    
C4    O14   A    
C43   H3    S    
Cr5   O29   S    
C21   H26   S    
Cr6   O11   S    
C42   H19   S    
C17   C18   A    
C11   O20   S    
Cr2   O14   S    
C25   O29   A    
C38   H7    S    
C28   O18   A    
C40   C41   S    
C23   C35   A    
Cr3   O26   S    
C39   H13   S    
Cr5   O11   S    
Cr1   O17   S    
C39   O21   S    
C41   H16   S    
C5    C30   S    
C15   C17   A    
Cr1   O18   S    
C19   H23   S    
C42   H20   S    
C8    C14   A    
C23   H28   S    
C18   C22   S    
C1    C47   S    
C34   C43   S    
C24   C28   S    
C3    C5    T    
C16   C45   S    
C6    C10   A    
C15   C31   S    
C6    C7    A    
C2    C47   T    
C39   H10   S    
C31   O10   A    
C34   O22   S    
C22   O21   S    
Cr6   O2    S    
C37   C44   A    
C19   C24   A    
C22   H27   S    
C12   C44   A    
Cr2   O19   S    
C11   C13   S    
Cr3   O15   S    
C27   O27   A    
C25   C46   S    
Cr1   O1    S    
C9    H4    S    
C3    C32   S    
C42   O24   S    
C29   O6    A    
C26   C35   S    
C6    C29   S    
C36   C37   A    
C40   H15   S    
Cr6   O9    S    
Cr3   O25   S    
Cr1   O4    S    
Cr2   O12   S    
C26   O30   A    
C12   H1    S    
C41   H17   S    
C38   H9    S    
