data_mof_unit_51005.cif
_audit_creation_date              2012-10-26T20:12:01-0400
_audit_creation_method            fapswitch 2.2
_symmetry_space_group_name_H-M    P1
_symmetry_Int_Tables_number       1
_space_group_crystal_system       triclinic
_cell_length_a                    13.003889
_cell_length_b                    15.155767
_cell_length_c                    13.854767
_cell_angle_alpha                 90.560955
_cell_angle_beta                  95.697208
_cell_angle_gamma                 89.644491
_cell_volume                      2716.8960749

loop_
_atom_site_label
_atom_site_type_symbol
_atom_type_description
_atom_site_fract_x
_atom_site_fract_y
_atom_site_fract_z
_atom_type_partial_charge
C1    C     C_R   0.501921 0.330269 0.499585 0.594548
C2    C     C_R   0.488323 0.952600 0.494047 -0.012680
C3    C     C_R   0.592364 0.517019 0.115917 -0.032530
C4    C     C_R   0.453693 0.428685 0.886490 -0.035532
C5    C     C_R   0.589001 0.517448 0.217682 0.044115
C6    C     C_R   0.454292 0.432208 0.784649 0.043079
C7    C     C_R   0.411240 0.483612 0.200310 0.048117
C8    C     C_R   0.543216 0.567718 0.795982 0.081793
C9    C     C_R   0.409470 0.484916 0.098864 -0.139284
C10   C     C_R   0.538985 0.570367 0.896760 -0.119581
C11   C     C_R   0.500203 0.500475 0.054338 0.010783
C12   C     C_R   0.494688 0.670203 0.500093 0.584399
C13   C     C_R   0.496766 0.499642 0.944712 -0.001034
C14   C     C_R   0.300677 0.497968 0.482287 0.567382
C15   C     C_R   0.699554 0.500424 0.517851 0.582636
C16   C     C_R   0.812253 0.499570 0.528557 0.016161
C17   C     C_R   0.188586 0.491508 0.472625 -0.005475
C18   C     C_R   0.028371 0.454254 0.376402 -0.012045
C19   C     C_R   0.974092 0.520085 0.628592 -0.014897
C20   C     C_R   0.135614 0.464079 0.385114 -0.133197
C21   C     C_R   0.866585 0.517734 0.618860 -0.126926
C22   C     C_R   0.135366 0.507471 0.553424 -0.115922
C23   C     C_R   0.501565 0.234393 0.497756 0.014949
C24   C     C_R   0.865460 0.479761 0.448156 -0.108757
C25   C     C_R   0.027973 0.502008 0.546756 0.029366
C26   C     C_R   0.973339 0.477836 0.456469 0.027566
C27   C     C_R   0.411745 0.100063 0.528085 -0.125825
C28   C     C_R   0.528606 0.902951 0.420604 -0.130399
C29   C     C_R   0.417597 0.191481 0.531659 -0.177313
C30   C     C_R   0.529726 0.811458 0.424260 -0.172382
C31   C     C_R   0.979399 0.411485 0.286364 0.007823
C32   C     C_R   0.003946 0.439235 0.194851 -0.090506
C33   C     C_R   0.967905 0.392228 0.111179 -0.098225
C34   C     C_R   0.487853 0.767109 0.499723 0.002051
C35   C     C_R   0.904591 0.318858 0.117375 -0.109230
C36   C     C_R   0.879420 0.290873 0.207750 -0.094133
C37   C     C_R   0.917920 0.336028 0.292012 -0.094008
C38   C     C_R   0.028431 0.541152 0.724916 0.010296
C39   C     C_R   0.065955 0.626615 0.745568 -0.104231
C40   C     C_R   0.124462 0.644683 0.833705 -0.107432
C41   C     C_R   0.145662 0.577668 0.901549 -0.112802
C42   C     C_R   0.107578 0.492690 0.881708 -0.137868
C43   C     C_R   0.048967 0.474338 0.793690 -0.111404
C44   C     C_R   0.692223 0.535767 0.076691 0.009666
C45   C     C_R   0.581537 0.185160 0.460618 0.269541
C46   C     C_R   0.729837 0.480610 0.005652 -0.078147
C47   C     C_R   0.816724 0.505019 0.960557 -0.115005
C48   C     C_R   0.869860 0.582196 0.989310 -0.108913
C49   C     C_R   0.836092 0.635214 0.063010 -0.106461
C50   C     C_R   0.747443 0.612463 0.106311 -0.104205
C51   C     C_R   0.410465 0.349248 0.928945 0.009269
C52   C     C_R   0.469550 0.300315 0.000472 -0.076031
C53   C     C_R   0.427377 0.226464 0.041252 -0.095297
C54   C     C_R   0.326508 0.200307 0.010331 -0.095352
C55   C     C_R   0.267841 0.247661 0.938157 -0.111014
C56   C     C_R   0.440791 0.816931 0.571021 0.262226
C57   C     C_R   0.309709 0.321548 0.897186 -0.116482
C58   C     C_R   0.576436 0.093172 0.460219 -0.089416
C59   C     C_R   0.445410 0.908895 0.568999 -0.083483
C60   C     C_R   0.491734 0.049917 0.493429 -0.015510
Cu1   Cu    Cu3+1 0.500000 0.499990 0.596430 0.997440
Cu2   Cu    Cu3+1 0.500000 0.500010 0.403570 0.977615
H1    H     H_    0.822192 0.466686 0.378770 0.121243
H2    H     H_    0.559737 0.934646 0.360231 0.126317
H3    H     H_    0.355292 0.229052 0.559006 0.118497
H4    H     H_    0.564358 0.775243 0.367810 0.137225
H5    H     H_    0.639583 0.055151 0.435487 0.155591
H6    H     H_    0.415296 0.946640 0.626731 0.156034
H7    H     H_    0.659034 0.531278 0.263720 0.119482
H8    H     H_    0.419968 0.379080 0.740017 0.129478
H9    H     H_    0.052696 0.496144 0.188420 0.102837
H10   H     H_    0.989335 0.412584 0.041426 0.105770
H11   H     H_    0.875937 0.283209 0.052238 0.109681
H12   H     H_    0.178438 0.525087 0.621577 0.145102
H13   H     H_    0.831657 0.233189 0.212656 0.176587
H14   H     H_    0.901464 0.311243 0.361804 0.188450
H15   H     H_    0.051617 0.678546 0.692701 0.142439
H16   H     H_    0.154164 0.710427 0.849017 0.152750
H17   H     H_    0.191463 0.591574 0.969487 0.114114
H18   H     H_    0.124371 0.440876 0.934173 0.101938
H19   H     H_    0.021296 0.407920 0.778363 0.116236
H20   H     H_    0.693925 0.345473 0.318044 0.353276
H21   H     H_    0.283945 0.651107 0.676050 0.359898
H22   H     H_    0.690178 0.420186 0.983003 0.108071
H23   H     H_    0.340449 0.469625 0.231627 0.120650
H24   H     H_    0.843488 0.463618 0.903950 0.109695
H25   H     H_    0.937314 0.600841 0.954720 0.131571
H26   H     H_    0.877579 0.694837 0.085415 0.115176
H27   H     H_    0.720222 0.656025 0.160869 0.101110
H28   H     H_    0.548015 0.319368 0.024841 0.116502
H29   H     H_    0.472948 0.189488 0.096817 0.135277
H30   H     H_    0.293938 0.143172 0.042055 0.120377
H31   H     H_    0.189834 0.227199 0.914017 0.113537
H32   H     H_    0.263269 0.357702 0.841468 0.107287
H33   H     H_    0.580846 0.620493 0.761412 0.160499
H34   H     H_    0.336934 0.473477 0.055172 0.105485
H35   H     H_    0.571112 0.626784 0.937458 0.131413
H36   H     H_    0.825428 0.532142 0.681568 0.129726
H37   H     H_    0.178660 0.446007 0.324735 0.118002
H38   H     H_    0.344103 0.068879 0.551871 0.135599
N1    N     N_R   0.500000 0.500020 0.258690 -0.225686
N2    N     N_R   0.500000 0.499980 0.741310 -0.240245
O1    O     O_R   0.500010 0.371450 0.581430 -0.519462
O2    O     O_2   0.769743 0.168634 0.395686 -0.311203
O3    O     O_3   0.651279 0.291465 0.315397 -0.527723
O4    O     O_2   0.444676 0.745526 0.746568 -0.316883
O5    O     O_2   0.294241 0.836312 0.693635 -0.297297
O6    O     O_3   0.305257 0.680530 0.617769 -0.513933
O7    O     O_R   0.499990 0.628550 0.418570 -0.515734
O8    O     O_R   0.500010 0.371460 0.418560 -0.450732
O9    O     O_R   0.499990 0.628540 0.581440 -0.447521
O10   O     O_R   0.349000 0.499980 0.568210 -0.496315
O11   O     O_R   0.651000 0.500020 0.431790 -0.524728
O12   O     O_R   0.349000 0.499990 0.405340 -0.525099
O13   O     O_R   0.651000 0.500010 0.594660 -0.506579
O14   O     O_2   0.736939 0.299129 0.493738 -0.321780
S1    S     S_3+6 0.689963 0.236199 0.417514 -0.022580
S2    S     S_3+6 0.370464 0.770131 0.660998 -0.001314

loop_
_geom_bond_atom_site_label_1
_geom_bond_atom_site_label_2
_ccdc_geom_bond_type
C34   C56   A    
C16   C21   A    
C23   C45   A    
C27   C29   A    
C41   C42   A    
C52   H28   S    
C35   C36   A    
C18   C26   A    
C55   H31   S    
C7    H23   S    
C53   C54   A    
O14   S1    D    
C14   O10   A    
C20   H37   S    
C23   C29   A    
C45   S1    S    
C36   C37   A    
Cu1   O1    S    
C24   C26   A    
Cu2   O12   S    
C27   C60   A    
C42   H18   S    
C1    O8    A    
C2    C60   S    
C58   C60   A    
C15   C16   S    
C17   C20   A    
H21   O6    S    
C6    H8    S    
H20   O3    S    
C4    C13   A    
C5    H7    S    
C33   H10   S    
C46   C47   A    
C47   C48   A    
C22   C25   A    
C53   H29   S    
C15   O11   A    
C51   C57   A    
C1    O1    A    
O5    S2    D    
C18   C20   A    
Cu2   N1    S    
C16   C24   A    
O4    S2    D    
C49   H26   S    
O3    S1    S    
C8    H33   S    
C12   O7    A    
C44   C46   A    
C32   H9    S    
C27   H38   S    
C5    N1    A    
C45   C58   A    
C30   C34   A    
C4    C51   S    
C51   C52   A    
C47   H24   S    
O6    S2    S    
Cu2   O11   S    
C4    C6    A    
C39   C40   A    
C40   C41   A    
C2    C59   A    
C25   C26   A    
C14   O12   A    
C31   C37   A    
C10   H35   S    
C54   H30   S    
C36   H13   S    
C59   H6    S    
C50   H27   S    
C31   C32   A    
Cu2   O8    S    
C48   H25   S    
C9    C11   A    
C9    H34   S    
C30   H4    S    
C29   H3    S    
C28   H2    S    
C48   C49   A    
C37   H14   S    
C1    C23   S    
C24   H1    S    
C57   H32   S    
C55   C57   A    
C43   H19   S    
C40   H16   S    
C42   C43   A    
C22   H12   S    
C12   C34   S    
Cu1   O9    S    
C39   H15   S    
C52   C53   A    
O2    S1    D    
C44   C50   A    
C7    C9    A    
C54   C55   A    
C35   H11   S    
C3    C44   S    
C56   S2    S    
C3    C5    A    
C10   C13   A    
C41   H17   S    
C17   C22   A    
C56   C59   A    
C32   C33   A    
C28   C30   A    
Cu1   N2    S    
C38   C43   A    
Cu1   O13   S    
C21   H36   S    
C11   C13   S    
C38   C39   A    
Cu2   O7    S    
C33   C35   A    
C46   H22   S    
C15   O13   A    
C6    N2    A    
Cu1   Cu2   S    
C19   C25   A    
C3    C11   A    
C58   H5    S    
C19   C38   S    
C8    C10   A    
C49   C50   A    
C7    N1    A    
C2    C28   A    
C18   C31   S    
Cu1   O10   S    
C8    N2    A    
C12   O9    A    
C19   C21   A    
C14   C17   S    
