data_mof_unit_44267.cif
_audit_creation_date              2012-12-10T18:00:48-0500
_audit_creation_method            fapswitch 2.2
_symmetry_space_group_name_H-M    P1
_symmetry_Int_Tables_number       1
_space_group_crystal_system       triclinic
_cell_length_a                    15.867485
_cell_length_b                    10.833404
_cell_length_c                    9.531584
_cell_angle_alpha                 90.791116
_cell_angle_beta                  89.987907
_cell_angle_gamma                 90.515946
_cell_volume                      1638.24595666

loop_
_atom_site_label
_atom_site_type_symbol
_atom_type_description
_atom_site_fract_x
_atom_site_fract_y
_atom_site_fract_z
_atom_type_partial_charge
C1    C     C_R   0.496913 0.262248 0.498859 0.894757
C2    C     C_R   0.503210 0.737706 0.501102 0.880817
C3    C     C_R   0.454390 0.929830 0.402507 -0.277259
C4    C     C_R   0.546338 0.070064 0.596992 -0.270400
C5    C     C_R   0.504170 0.871628 0.502450 -0.226223
C6    C     C_R   0.496397 0.128266 0.497241 -0.223842
C7    C     C_R   0.434128 0.449943 0.073429 0.071644
C8    C     C_R   0.565916 0.549925 0.926546 0.046327
C9    C     C_R   0.434313 0.449427 0.924881 0.012596
C10   C     C_R   0.565704 0.550526 0.075105 -0.017413
C11   C     C_R   0.339815 0.500501 0.500021 0.857730
C12   C     C_R   0.660192 0.499876 0.499996 0.845024
C13   C     C_3   0.971557 0.398891 0.561245 0.454561
C14   C     C_3   0.028469 0.601603 0.438641 0.452321
C15   C     C_3   0.027537 0.399898 0.428817 -0.222214
C16   C     C_3   0.972492 0.600597 0.571069 -0.213195
C17   C     C_1   0.250125 0.500297 0.500097 -0.112375
C18   C     C_1   0.749886 0.500218 0.499921 -0.095050
C19   C     C_3   0.028080 0.497498 0.633453 -0.238087
C20   C     C_3   0.971944 0.502997 0.366432 -0.242161
C21   C     C_3   0.082928 0.499820 0.500227 0.019543
C22   C     C_3   0.917095 0.500678 0.499663 0.016879
C23   C     C_1   0.174589 0.500012 0.500166 0.058088
C24   C     C_1   0.825427 0.500512 0.499788 0.066759
C25   C     C_R   0.449013 0.057598 0.399196 0.459678
C26   C     C_R   0.551774 0.942256 0.600248 0.461747
Cu1   Cu    Cu3+1 0.500000 0.500020 0.640660 1.033138
Cu2   Cu    Cu3+1 0.500000 0.499980 0.359340 1.018776
H1    H     H_    0.051003 0.317100 0.371667 0.200808
H2    H     H_    0.949050 0.683406 0.628223 0.207065
H3    H     H_    0.948079 0.506396 0.257095 0.191389
H4    H     H_    0.051948 0.494097 0.742790 0.191125
H5    H     H_    0.417920 0.874572 0.328408 0.216706
H6    H     H_    0.582653 0.125312 0.671322 0.215211
H7    H     H_    0.381140 0.409891 0.128169 0.155747
H8    H     H_    0.618889 0.590033 0.871749 0.173432
H9    H     H_    0.381748 0.408149 0.868750 0.142060
H10   H     H_    0.618252 0.591866 0.131223 0.137544
N1    N     N_R   0.500020 0.500030 0.852070 -0.173462
N2    N     N_R   0.499980 0.499970 0.147930 -0.172950
O1    O     O_R   0.500000 0.319660 0.618740 -0.589710
O2    O     O_R   0.500000 0.680340 0.381260 -0.594718
O3    O     O_R   0.499990 0.319630 0.381170 -0.521677
O4    O     O_R   0.500010 0.680370 0.618830 -0.513757
O5    O     O_R   0.379080 0.500000 0.618760 -0.592654
O6    O     O_R   0.620920 0.500000 0.381240 -0.597489
O7    O     O_R   0.379080 0.499970 0.381190 -0.575409
O8    O     O_R   0.620920 0.500030 0.618810 -0.565048
Cl1   Cl    Cl    0.932487 0.263248 0.643266 -0.517243
Cl2   Cl    Cl    0.067550 0.737239 0.356617 -0.518195
S1    S     S_3+6 0.379761 0.123052 0.275450 0.024627
O9    O     O_2   0.430725 0.172426 0.155471 -0.287136
O10   O     O_2   0.318950 0.026902 0.220101 -0.248852
O11   O     O_3   0.325013 0.238009 0.351360 -0.560229
H11   H     H_    0.285430 0.265654 0.278102 0.365698
S2    S     S_3+6 0.620187 0.877008 0.725528 0.023470
O12   O     O_2   0.665977 0.768614 0.663083 -0.314617
O13   O     O_2   0.683793 0.971759 0.774954 -0.259029
O14   O     O_3   0.562096 0.830968 0.863076 -0.518791
H12   H     H_    0.602347 0.825941 0.942173 0.363915

loop_
_geom_bond_atom_site_label_1
_geom_bond_atom_site_label_2
_ccdc_geom_bond_type
Cu1   O8    S    
C4    C26   A    
C7    N2    A    
C25   S1    S    
Cu2   O7    S    
C18   C24   T    
C8    N1    A    
C4    H6    S    
Cu1   O1    S    
Cu2   O3    S    
C11   O7    A    
S2    O14   S    
C10   H10   S    
C12   O8    A    
S1    O11   S    
Cu1   O5    S    
C9    H9    S    
O14   H12   S    
C10   N2    A    
C17   C23   T    
Cu2   O6    S    
C14   Cl2   S    
C26   S2    S    
C2    O2    A    
C16   C19   S    
C13   Cl1   S    
C19   H4    S    
C14   C21   S    
C1    O1    A    
C19   C21   S    
C20   C22   S    
C13   C22   S    
C15   H1    S    
C14   C16   S    
C13   C15   S    
C21   C23   S    
C15   C20   S    
C22   C24   S    
C11   O5    A    
C2    C5    S    
C3    H5    S    
C16   H2    S    
Cu1   N1    S    
C5    C26   A    
C6    C25   A    
C14   C20   S    
C15   C21   S    
C3    C25   A    
S1    O9    D    
S2    O12   D    
C9    N1    A    
C12   O6    A    
C4    C6    A    
C8    H8    S    
Cu2   O2    S    
Cu1   Cu2   S    
C7    C9    A    
Cu2   N2    S    
O11   H11   S    
C11   C17   S    
C13   C19   S    
C16   C22   S    
S1    O10   D    
C7    H7    S    
Cu1   O4    S    
C1    O3    A    
C8    C10   A    
C2    O4    A    
C1    C6    S    
S2    O13   D    
C3    C5    A    
C20   H3    S    
C12   C18   S    
