data_mof_unit_20311.cif
_audit_creation_date              2013-03-05T15:46:12-0500
_audit_creation_method            fapswitch 2.2
_symmetry_space_group_name_H-M    P1
_symmetry_Int_Tables_number       1
_space_group_crystal_system       triclinic
_cell_length_a                    10.538607
_cell_length_b                    10.697417
_cell_length_c                    17.097781
_cell_angle_alpha                 80.420069
_cell_angle_beta                  89.914378
_cell_angle_gamma                 119.177693
_cell_volume                      1651.82180969

loop_
_atom_site_label
_atom_site_type_symbol
_atom_site_description
_atom_site_fract_x
_atom_site_fract_y
_atom_site_fract_z
_atom_type_partial_charge
O1    O     O_R   0.521780 0.757110 0.108900 -0.471614
O2    O     O_R   0.275160 0.783810 0.101120 -0.496377
C1    C     C_R   0.222349 0.854227 0.128590 0.541513
O3    O     O_R   0.237900 0.972600 0.090980 -0.477696
O4    O     O_R   0.511190 0.220540 0.061620 -0.444510
C2    C     C_R   0.638589 0.283769 0.085355 0.580346
O5    O     O_R   0.736920 0.257720 0.063840 -0.500621
O6    O     O_R   0.710450 0.984050 0.081720 -0.492143
C3    C     C_R   0.640885 0.858355 0.125210 0.552555
O7    O     O_R   0.524090 0.765520 0.933110 -0.440458
O8    O     O_R   0.277300 0.791600 0.938160 -0.465023
C4    C     C_R   0.217437 0.860553 0.900782 0.575492
O9    O     O_R   0.240210 0.981010 0.915190 -0.455261
O10   O     O_R   0.513330 0.228330 0.898660 -0.436313
C5    C     C_R   0.637288 0.284399 0.860865 0.596547
O11   O     O_R   0.739230 0.266130 0.888050 -0.472152
O12   O     O_R   0.712580 0.991850 0.918770 -0.502548
C6    C     C_R   0.647969 0.866437 0.899505 0.576283
Cr1   Cr    Cr6+3 0.402240 0.783890 0.019450 1.159193
Cr2   Cr    Cr6+3 0.382360 0.097900 0.991800 1.204573
Cr3   Cr    Cr6+3 0.715380 0.118170 0.988700 1.138189
O13   O     O_3   0.499990 0.999980 0.999980 -0.331861
C7    C     C_R   0.557887 0.378176 0.190424 0.190644
C8    C     C_R   0.578904 0.412189 0.266622 -0.105402
C9    C     C_R   0.708900 0.439198 0.300813 -0.029692
C10   C     C_R   0.824708 0.450014 0.255071 -0.150954
C11   C     C_R   0.805042 0.415631 0.180018 -0.147723
C12   C     C_R   0.668216 0.367634 0.149620 0.017067
C13   C     C_1   0.669296 0.848525 0.205317 -0.019361
C14   C     C_1   0.680249 0.838667 0.274826 -0.021212
C15   C     C_1   0.180107 0.825552 0.211117 -0.024051
C16   C     C_1   0.150915 0.819465 0.279762 -0.020328
C17   C     C_1   0.643940 0.322207 0.777984 0.032162
C18   C     C_1   0.651343 0.343713 0.707366 0.034664
C19   C     C_R   0.607248 0.714203 0.800910 0.162017
C20   C     C_R   0.569323 0.710845 0.723349 0.122859
C21   C     C_R   0.654944 0.833197 0.662312 -0.037897
C22   C     C_R   0.752236 0.968790 0.682554 0.146459
C23   C     C_R   0.764921 0.976921 0.762998 -0.130326
C24   C     C_R   0.690174 0.850832 0.822227 -0.038015
C25   C     C_R   0.183665 0.951308 0.765099 0.128199
C26   C     C_R   0.210395 0.952952 0.685531 0.163946
C27   C     C_R   0.163362 0.819114 0.661802 -0.048041
C28   C     C_R   0.125446 0.692745 0.719032 -0.132739
C29   C     C_R   0.129927 0.697862 0.800099 0.148604
C30   C     C_R   0.162426 0.829901 0.823536 -0.036996
O14   O     O_R   0.083770 0.911170 0.376030 -0.472987
O15   O     O_R   0.808770 0.880340 0.383890 -0.487179
C31   C     C_R   0.686411 0.809624 0.357236 0.542356
O16   O     O_R   0.584340 0.689460 0.394160 -0.517282
O17   O     O_R   0.614320 0.443940 0.423590 -0.476733
C32   C     C_R   0.727258 0.459685 0.383197 0.549708
O18   O     O_R   0.805020 0.410040 0.421340 -0.456114
O19   O     O_R   0.049240 0.685450 0.403290 -0.524332
C33   C     C_R   0.103682 0.810145 0.359224 0.546531
O20   O     O_R   0.077520 0.903010 0.551800 -0.447171
O21   O     O_R   0.802980 0.872780 0.546830 -0.463802
C34   C     C_R   0.674997 0.802419 0.584405 0.585153
O22   O     O_R   0.578090 0.681300 0.569920 -0.452012
O23   O     O_R   0.608530 0.436370 0.586530 -0.427414
C35   C     C_R   0.678385 0.381572 0.624298 0.612143
O24   O     O_R   0.798770 0.401880 0.597100 -0.464970
O25   O     O_R   0.043450 0.677890 0.566230 -0.505656
C36   C     C_R   0.102658 0.803066 0.585329 0.576170
Cr4   Cr    Cr6+3 0.936650 0.882420 0.465510 1.136574
Cr5   Cr    Cr6+3 0.605770 0.565620 0.493360 1.155000
Cr6   Cr    Cr6+3 0.921340 0.550490 0.496380 1.123094
O26   O     O_3   0.821250 0.666180 0.485090 -0.343248
N1    N     N_R   0.425117 0.353785 0.156305 0.085445
O27   O     O_R   0.302732 0.291409 0.201566 -0.323014
O28   O     O_R   0.430372 0.415718 0.083174 -0.251019
N2    N     N_R   0.273971 0.087581 0.627927 0.106263
O29   O     O_R   0.223721 0.177617 0.625411 -0.198274
O30   O     O_R   0.372518 0.112678 0.572333 -0.312538
H1    H     H_    0.083854 0.588161 0.701145 0.220174
N3    N     N_R   0.090102 0.566757 0.857484 0.104316
O31   O     O_R   0.020615 0.542872 0.926131 -0.306975
O32   O     O_R   0.105935 0.462542 0.837579 -0.228932
H2    H     H_    0.492535 0.414685 0.299536 0.181941
H3    H     H_    0.928751 0.478862 0.278763 0.154625
H4    H     H_    0.894628 0.416219 0.148484 0.181002
N4    N     N_R   0.550364 0.581889 0.860036 0.106325
O33   O     O_R   0.412372 0.484564 0.867877 -0.184775
O34   O     O_R   0.633623 0.567493 0.912749 -0.316418
N5    N     N_R   0.444910 0.583226 0.706749 0.147795
O35   O     O_R   0.337954 0.593551 0.674468 -0.284230
O36   O     O_R   0.450675 0.464268 0.709880 -0.227944
N6    N     N_R   0.829845 0.099571 0.622902 0.100335
O37   O     O_R   0.948415 0.210240 0.638265 -0.246457
O38   O     O_R   0.773896 0.115058 0.556617 -0.296062
H5    H     H_    0.825372 0.083105 0.779286 0.218058
N7    N     N_R   0.179055 0.073262 0.786168 0.143528
O39   O     O_R   0.061322 0.053377 0.823684 -0.294977
O40   O     O_R   0.299281 0.195928 0.782404 -0.208017

loop_
_geom_bond_atom_site_label_1
_geom_bond_atom_site_label_2
_geom_bond_distance
_ccdc_geom_bond_type
Cr5   O26   1.974979 S    
O11   Cr3   2.057685 S    
C25   C26   1.384375 A    
C7    N1    1.436432 S    
C19   C20   1.386752 A    
O4    Cr2   1.943953 S    
N5    O35   1.300112 A    
C28   C29   1.396181 A    
O8    Cr1   1.935315 S    
C10   C11   1.381477 A    
C13   C14   1.186356 T    
O24   Cr6   2.059438 S    
C29   N3    1.439652 S    
O14   Cr4   2.051935 S    
C20   C21   1.416827 A    
N3    O32   1.301543 A    
O22   Cr5   2.054248 S    
O4    C2    1.277623 A    
C5    O11   1.258722 A    
N1    O28   1.301430 A    
C6    C24   1.454482 S    
C2    C12   1.471637 S    
O6    C3    1.266013 A    
C7    C8    1.399588 A    
O20   C36   1.270632 A    
O15   Cr4   1.936730 S    
C16   C33   1.417063 S    
C21   C34   1.462994 S    
C3    C13   1.400219 S    
N6    O37   1.301561 A    
O23   Cr5   1.938151 S    
Cr3   O13   1.976731 S    
N1    O27   1.301392 A    
C23   H5    1.083474 S    
C19   N4    1.441993 S    
C27   C36   1.455499 S    
O12   C6    1.276349 A    
N5    O36   1.295626 A    
O25   Cr6   1.943196 S    
O1    Cr1   2.054265 S    
O17   C32   1.298186 A    
O10   Cr2   1.940099 S    
C11   H4    1.083350 S    
Cr1   O13   1.984069 S    
O1    C3    1.265845 A    
C8    C9    1.405251 A    
N2    O30   1.301705 A    
O21   Cr4   1.932103 S    
C23   C24   1.404414 A    
O19   Cr6   1.940560 S    
C34   O22   1.265079 A    
O5    Cr3   2.058978 S    
C18   C35   1.398999 S    
C10   H3    1.083779 S    
Cr6   O26   1.968610 S    
C22   N6    1.439901 S    
O23   C35   1.264432 A    
O17   Cr5   1.938131 S    
C28   H1    1.083264 S    
C27   C28   1.405860 A    
C21   C22   1.411751 A    
C8    H2    1.083074 S    
C15   C16   1.195980 T    
O7    Cr1   2.050311 S    
C25   C30   1.420956 A    
Cr4   O26   1.984961 S    
N7    O40   1.296888 A    
O6    Cr3   1.938611 S    
C7    C12   1.415251 A    
N3    O31   1.301654 A    
C1    C15   1.415692 S    
O16   Cr5   2.056151 S    
C4    C30   1.465969 S    
O15   C31   1.268109 A    
C14   C31   1.400129 S    
Cr2   O13   1.967592 S    
N4    O33   1.301322 A    
N4    O34   1.301473 A    
C26   C27   1.400757 A    
C1    O3    1.253061 A    
C32   O18   1.299846 A    
O14   C33   1.272335 A    
O19   C33   1.262591 A    
O9    Cr2   2.061083 S    
O2    Cr1   1.932962 S    
N6    O38   1.301647 A    
N2    O29   1.301360 A    
O8    C4    1.283949 A    
C2    O5    1.265450 A    
C20   N5    1.431159 S    
C19   C24   1.402006 A    
C9    C10   1.394246 A    
C9    C32   1.460066 S    
O21   C34   1.282593 A    
C22   C23   1.395075 A    
O7    C6    1.271629 A    
N7    O39   1.300393 A    
C17   C18   1.186014 T    
O2    C1    1.274173 A    
C35   O24   1.252552 A    
O18   Cr6   2.063181 S    
O12   Cr3   1.937898 S    
O25   C36   1.272996 A    
O3    Cr2   2.058155 S    
C29   C30   1.410698 A    
C25   N7    1.432567 S    
C4    O9    1.258177 A    
C31   O16   1.260024 A    
C11   C12   1.407901 A    
O10   C5    1.260305 A    
C26   N2    1.441574 S    
C5    C17   1.399252 S    
O20   Cr4   2.055496 S    
