data_mof_unit_21319.cif
_audit_creation_date              2013-03-05T15:44:39-0500
_audit_creation_method            fapswitch 2.2
_symmetry_space_group_name_H-M    P1
_symmetry_Int_Tables_number       1
_space_group_crystal_system       triclinic
_cell_length_a                    18.974901
_cell_length_b                    10.890713
_cell_length_c                    18.860611
_cell_angle_alpha                 90.045671
_cell_angle_beta                  90.12304
_cell_angle_gamma                 90.275873
_cell_volume                      3897.49361797

loop_
_atom_site_label
_atom_site_type_symbol
_atom_site_description
_atom_site_fract_x
_atom_site_fract_y
_atom_site_fract_z
_atom_type_partial_charge
O1    O     O_R   0.787540 0.042690 0.170470 -0.527609
O2    O     O_R   0.212460 0.042690 0.829530 -0.529039
O3    O     O_R   0.287540 0.542690 0.170470 -0.522569
O4    O     O_R   0.712460 0.542690 0.829530 -0.523726
O5    O     O_R   0.765660 0.292160 0.175050 -0.513699
O6    O     O_R   0.234340 0.292160 0.824950 -0.506819
O7    O     O_R   0.265660 0.792160 0.175050 -0.512071
O8    O     O_R   0.734340 0.792160 0.824950 -0.505202
C1    C     C_R   0.730228 0.376697 0.145910 0.538824
C2    C     C_R   0.288091 0.330421 0.861628 0.551494
C3    C     C_R   0.230210 0.877004 0.145954 0.539006
C4    C     C_R   0.772110 0.872366 0.856246 0.553312
O9    O     O_R   0.670190 0.408980 0.168550 -0.523964
O10   O     O_R   0.329810 0.408980 0.831450 -0.510582
O11   O     O_R   0.170190 0.908980 0.168550 -0.524983
O12   O     O_R   0.829810 0.908980 0.831450 -0.521873
O13   O     O_R   0.556580 0.251450 0.175160 -0.510052
O14   O     O_R   0.443420 0.251450 0.824840 -0.524905
O15   O     O_R   0.056580 0.751450 0.175160 -0.508898
O16   O     O_R   0.943420 0.751450 0.824840 -0.508551
C5    C     C_R   0.531212 0.156267 0.146720 0.541303
C6    C     C_R   0.468472 0.154950 0.853461 0.533408
C7    C     C_R   0.030793 0.656015 0.146986 0.538315
C8    C     C_R   0.968375 0.655258 0.853601 0.545579
O17   O     O_R   0.545920 0.049510 0.170320 -0.522080
O18   O     O_R   0.454080 0.049510 0.829680 -0.517893
O19   O     O_R   0.045920 0.549510 0.170320 -0.522602
O20   O     O_R   0.954080 0.549510 0.829680 -0.515189
O21   O     O_R   0.681390 0.957840 0.176710 -0.508413
O22   O     O_R   0.318610 0.957840 0.823290 -0.504263
O23   O     O_R   0.181390 0.457840 0.176710 -0.506010
O24   O     O_R   0.818610 0.457840 0.823290 -0.500329
C9    C     C_R   0.741315 0.968021 0.147854 0.542055
C10   C     C_R   0.259664 0.973647 0.854208 0.543631
C11   C     C_R   0.241895 0.467046 0.148001 0.544960
C12   C     C_R   0.760016 0.474948 0.854560 0.549531
O25   O     O_R   0.787500 0.044280 0.330990 -0.470930
O26   O     O_R   0.212500 0.044280 0.669010 -0.463348
O27   O     O_R   0.287500 0.544280 0.330990 -0.472531
O28   O     O_R   0.712500 0.544280 0.669010 -0.477610
O29   O     O_R   0.765610 0.293630 0.323860 -0.438241
O30   O     O_R   0.234390 0.293630 0.676140 -0.443196
O31   O     O_R   0.265610 0.793630 0.323860 -0.441489
O32   O     O_R   0.734390 0.793630 0.676140 -0.428463
C13   C     C_R   0.730663 0.379273 0.352096 0.562285
C14   C     C_R   0.269763 0.379941 0.647836 0.577693
C15   C     C_R   0.231171 0.880505 0.351594 0.562783
C16   C     C_R   0.786927 0.834642 0.639837 0.560044
O33   O     O_R   0.670140 0.410570 0.329080 -0.500825
O34   O     O_R   0.329860 0.410570 0.670920 -0.517629
O35   O     O_R   0.170140 0.910570 0.329080 -0.493978
O36   O     O_R   0.829860 0.910570 0.670920 -0.496709
O37   O     O_R   0.556540 0.252920 0.323970 -0.441230
O38   O     O_R   0.443460 0.252920 0.676030 -0.450968
O39   O     O_R   0.056540 0.752920 0.323970 -0.438268
O40   O     O_R   0.943460 0.752920 0.676030 -0.476035
C17   C     C_R   0.530690 0.157855 0.352902 0.569239
C18   C     C_R   0.466928 0.157097 0.645457 0.584961
C19   C     C_R   0.031153 0.658430 0.353186 0.564953
C20   C     C_R   0.966669 0.656842 0.645411 0.579349
O41   O     O_R   0.545870 0.051100 0.330840 -0.528092
O42   O     O_R   0.454130 0.051100 0.669160 -0.521258
O43   O     O_R   0.045870 0.551100 0.330840 -0.525766
O44   O     O_R   0.954130 0.551100 0.669160 -0.515900
O45   O     O_R   0.681340 0.959300 0.325510 -0.512289
O46   O     O_R   0.318660 0.959300 0.674490 -0.513408
O47   O     O_R   0.181340 0.459300 0.325510 -0.511336
O48   O     O_R   0.818660 0.459300 0.674490 -0.515764
C21   C     C_R   0.741706 0.969451 0.353853 0.556664
C22   C     C_R   0.260569 0.978936 0.642757 0.572631
C23   C     C_R   0.240873 0.472769 0.355333 0.559028
C24   C     C_R   0.759691 0.476144 0.643728 0.557623
Cr1   Cr    Cr6+3 0.772000 0.169640 0.250110 1.072367
Cr2   Cr    Cr6+3 0.228000 0.169640 0.749890 1.080636
Cr3   Cr    Cr6+3 0.272000 0.669640 0.250110 1.076652
Cr4   Cr    Cr6+3 0.728000 0.669640 0.749890 1.077104
Cr5   Cr    Cr6+3 0.614960 0.323350 0.249260 1.078671
Cr6   Cr    Cr6+3 0.385040 0.323350 0.750740 1.068055
Cr7   Cr    Cr6+3 0.114960 0.823350 0.249260 1.080288
Cr8   Cr    Cr6+3 0.885040 0.823350 0.750740 1.067095
Cr9   Cr    Cr6+3 0.616670 0.010620 0.250840 1.027185
Cr10  Cr    Cr6+3 0.383330 0.010620 0.749160 1.029696
Cr11  Cr    Cr6+3 0.116670 0.510620 0.250840 1.028689
Cr12  Cr    Cr6+3 0.883330 0.510620 0.749160 1.033542
O49   O     O_3   0.667880 0.167870 0.250070 -0.264333
O50   O     O_3   0.332120 0.167870 0.749930 -0.297133
O51   O     O_3   0.167880 0.667870 0.250070 -0.265778
O52   O     O_3   0.832120 0.667870 0.749930 -0.298635
H1    H     H_    0.479926 0.973423 0.068879 0.135826
H2    H     H_    0.469253 0.967113 0.943858 0.143740
H3    H     H_    0.986125 0.469950 0.067269 0.137508
H4    H     H_    0.976980 0.465700 0.942265 0.144577
C25   C     C_R   0.494382 0.160505 0.926536 0.002432
C26   C     C_R   0.502143 0.168549 0.074934 0.002447
C27   C     C_R   0.994063 0.662038 0.926840 0.004153
C28   C     C_R   0.000965 0.667105 0.075425 0.000604
C29   C     C_R   0.511799 0.272648 0.960077 0.009600
C30   C     C_R   0.508802 0.279652 0.035063 0.025797
C31   C     C_R   0.006569 0.775361 0.961697 0.020127
C32   C     C_R   0.003307 0.779620 0.036761 0.030057
C33   C     C_R   0.486679 0.058759 0.040076 -0.156701
C34   C     C_R   0.483201 0.054614 0.967536 -0.148293
C35   C     C_R   0.989705 0.556768 0.039411 -0.154503
C36   C     C_R   0.987026 0.554064 0.966820 -0.146293
C37   C     C_R   0.530850 0.378326 0.920931 -0.091756
C38   C     C_R   0.512283 0.397438 0.066938 -0.088164
C39   C     C_R   0.021926 0.884457 0.924017 -0.088282
C40   C     C_R   0.002730 0.896087 0.070197 -0.088675
C41   C     C_R   0.025172 0.997229 0.958789 -0.138553
C42   C     C_R   0.013633 0.003384 0.031400 -0.146334
C43   C     C_R   0.538250 0.491783 0.954264 -0.126308
C44   C     C_R   0.526958 0.501886 0.026773 -0.138452
H5    H     H_    0.540640 0.374125 0.864524 0.149318
H6    H     H_    0.500518 0.411898 0.122267 0.141793
H7    H     H_    0.032688 0.883659 0.867766 0.149784
H8    H     H_    0.991003 0.906577 0.125869 0.139535
H9    H     H_    0.035659 0.080336 0.929104 0.112343
H10   H     H_    0.013647 0.091578 0.057915 0.106159
H11   H     H_    0.551500 0.572504 0.923511 0.116606
H12   H     H_    0.530021 0.590957 0.052146 0.104520
C45   C     C_R   0.691558 0.880303 0.037276 -0.138380
C46   C     C_R   0.300684 0.863023 0.961904 -0.137099
C47   C     C_R   0.199220 0.360845 0.039341 -0.140625
C48   C     C_R   0.796174 0.356108 0.960695 -0.140429
H13   H     H_    0.640731 0.865522 0.061965 0.131390
H14   H     H_    0.338453 0.810972 0.931297 0.128346
H15   H     H_    0.146544 0.353889 0.061052 0.127433
H16   H     H_    0.828824 0.296514 0.928716 0.124727
C49   C     C_R   0.696944 0.868730 0.964047 -0.147883
C50   C     C_R   0.298181 0.848566 0.035154 -0.135607
C51   C     C_R   0.209575 0.333076 0.968072 -0.135839
C52   C     C_R   0.793633 0.339677 0.033703 -0.134291
H17   H     H_    0.651450 0.839481 0.933498 0.118733
H18   H     H_    0.331654 0.780435 0.059771 0.133736
H19   H     H_    0.164841 0.303244 0.936651 0.125529
H20   H     H_    0.822078 0.263448 0.056769 0.136517
C53   C     C_R   0.760926 0.896639 0.930911 0.030635
C54   C     C_R   0.249403 0.916298 0.075180 0.030544
C55   C     C_R   0.276219 0.350607 0.937258 0.028008
C56   C     C_R   0.750325 0.415483 0.075351 0.031732
C57   C     C_R   0.820072 0.929586 0.971746 -0.129343
C58   C     C_R   0.206647 0.003216 0.042235 -0.120105
C59   C     C_R   0.333024 0.388100 0.979457 -0.133699
C60   C     C_R   0.713999 0.512776 0.044448 -0.123025
H21   H     H_    0.870998 0.947444 0.948076 0.154977
H22   H     H_    0.169228 0.057670 0.071934 0.135524
H23   H     H_    0.384758 0.400826 0.956748 0.145903
H24   H     H_    0.681068 0.573072 0.075738 0.128551
C61   C     C_R   0.815143 0.938323 0.044103 -0.138843
C62   C     C_R   0.207282 0.013961 0.969788 -0.121542
C63   C     C_R   0.322862 0.415390 0.050409 -0.129997
C64   C     C_R   0.715710 0.527772 0.972054 -0.116856
H25   H     H_    0.861046 0.968104 0.073732 0.133706
H26   H     H_    0.171914 0.079920 0.946152 0.131176
H27   H     H_    0.366971 0.450393 0.080897 0.132069
H28   H     H_    0.686253 0.603190 0.949525 0.133807
C65   C     C_R   0.750432 0.918912 0.077138 0.028390
C66   C     C_R   0.253543 0.943294 0.928798 0.032175
C67   C     C_R   0.255369 0.406802 0.080152 0.027391
C68   C     C_R   0.754955 0.447383 0.929470 0.034665
C69   C     C_R   0.485343 0.058786 0.458796 -0.187860
C70   C     C_R   0.481155 0.056169 0.531210 -0.180046
C71   C     C_R   0.978194 0.564521 0.456913 -0.186808
C72   C     C_R   0.972254 0.559933 0.529223 -0.174098
H29   H     H_    0.481107 0.972268 0.430614 0.176063
H30   H     H_    0.469951 0.968071 0.555455 0.166987
H31   H     H_    0.968650 0.480973 0.427036 0.175554
H32   H     H_    0.954161 0.474175 0.552056 0.169140
C73   C     C_R   0.489142 0.163992 0.571326 -0.012080
C74   C     C_R   0.499668 0.168660 0.423616 -0.019373
C75   C     C_R   0.987956 0.663141 0.571169 -0.015367
C76   C     C_R   0.000353 0.672180 0.423835 -0.022506
C77   C     C_R   0.501422 0.277283 0.536910 0.186274
C78   C     C_R   0.502287 0.280650 0.462062 0.191835
C79   C     C_R   0.008525 0.774408 0.539114 0.166097
C80   C     C_R   0.009958 0.781787 0.464270 0.176518
C81   C     C_R   0.820760 0.916004 0.451998 -0.131735
C82   C     C_R   0.215477 0.031217 0.524896 -0.091192
C83   C     C_R   0.305647 0.483028 0.466548 -0.111246
C84   C     C_R   0.710547 0.521397 0.526969 -0.102669
H33   H     H_    0.865335 0.947170 0.421613 0.214700
H34   H     H_    0.182455 0.101241 0.547912 0.204809
H35   H     H_    0.349583 0.527192 0.440274 0.220960
H36   H     H_    0.676122 0.589386 0.549978 0.210809
C85   C     C_R   0.830188 0.888075 0.522588 -0.184703
C86   C     C_R   0.216218 0.019519 0.452114 -0.142538
C87   C     C_R   0.305963 0.480508 0.539030 -0.171524
C88   C     C_R   0.711633 0.510930 0.454395 -0.152201
H37   H     H_    0.882371 0.893267 0.544790 0.180427
H38   H     H_    0.182462 0.078258 0.420680 0.171031
H39   H     H_    0.350703 0.521265 0.565816 0.194967
H40   H     H_    0.677106 0.569002 0.423417 0.177712
C89   C     C_R   0.772614 0.858395 0.565167 0.053957
C90   C     C_R   0.254541 0.925136 0.420804 0.059664
C91   C     C_R   0.252538 0.419244 0.576111 0.061864
C92   C     C_R   0.751974 0.419660 0.422557 0.054620
C93   C     C_R   0.704327 0.848953 0.535118 0.224592
C94   C     C_R   0.303475 0.857456 0.461776 0.224906
C95   C     C_R   0.192900 0.374004 0.539647 0.216995
C96   C     C_R   0.800100 0.350043 0.463609 0.224269
C97   C     C_R   0.695812 0.874245 0.462948 -0.134329
C98   C     C_R   0.303425 0.871842 0.535545 -0.137918
C99   C     C_R   0.191193 0.382982 0.465440 -0.141611
C100  C     C_R   0.800601 0.365250 0.537272 -0.136879
H41   H     H_    0.643394 0.872520 0.440031 0.133966
H42   H     H_    0.339145 0.818493 0.568018 0.121265
H43   H     H_    0.145039 0.351487 0.436664 0.133765
H44   H     H_    0.836789 0.312797 0.569706 0.130373
C101  C     C_R   0.753543 0.912207 0.422226 -0.010639
C102  C     C_R   0.256744 0.953979 0.567267 0.008757
C103  C     C_R   0.248092 0.436240 0.428926 -0.007789
C104  C     C_R   0.754001 0.447342 0.569001 0.002821
O53   O     O_3   0.646677 0.820997 0.576931 -0.665096
H45   H     H_    0.603554 0.818638 0.547130 0.325984
O54   O     O_3   0.349058 0.776330 0.429484 -0.675685
H46   H     H_    0.381419 0.741913 0.465657 0.322271
O55   O     O_3   0.137503 0.322912 0.576989 -0.671072
H47   H     H_    0.100137 0.297162 0.543177 0.333847
O56   O     O_3   0.844087 0.265804 0.431586 -0.662409
H48   H     H_    0.873258 0.224937 0.468252 0.333664
N1    N     N_R   0.514945 0.386516 0.577679 0.109406
O57   O     O_R   0.562220 0.385345 0.627761 -0.325859
O58   O     O_R   0.480704 0.487301 0.565078 -0.324950
N2    N     N_R   0.505579 0.396068 0.425345 0.107984
O59   O     O_R   0.461153 0.419218 0.374479 -0.353253
O60   O     O_R   0.552919 0.477874 0.441852 -0.307317
N3    N     N_R   0.029204 0.877174 0.582569 0.107663
O61   O     O_R   0.076807 0.862774 0.631585 -0.323858
O62   O     O_R   0.997449 0.982382 0.577123 -0.309316
N4    N     N_R   0.021386 0.898341 0.429903 0.103233
O63   O     O_R   0.983308 0.929912 0.375505 -0.361074
O64   O     O_R   0.066750 0.976781 0.454901 -0.307653

loop_
_geom_bond_atom_site_label_1
_geom_bond_atom_site_label_2
_geom_bond_distance
_ccdc_geom_bond_type
C18   O42   1.260963 A    
Cr11  O51   1.965039 S    
O4    C12   1.259589 A    
O47   Cr11  1.949868 S    
C33   C34   1.370295 A    
O39   C19   1.261715 A    
C16   C89   1.457294 S    
O20   Cr12  2.067047 S    
C58   H22   1.083886 S    
C15   C90   1.459879 S    
C71   H31   1.084162 S    
C43   C44   1.389071 A    
C95   O55   1.381575 S    
C40   H8    1.079872 S    
C92   C96   1.418737 A    
C77   N1    1.437727 S    
N2    O59   1.301367 A    
C42   H10   1.082534 S    
N4    O64   1.297498 A    
C64   C68   1.404936 A    
C29   C30   1.417556 A    
O48   Cr12  1.945831 S    
C57   C61   1.371347 A    
C14   C91   1.456167 S    
C38   C44   1.394467 A    
C77   C78   1.412313 A    
O7    C3    1.269900 A    
C76   C80   1.426745 A    
C48   C52   1.389615 A    
O5    C1    1.267628 A    
C60   H24   1.083910 S    
C47   C67   1.403144 A    
C28   C32   1.426997 A    
C38   H6    1.079213 S    
C69   H29   1.084020 S    
O24   C12   1.274081 A    
C37   H5    1.081343 S    
C3    C54   1.448807 S    
C4    C53   1.448873 S    
O25   C21   1.265096 A    
O26   Cr2   2.065987 S    
C1    C56   1.447889 S    
C27   C31   1.416644 A    
C83   C87   1.367345 A    
C5    C26   1.467329 S    
C26   C30   1.430354 A    
C81   C85   1.377393 A    
C83   C103  1.395196 A    
O8    Cr4   1.947759 S    
O23   Cr11  1.950952 S    
C7    C28   1.467715 S    
C82   C102  1.401438 A    
O32   Cr4   1.942952 S    
O30   C14   1.270952 A    
C90   C94   1.416693 A    
C81   C101  1.392899 A    
C97   H41   1.083692 S    
C84   C104  1.401206 A    
N3    O61   1.301210 A    
C1    O9    1.268649 A    
O44   Cr12  2.068773 S    
O25   Cr1   2.069463 S    
C84   C88   1.373649 A    
C70   H30   1.083503 S    
C71   C72   1.369634 A    
C3    O11   1.267113 A    
O11   Cr7   2.069996 S    
C64   H28   1.082373 S    
C26   C33   1.393749 A    
C40   C42   1.394070 A    
C94   C98   1.400001 A    
C62   H26   1.081188 S    
C93   C97   1.398171 A    
O32   C16   1.288882 A    
O27   Cr3   2.069463 S    
O3    Cr3   2.063289 S    
Cr4   O52   1.975852 S    
C83   H35   1.081770 S    
O2    Cr2   2.062990 S    
O8    C4    1.271364 A    
C48   H16   1.083368 S    
C29   C37   1.413817 A    
Cr6   O50   1.964511 S    
C13   C92   1.455362 S    
C59   C63   1.384666 A    
C37   C43   1.392270 A    
C60   C64   1.375702 A    
Cr5   O49   1.972849 S    
O21   C9    1.266081 A    
C45   C65   1.407616 A    
Cr8   O52   1.964511 S    
C95   C99   1.403403 A    
C39   C41   1.392880 A    
C99   C103  1.405032 A    
C50   H18   1.083217 S    
C55   C59   1.397692 A    
C98   C102  1.397070 A    
C94   O54   1.381447 S    
O34   Cr6   2.066409 S    
Cr7   O51   1.972849 S    
C9    C65   1.447625 S    
O6    Cr2   1.947759 S    
C91   C95   1.409615 A    
O31   Cr3   1.942223 S    
O24   Cr12  1.948122 S    
C97   C101  1.400195 A    
O9    Cr5   2.069996 S    
C32   C40   1.416173 A    
O30   Cr2   1.942952 S    
O22   C10   1.274829 A    
O26   C22   1.261409 A    
C41   H9    1.082501 S    
C81   H33   1.076408 S    
O53   H45   0.991923 S    
C4    O12   1.254881 A    
C72   H32   1.083409 S    
C18   C73   1.463065 S    
C78   N2    1.436770 S    
O37   C17   1.267840 A    
C54   C58   1.395184 A    
C8    C27   1.465518 S    
H3    C35   1.083978 S    
O56   H48   0.991933 S    
C44   H12   1.082588 S    
O16   Cr8   1.948569 S    
O7    Cr3   1.950096 S    
O55   H47   0.991899 S    
Cr10  O50   1.973157 S    
C75   C79   1.408490 A    
O13   C5    1.259835 A    
O40   C20   1.275484 A    
O43   Cr11  2.071018 S    
O48   C24   1.273428 A    
O12   Cr8   2.073444 S    
C63   C67   1.402002 A    
C46   H14   1.083219 S    
O15   C7    1.262991 A    
O54   H46   0.991882 S    
C45   H13   1.083247 S    
N1    O57   1.301366 A    
C96   C100  1.399045 A    
O46   Cr10  1.945831 S    
O39   Cr7   1.950098 S    
O3    C11   1.264674 A    
H4    C36   1.083538 S    
C47   H15   1.083297 S    
C31   C32   1.417971 A    
C13   O33   1.274886 A    
O40   Cr8   1.953412 S    
C52   H20   1.083372 S    
C80   N4    1.441430 S    
C47   C51   1.392099 A    
C100  C104  1.395821 A    
O13   Cr5   1.943381 S    
Cr12  O52   1.973157 S    
C46   C66   1.400077 A    
Cr2   O50   1.975852 S    
O15   Cr7   1.943381 S    
C71   C76   1.392216 A    
Cr1   O49   1.975666 S    
C82   H34   1.080688 S    
C85   H37   1.075464 S    
C49   H17   1.083306 S    
C69   C74   1.394604 A    
C10   C66   1.450164 S    
C43   H11   1.082493 S    
Cr3   O51   1.975666 S    
O14   Cr6   1.948569 S    
N3    O62   1.301157 A    
O21   Cr9   1.950952 S    
C59   H23   1.080225 S    
C7    O19   1.274741 A    
C53   C57   1.404789 A    
C98   H42   1.083808 S    
O37   Cr5   1.950098 S    
C22   C102  1.450890 S    
C6    C25   1.463406 S    
O23   C11   1.273965 A    
C19   O43   1.274679 A    
C21   C101  1.450332 S    
C2    C55   1.461216 S    
C79   N3    1.439173 S    
C19   C76   1.464021 S    
C50   C54   1.406900 A    
C25   C29   1.412453 A    
C69   C70   1.368565 A    
C93   O53   1.382788 S    
C27   C36   1.403393 A    
C17   C74   1.463862 S    
O38   C18   1.274542 A    
O45   C21   1.267304 A    
C5    O17   1.277182 A    
O1    C9    1.266307 A    
C45   C49   1.390789 A    
O29   C13   1.264901 A    
O22   Cr10  1.948122 S    
O28   C24   1.259961 A    
H1    C33   1.084077 S    
O14   C6    1.275343 A    
C20   C75   1.459763 S    
C87   H39   1.080328 S    
C86   C90   1.393610 A    
O5    Cr1   1.950096 S    
C8    O20   1.264558 A    
C85   C89   1.394146 A    
O31   C15   1.265875 A    
C72   C75   1.404413 A    
O17   Cr9   2.070188 S    
N2    O60   1.299312 A    
C25   C34   1.404517 A    
O6    C2    1.298015 A    
C15   O35   1.276856 A    
C17   O41   1.269174 A    
C100  H44   1.083772 S    
C74   C78   1.419035 A    
C57   H21   1.082163 S    
C52   C56   1.407885 A    
C46   C50   1.391493 A    
C31   C39   1.414400 A    
C14   O34   1.263003 A    
C51   H19   1.082645 S    
C63   H27   1.082114 S    
C30   C38   1.417416 A    
C20   O44   1.257803 A    
C88   H40   1.083270 S    
O1    Cr1   2.063289 S    
C58   C62   1.371553 A    
C56   C60   1.394216 A    
N1    O58   1.300003 A    
C79   C80   1.414258 A    
H2    C34   1.083502 S    
C41   C42   1.388956 A    
O2    C10   1.260776 A    
C24   C104  1.447334 S    
C70   C73   1.403821 A    
C99   H43   1.083483 S    
C89   C93   1.416388 A    
C61   H25   1.082143 S    
C48   C68   1.397539 A    
O19   Cr11  2.070188 S    
O33   Cr5   2.060662 S    
C39   H7    1.080864 S    
O47   C23   1.268662 A    
O10   Cr6   2.073444 S    
O42   Cr10  2.068773 S    
N4    O63   1.301043 A    
O35   Cr7   2.060662 S    
O4    Cr4   2.062990 S    
C11   C67   1.461181 S    
C51   C55   1.405110 A    
C12   C68   1.447918 S    
O29   Cr1   1.942223 S    
C82   C86   1.378630 A    
O28   Cr4   2.065987 S    
C16   O36   1.296835 A    
C49   C53   1.398901 A    
O46   C22   1.272241 A    
C88   C92   1.393886 A    
O18   Cr10  2.067047 S    
C6    O18   1.260959 A    
C28   C35   1.395203 A    
C35   C36   1.370237 A    
C96   O56   1.382661 S    
C73   C77   1.413178 A    
O45   Cr9   1.949868 S    
C87   C91   1.399728 A    
C23   C103  1.450592 S    
O41   Cr9   2.071018 S    
C86   H38   1.083463 S    
O36   Cr8   2.066409 S    
C61   C65   1.393418 A    
O16   C8    1.273003 A    
C62   C66   1.403216 A    
Cr9   O49   1.965039 S    
C84   H36   1.081038 S    
C2    O10   1.295681 A    
O38   Cr6   1.953412 S    
O27   C23   1.263243 A    
