data_mof_unit_12939.cif
_audit_creation_date              2012-12-10T17:43:37-0500
_audit_creation_method            fapswitch 2.2
_symmetry_space_group_name_H-M    P1
_symmetry_Int_Tables_number       1
_space_group_crystal_system       triclinic
_cell_length_a                    14.942551
_cell_length_b                    10.672214
_cell_length_c                    9.91216
_cell_angle_alpha                 89.73239
_cell_angle_beta                  89.993252
_cell_angle_gamma                 91.052592
_cell_volume                      1580.40915949

loop_
_atom_site_label
_atom_site_type_symbol
_atom_type_description
_atom_site_fract_x
_atom_site_fract_y
_atom_site_fract_z
_atom_type_partial_charge
C1    C     C_R   0.508530 0.260542 0.501300 0.866036
C2    C     C_R   0.909164 0.609419 0.521964 0.084799
C3    C     C_R   0.955865 0.268410 0.454452 -0.009547
C4    C     C_R   0.048792 0.273519 0.453269 -0.249991
C5    C     C_R   0.094621 0.385612 0.475849 0.112199
C6    C     C_R   0.048016 0.496602 0.501143 0.073303
C7    C     C_R   0.095981 0.609619 0.526483 0.131548
C8    C     C_R   0.051048 0.720440 0.549828 -0.209105
C9    C     C_R   0.958564 0.720715 0.546990 -0.184901
C10   C     C_R   0.187319 0.388107 0.474096 -0.257909
C11   C     C_R   0.232874 0.499676 0.500276 -0.030763
C12   C     C_R   0.327495 0.500515 0.500058 0.863223
C13   C     C_R   0.188700 0.609965 0.527398 -0.245934
C14   C     C_R   0.542150 0.106494 0.758014 0.013539
C15   C     C_R   0.509411 0.049273 0.876015 -0.221848
C16   C     C_R   0.453614 0.943436 0.867712 0.042335
C17   C     C_R   0.439789 0.886320 0.742871 -0.203943
C18   C     C_R   0.478327 0.938613 0.624563 0.068046
C19   C     C_R   0.514721 0.059729 0.629661 0.050247
C20   C     C_R   0.519115 0.126975 0.505557 -0.098137
C21   C     C_R   0.515289 0.064287 0.382227 -0.184447
C22   C     C_R   0.502762 0.937223 0.380697 -0.182891
C23   C     C_R   0.492036 0.739555 0.500090 0.890285
C24   C     C_R   0.484858 0.873433 0.501228 -0.108331
C25   C     C_R   0.385337 0.333528 0.140673 -0.206837
C26   C     C_R   0.329889 0.249705 0.070952 0.016203
C27   C     C_R   0.329898 0.250161 0.931063 -0.225500
C28   C     C_R   0.385313 0.333686 0.860715 -0.161971
C29   C     C_R   0.443678 0.417724 0.928022 0.139919
C30   C     C_R   0.443680 0.417745 0.072557 0.153990
C31   C     C_R   0.553319 0.579119 0.071802 -0.132585
C32   C     C_R   0.553398 0.579438 0.928803 0.011616
C33   C     C_R   0.672727 0.499628 0.499750 0.912250
C34   C     C_R   0.815928 0.610411 0.517905 -0.083486
C35   C     C_R   0.768777 0.497638 0.498536 -0.142443
C36   C     C_R   0.811812 0.383765 0.474657 -0.078902
C37   C     C_R   0.906314 0.380267 0.476091 0.026216
C38   C     C_R   0.954206 0.495054 0.500289 0.014729
H1    H     H_    0.596575 0.643665 0.126467 0.150519
H2    H     H_    0.226664 0.695617 0.547324 0.128646
H3    H     H_    0.087477 0.807253 0.569416 0.152090
H4    H     H_    0.522023 0.113179 0.286558 0.172773
N1    N     N_R   0.499150 0.498800 0.142780 -0.118975
N2    N     N_R   0.499120 0.498720 0.857170 -0.143141
O1    O     O_R   0.500000 0.316780 0.614690 -0.649491
O2    O     O_R   0.499990 0.316750 0.385360 -0.643330
O3    O     O_R   0.367850 0.499980 0.614680 -0.644598
O4    O     O_R   0.367840 0.499960 0.385350 -0.627383
O5    O     O_R   0.500010 0.683250 0.614640 -0.622260
O6    O     O_R   0.500000 0.683220 0.385310 -0.616095
O7    O     O_R   0.632160 0.500040 0.614650 -0.600424
O8    O     O_R   0.632150 0.500020 0.385320 -0.614291
Zn1   Zn    Zn3+2 0.500010 0.500020 0.653130 0.952480
Zn2   Zn    Zn3+2 0.499990 0.499980 0.346870 0.954762
C39   C     C_1   0.767859 0.727621 0.526018 0.175852
N3    N     N_1   0.729719 0.820906 0.531393 -0.169517
C40   C     C_1   0.614341 0.197543 0.772301 0.218343
N4    N     N_1   0.672369 0.269927 0.784400 -0.186119
H5    H     H_    0.527723 0.086692 0.974016 0.144061
C41   C     C_1   0.415310 0.888305 0.987863 0.133207
N5    N     N_1   0.384203 0.843699 0.084041 -0.195644
H6    H     H_    0.398396 0.802031 0.738667 0.159985
H7    H     H_    0.507367 0.889340 0.284970 0.182377
H8    H     H_    0.380431 0.330642 0.247634 0.208046
C42   C     C_1   0.272231 0.163456 0.143859 0.163098
N6    N     N_1   0.226005 0.094220 0.202600 -0.206182
H9    H     H_    0.286627 0.185980 0.875764 0.158286
H10   H     H_    0.380241 0.329559 0.753859 0.213099
C43   C     C_1   0.756735 0.274169 0.444094 0.181946
N7    N     N_1   0.712654 0.187173 0.418941 -0.191313
C44   C     C_1   0.611192 0.667559 0.859941 0.251580
N8    N     N_1   0.657909 0.739400 0.806011 -0.186822
C45   C     C_1   0.916809 0.144854 0.434729 0.186313
N9    N     N_1   0.886845 0.045199 0.418885 -0.188788
H11   H     H_    0.086042 0.188653 0.435552 0.160728
H12   H     H_    0.224312 0.303560 0.453946 0.132867
H13   H     H_    0.926232 0.808924 0.565417 0.172304

loop_
_geom_bond_atom_site_label_1
_geom_bond_atom_site_label_2
_ccdc_geom_bond_type
C39   N3    T    
C45   N9    T    
C35   C36   A    
C12   O4    A    
C7    C8    A    
C33   O8    A    
O4    Zn2   S    
C26   C27   A    
C29   C30   A    
C31   N1    A    
C18   C24   A    
C36   C37   A    
C28   H10   S    
C18   C19   A    
C5    C6    A    
C1    O2    A    
C23   O5    A    
C15   C16   A    
C34   C35   A    
C16   C41   S    
C13   H2    S    
C22   H7    S    
C10   H12   S    
N2    Zn1   S    
C19   C20   A    
C8    C9    A    
C4    H11   S    
C23   C24   S    
C6    C38   A    
O3    Zn1   S    
C2    C34   A    
O1    Zn1   S    
C34   C39   S    
C21   C22   A    
C12   O3    A    
O8    Zn2   S    
C32   C44   S    
C8    H3    S    
C16   C17   A    
C23   O6    A    
C25   C26   A    
C41   N5    T    
O7    Zn1   S    
C25   H8    S    
C37   C38   A    
C17   H6    S    
C2    C38   A    
N1    Zn2   S    
C31   C32   A    
O2    Zn2   S    
C17   C18   A    
C32   N2    A    
C9    H13   S    
C29   N2    A    
C22   C24   A    
C30   N1    A    
C3    C4    A    
C36   C43   S    
C25   C30   A    
C14   C40   S    
C28   C29   A    
C1    C20   S    
C26   C42   S    
C15   H5    S    
C14   C19   A    
C4    C5    A    
C11   C12   S    
C6    C7    A    
C33   O7    A    
C5    C10   A    
O6    Zn2   S    
C11   C13   A    
C1    O1    A    
C40   N4    T    
O5    Zn1   S    
C33   C35   S    
C31   H1    S    
C43   N7    T    
C3    C45   S    
C27   H9    S    
C10   C11   A    
C21   H4    S    
C7    C13   A    
C44   N8    T    
C20   C21   A    
C3    C37   A    
C42   N6    T    
C27   C28   A    
C14   C15   A    
C2    C9    A    
