data_mof_unit_66866.cif
_audit_creation_date              2013-03-05T15:57:21-0500
_audit_creation_method            fapswitch 2.2
_symmetry_space_group_name_H-M    P1
_symmetry_Int_Tables_number       1
_space_group_crystal_system       triclinic
_cell_length_a                    17.259408
_cell_length_b                    18.368538
_cell_length_c                    8.440268
_cell_angle_alpha                 90.286506
_cell_angle_beta                  101.394224
_cell_angle_gamma                 89.734344
_cell_volume                      2623.03051381

loop_
_atom_site_label
_atom_site_type_symbol
_atom_site_description
_atom_site_fract_x
_atom_site_fract_y
_atom_site_fract_z
_atom_type_partial_charge
P1    P     P_3+3 0.834140 0.419320 0.003900 0.452435
P2    P     P_3+3 0.834140 0.580680 0.503900 0.454303
P3    P     P_3+3 0.334140 0.919320 0.003900 0.452494
P4    P     P_3+3 0.334140 0.080680 0.503900 0.454277
O1    O     O_2   0.841960 0.394640 0.833410 -0.379240
O2    O     O_2   0.841960 0.605360 0.333410 -0.374153
O3    O     O_2   0.341960 0.894640 0.833410 -0.379341
O4    O     O_2   0.341960 0.105360 0.333410 -0.374132
O5    O     O_3   0.907950 0.463080 0.102990 -0.404231
O6    O     O_3   0.907950 0.536920 0.602990 -0.407098
O7    O     O_3   0.407950 0.963080 0.102990 -0.404195
O8    O     O_3   0.407950 0.036920 0.602990 -0.407178
O9    O     O_3   0.972780 0.329600 0.629720 -0.388571
O10   O     O_3   0.972780 0.670400 0.129720 -0.345902
O11   O     O_3   0.472780 0.829600 0.629720 -0.388638
O12   O     O_3   0.472780 0.170400 0.129720 -0.345780
O13   O     O_2   0.841373 0.268697 0.683940 -0.391991
O14   O     O_2   0.846449 0.733236 0.203356 -0.341579
O15   O     O_2   0.341392 0.768683 0.684005 -0.391916
O16   O     O_2   0.346480 0.233272 0.203404 -0.341772
O17   O     O_3   0.750394 0.475221 0.971801 -0.561118
O18   O     O_3   0.754414 0.520849 0.466481 -0.573598
O19   O     O_3   0.250407 0.975238 0.971814 -0.561027
O20   O     O_3   0.254412 0.020857 0.466478 -0.573578
O21   O     O_3   0.945357 0.177487 0.606846 -0.553285
O22   O     O_3   0.947855 0.819556 0.105086 -0.489136
O23   O     O_3   0.445387 0.677491 0.606881 -0.553283
O24   O     O_3   0.447922 0.319537 0.105111 -0.489038
H1    H     H_    0.056991 0.208322 0.724369 0.159542
H2    H     H_    0.001253 0.787327 0.912106 0.085828
H3    H     H_    0.556999 0.708366 0.724458 0.159604
H4    H     H_    0.500759 0.287120 0.911326 0.085325
C1    C     C_3   0.061206 0.109107 0.589598 -1.025207
C2    C     C_3   0.043863 0.890912 0.005257 -0.903803
C3    C     C_3   0.561275 0.609164 0.589687 -1.025190
C4    C     C_3   0.545104 0.389798 0.006517 -0.904420
H5    H     H_    0.626582 0.612409 0.607927 0.242290
H6    H     H_    0.594948 0.363993 0.090844 0.242189
H7    H     H_    0.126513 0.112331 0.607771 0.242293
H8    H     H_    0.094178 0.865997 0.090009 0.242196
H9    H     H_    0.044328 0.071079 0.678661 0.280695
H10   H     H_    0.023239 0.940755 0.059414 0.278705
H11   H     H_    0.544390 0.571126 0.678720 0.280835
H12   H     H_    0.525355 0.439771 0.061588 0.277952
P5    P     P_3+3 0.165830 0.418670 0.685610 0.448693
P6    P     P_3+3 0.165830 0.581330 0.185610 0.454519
P7    P     P_3+3 0.665830 0.918670 0.685610 0.448734
P8    P     P_3+3 0.665830 0.081330 0.185610 0.454452
P9    P     P_3+3 0.101069 0.263180 0.115072 0.408610
P10   P     P_3+3 0.103001 0.734819 0.616711 0.420849
P11   P     P_3+3 0.601059 0.763175 0.115091 0.408586
P12   P     P_3+3 0.602954 0.234847 0.616705 0.420981
O25   O     O_2   0.157990 0.394030 0.856030 -0.368684
O26   O     O_2   0.157990 0.605970 0.356030 -0.367386
O27   O     O_2   0.657990 0.894030 0.856030 -0.368798
O28   O     O_2   0.657990 0.105970 0.356030 -0.367519
O29   O     O_3   0.027110 0.329490 0.059550 -0.393174
O30   O     O_3   0.027110 0.670510 0.559550 -0.351734
O31   O     O_3   0.527110 0.829490 0.059550 -0.393164
O32   O     O_3   0.527110 0.170510 0.559550 -0.351606
O33   O     O_2   0.161740 0.273934 0.005328 -0.388365
O34   O     O_2   0.156421 0.736874 0.489220 -0.425683
O35   O     O_2   0.661759 0.773948 0.005420 -0.388382
O36   O     O_2   0.656287 0.237029 0.489063 -0.425852
O37   O     O_3   0.250405 0.472183 0.722945 -0.577618
O38   O     O_3   0.248340 0.524334 0.226400 -0.591902
O39   O     O_3   0.750419 0.972164 0.722954 -0.577428
O40   O     O_3   0.748317 0.024303 0.226308 -0.591899
O41   O     O_3   0.062291 0.176917 0.057865 -0.573643
O42   O     O_3   0.061503 0.821950 0.620394 -0.664049
O43   O     O_3   0.562282 0.676919 0.057815 -0.573650
O44   O     O_3   0.561311 0.321900 0.620723 -0.664050
C5    C     C_3   0.991844 0.165304 0.114734 1.160355
C6    C     C_3   0.027434 0.846631 0.465115 1.206458
C7    C     C_3   0.491863 0.665277 0.114774 1.160296
C8    C     C_3   0.527423 0.346817 0.465544 1.206024
H13   H     H_    0.991247 0.195426 0.229476 -0.124114
H14   H     H_    0.061968 0.828322 0.374242 0.069076
H15   H     H_    0.491302 0.695368 0.229570 -0.124264
H16   H     H_    0.561973 0.328564 0.374671 0.069323
C9    C     C_3   0.923523 0.190917 0.983450 -0.921608
C10   C     C_3   0.029936 0.930048 0.464032 -1.187177
C11   C     C_3   0.423502 0.690917 0.983602 -0.921696
C12   C     C_3   0.530152 0.430225 0.465075 -1.187490
H17   H     H_    0.425264 0.749829 0.962734 0.281011
H18   H     H_    0.479836 0.455958 0.507523 0.263560
H19   H     H_    0.925330 0.249812 0.962429 0.281135
H20   H     H_    0.979515 0.955774 0.506192 0.263233
H21   H     H_    0.928379 0.162324 0.871934 0.286669
H22   H     H_    0.029766 0.949052 0.339993 0.261342
H23   H     H_    0.428349 0.662403 0.871984 0.286769
H24   H     H_    0.530003 0.449413 0.341212 0.261079
C13   C     C_3   0.227006 0.452754 0.252832 0.337845
C14   C     C_3   0.231633 0.544185 0.753208 0.358684
C15   C     C_3   0.726922 0.952744 0.252729 0.337658
C16   C     C_3   0.731665 0.044179 0.753148 0.358729
H25   H     H_    0.226565 0.445880 0.382905 0.087255
H26   H     H_    0.230313 0.550172 0.883299 0.078540
H27   H     H_    0.726112 0.945966 0.382669 0.087428
H28   H     H_    0.730385 0.050202 0.883251 0.078495
H29   H     H_    0.169376 0.435678 0.179290 0.153545
H30   H     H_    0.175215 0.563666 0.678137 0.141173
H31   H     H_    0.669445 0.935629 0.178608 0.153859
H32   H     H_    0.675233 0.063654 0.678120 0.141075
C17   C     C_3   0.289162 0.403579 0.205982 -0.863779
C18   C     C_3   0.296689 0.590605 0.712559 -0.902228
C19   C     C_3   0.789280 0.903524 0.206812 -0.863522
C20   C     C_3   0.796707 0.090574 0.712351 -0.902272
H33   H     H_    0.347067 0.414869 0.284764 0.267728
H34   H     H_    0.354203 0.570005 0.780076 0.263995
H35   H     H_    0.847048 0.914929 0.286017 0.267331
H36   H     H_    0.854232 0.069975 0.779819 0.263999
H37   H     H_    0.272389 0.346249 0.217878 0.255456
H38   H     H_    0.287221 0.647946 0.744188 0.249972
H39   H     H_    0.772506 0.846208 0.218909 0.255274
H40   H     H_    0.787259 0.147925 0.743932 0.249996
H41   H     H_    0.294330 0.414455 0.079436 0.261667
H42   H     H_    0.297040 0.586160 0.581718 0.273734
H43   H     H_    0.794719 0.914219 0.080338 0.261700
H44   H     H_    0.797016 0.086091 0.581498 0.273707
Ba1   Ba    Ba6+2 0.000000 0.447380 0.844850 1.527659
Ba2   Ba    Ba6+2 1.000000 0.552620 0.344850 1.549888
Ba3   Ba    Ba6+2 0.500000 0.947380 0.844850 1.527716
Ba4   Ba    Ba6+2 0.500000 0.052620 0.344850 1.549919
C21   C     C_3   0.768056 0.543688 0.917479 0.359355
C22   C     C_3   0.779346 0.453815 0.415502 0.454998
C23   C     C_3   0.268080 0.043694 0.917440 0.359526
C24   C     C_3   0.279362 0.953789 0.415677 0.454800
H45   H     H_    0.768055 0.540147 0.786542 0.100491
H46   H     H_    0.799503 0.460879 0.300342 0.107041
H47   H     H_    0.268100 0.040126 0.786516 0.100441
H48   H     H_    0.299561 0.960796 0.300534 0.106935
H49   H     H_    0.825396 0.565174 0.984361 0.123417
H50   H     H_    0.826987 0.429246 0.507963 0.128331
H51   H     H_    0.325414 0.065184 0.984336 0.123347
H52   H     H_    0.326975 0.929242 0.508246 0.128482
C25   C     C_3   0.703768 0.596149 0.944947 -0.848069
C26   C     C_3   0.709239 0.403093 0.389197 -1.019078
C27   C     C_3   0.203786 0.096171 0.944813 -0.848067
C28   C     C_3   0.209246 0.903081 0.389385 -1.018910
H53   H     H_    0.644824 0.570963 0.906057 0.273731
H54   H     H_    0.658343 0.430873 0.312881 0.274162
H55   H     H_    0.144843 0.070981 0.905933 0.273740
H56   H     H_    0.158369 0.930910 0.313068 0.273999
H57   H     H_    0.706057 0.647093 0.876603 0.226159
H58   H     H_    0.720694 0.352691 0.326763 0.238761
H59   H     H_    0.206082 0.147095 0.876400 0.226061
H60   H     H_    0.220674 0.852651 0.326922 0.238809
H61   H     H_    0.711821 0.609116 0.075245 0.269445
H62   H     H_    0.695691 0.388207 0.507885 0.272474
H63   H     H_    0.211827 0.109177 0.075092 0.269484
H64   H     H_    0.195681 0.888222 0.508119 0.272558
O45   O     O_3   0.092100 0.536880 0.086720 -0.400320
O46   O     O_3   0.092100 0.463120 0.586720 -0.403243
O47   O     O_3   0.592100 0.036880 0.086720 -0.400408
O48   O     O_3   0.592100 0.963120 0.586720 -0.403302
P13   P     P_3+3 0.898854 0.735883 0.074637 0.499006
P14   P     P_3+3 0.900783 0.263048 0.569395 0.418835
P15   P     P_3+3 0.398870 0.235894 0.074655 0.499106
P16   P     P_3+3 0.400789 0.763042 0.569429 0.418884
C29   C     C_3   0.026572 0.184070 0.607809 0.440037
C30   C     C_3   0.977159 0.836116 0.965282 0.337864
C31   C     C_3   0.526603 0.684108 0.607888 0.440035
C32   C     C_3   0.477473 0.336032 0.965542 0.339023
H65   H     H_    0.037856 0.217872 0.506171 0.057155
H66   H     H_    0.928968 0.861111 0.875585 0.068381
H67   H     H_    0.537882 0.717917 0.506258 0.057210
H68   H     H_    0.429683 0.361849 0.876335 0.069029
H69   H     H_    0.538866 0.587855 0.466509 0.293220
H70   H     H_    0.565821 0.405258 0.894884 0.257516
H71   H     H_    0.038762 0.087789 0.466442 0.293308
H72   H     H_    0.064281 0.906385 0.893298 0.257110
H73   H     H_    0.365598 0.679261 0.013103 0.181022
H74   H     H_    0.584876 0.450105 0.545031 0.282026
H75   H     H_    0.865600 0.179322 0.012924 0.181057
H76   H     H_    0.084598 0.950137 0.543929 0.282024
C33   C     C_R   0.143788 0.672652 0.921271 -0.525679
C34   C     C_R   0.138227 0.323180 0.424867 -0.520965
C35   C     C_R   0.643811 0.172635 0.921215 -0.525326
C36   C     C_R   0.638199 0.823164 0.424888 -0.520937
C37   C     C_R   0.864040 0.322258 0.260298 -0.518051
C38   C     C_R   0.855407 0.672148 0.769483 -0.524398
C39   C     C_R   0.364031 0.822264 0.260338 -0.517982
C40   C     C_R   0.355443 0.172173 0.769469 -0.524179
C41   C     C_R   0.790175 0.214460 0.299862 -0.210175
C42   C     C_R   0.784017 0.782134 0.805946 -0.211300
C43   C     C_R   0.290188 0.714449 0.299885 -0.210172
C44   C     C_R   0.284084 0.282182 0.805896 -0.211492
C45   C     C_R   0.847986 0.266375 0.358731 0.250730
C46   C     C_R   0.839882 0.728753 0.867697 0.157561
C47   C     C_R   0.347989 0.766370 0.358763 0.250717
C48   C     C_R   0.339931 0.228791 0.867673 0.157584
C49   C     C_R   0.817807 0.332369 0.106629 0.287040
C50   C     C_R   0.811627 0.663670 0.613098 0.294234
C51   C     C_R   0.317793 0.832380 0.106672 0.286737
C52   C     C_R   0.311659 0.163690 0.613081 0.294166
C53   C     C_R   0.757845 0.279757 0.044351 -0.085340
C54   C     C_R   0.750516 0.715127 0.551332 -0.091484
C55   C     C_R   0.257825 0.779773 0.044408 -0.085310
C56   C     C_R   0.250566 0.215159 0.551297 -0.091345
C57   C     C_R   0.244180 0.719444 0.142764 -0.081652
C58   C     C_R   0.237683 0.276524 0.648547 -0.081770
C59   C     C_R   0.744187 0.219438 0.142721 -0.081841
C60   C     C_R   0.737631 0.776491 0.648586 -0.081815
C61   C     C_R   0.185199 0.666247 0.079723 0.302501
C62   C     C_R   0.180888 0.331150 0.582523 0.290559
C63   C     C_R   0.685210 0.166238 0.079683 0.302444
C64   C     C_R   0.680859 0.831133 0.582545 0.290668
C65   C     C_R   0.160496 0.727910 0.822609 0.257261
C66   C     C_R   0.152049 0.264979 0.328600 0.191733
C67   C     C_R   0.660519 0.227891 0.822542 0.257526
C68   C     C_R   0.652011 0.764957 0.328631 0.191761
C69   C     C_R   0.213633 0.783247 0.885318 -0.158421
C70   C     C_R   0.205724 0.210133 0.392498 -0.186287
C71   C     C_R   0.713661 0.283225 0.885250 -0.158954
C72   C     C_R   0.705680 0.710106 0.392530 -0.186368
H77   H     H_    0.282064 0.670587 0.378684 0.187655
H78   H     H_    0.279044 0.328268 0.881729 0.187283
H79   H     H_    0.782033 0.170613 0.378684 0.187628
H80   H     H_    0.778976 0.828218 0.881800 0.187358
H81   H     H_    0.719936 0.328198 0.807252 0.189265
H82   H     H_    0.712706 0.664643 0.315916 0.180220
H83   H     H_    0.219917 0.828216 0.807314 0.189289
H84   H     H_    0.212742 0.164666 0.315886 0.180238
H85   H     H_    0.099647 0.632656 0.871576 0.168556
H86   H     H_    0.096134 0.364644 0.373141 0.173072
H87   H     H_    0.599663 0.132643 0.871533 0.168507
H88   H     H_    0.596120 0.864637 0.373148 0.173054
H89   H     H_    0.909483 0.361257 0.308839 0.168553
H90   H     H_    0.901426 0.633386 0.817207 0.172476
H91   H     H_    0.409473 0.861264 0.308878 0.168555
H92   H     H_    0.401446 0.133400 0.817208 0.172431
O49   O     O_3   0.986472 0.089351 0.140961 -0.638249
C73   C     C_3   0.917801 0.071776 0.200412 -0.311948
H93   H     H_    0.866144 0.066892 0.099401 0.190992
H94   H     H_    0.905894 0.110605 0.294099 0.160026
H95   H     H_    0.925224 0.017662 0.256382 0.207338
O50   O     O_3   0.949362 0.821091 0.414817 -0.576383
C74   C     C_3   0.905856 0.824130 0.539273 -0.099260
H96   H     H_    0.910155 0.877132 0.603259 0.094162
H97   H     H_    0.923924 0.779203 0.625569 0.140541
H98   H     H_    0.843213 0.817282 0.483209 0.153188
O51   O     O_3   0.486506 0.589315 0.140928 -0.638062
C75   C     C_3   0.417869 0.571717 0.200485 -0.310998
H99   H     H_    0.366194 0.566805 0.099528 0.190919
H100  H     H_    0.405960 0.610549 0.294158 0.159759
H101  H     H_    0.425335 0.517617 0.256496 0.207206
O52   O     O_3   0.449295 0.321481 0.414827 -0.576828
C76   C     C_3   0.405680 0.324412 0.539116 -0.099105
H102  H     H_    0.409974 0.377350 0.603359 0.094172
H103  H     H_    0.423646 0.279398 0.625225 0.140664
H104  H     H_    0.343049 0.317627 0.482832 0.153146

loop_
_geom_bond_atom_site_label_1
_geom_bond_atom_site_label_2
_geom_bond_distance
_ccdc_geom_bond_type
P6    C61   1.865549 S    
C67   C71   1.402109 A    
P1    O17   1.746775 S    
P5    C62   1.865612 S    
O10   Ba2   2.809092 S    
C35   C67   1.383108 A    
C20   H44   1.108155 S    
P3    O19   1.746794 S    
C74   H96   1.106614 S    
C2    H10   1.109473 S    
P8    O28   1.536863 D    
O44   C8    1.402800 S    
O6    Ba1   2.850304 S    
C54   C72   1.411888 A    
C28   H60   1.099733 S    
C54   C60   1.433288 A    
C2    H72   1.110449 S    
Ba3   Ba4   4.650592 S    
C70   H84   1.074665 S    
C8    O52   1.412045 S    
C26   H62   1.108541 S    
C34   C66   1.387627 A    
C76   H102  1.106603 S    
C1    H7    1.108950 S    
C7    H15   1.114762 S    
O11   Ba3   2.798441 S    
P7    C64   1.865668 S    
C18   H38   1.104613 S    
P1    O1    1.537545 D    
O15   P16   1.544857 D    
O28   Ba4   2.885641 S    
C25   H57   1.106674 S    
C3    H5    1.108932 S    
C12   H18   1.106066 S    
P6    O38   1.743175 S    
P3    O3    1.537545 D    
C24   H52   1.111504 S    
C43   H77   1.074420 S    
P4    O20   1.743451 S    
C49   C53   1.438933 A    
O18   C22   1.396207 S    
P7    O48   1.600052 S    
C14   H26   1.107649 S    
C21   H49   1.111065 S    
O51   C75   1.414557 S    
O1    Ba1   2.882281 S    
P9    O29   1.757129 S    
C75   H99   1.108770 S    
P4    Ba4   3.429328 S    
O22   P13   1.750934 S    
O32   Ba4   2.797697 S    
C33   C65   1.383061 A    
C36   C68   1.387624 A    
P13   C46   1.844002 S    
C25   H53   1.107984 S    
P12   O32   1.761236 S    
O23   C31   1.405897 S    
C30   H66   1.107643 S    
P5    O37   1.739179 S    
C37   C45   1.386653 A    
P11   C68   1.842893 S    
C38   H90   1.082242 S    
C14   C18   1.506494 S    
O20   C24   1.396328 S    
C60   C64   1.434885 A    
P10   C65   1.827714 S    
O21   C29   1.405902 S    
O16   P15   1.545958 D    
C65   C69   1.402103 A    
P9    C66   1.842940 S    
P2    O18   1.743503 S    
P12   C67   1.827778 S    
C39   C51   1.394863 A    
C40   C48   1.384462 A    
O41   C5    1.410060 S    
C38   C50   1.393701 A    
P4    O8    1.595212 S    
C3    H11   1.109719 S    
O49   C73   1.414537 S    
C28   H64   1.108891 S    
C5    O49   1.420006 S    
C53   C71   1.408777 A    
P4    O4    1.542151 D    
C9    H21   1.092982 S    
C33   H85   1.082553 S    
C28   H56   1.105877 S    
C16   C20   1.506507 S    
P7    O27   1.541462 D    
P5    O25   1.541462 D    
P9    O41   1.751082 S    
C18   H42   1.108145 S    
O12   P15   1.745749 S    
C35   H87   1.082553 S    
Ba2   O46   2.850286 S    
C17   H41   1.108424 S    
P2    O2    1.542151 D    
C73   H94   1.110595 S    
C6    C10   1.533197 S    
C12   H74   1.108936 S    
C24   H48   1.103683 S    
C22   H50   1.111456 S    
C19   H43   1.108498 S    
C15   H31   1.109061 S    
C51   C55   1.438917 A    
Ba3   O48   2.955672 S    
P2    Ba2   3.429328 S    
O31   Ba3   2.808346 S    
H3    C31   1.111592 S    
C8    C12   1.533081 S    
O30   Ba2   2.797697 S    
O40   C15   1.397793 S    
P9    O33   1.542892 D    
Ba1   O46   2.955672 S    
O10   P13   1.745830 S    
C42   C60   1.412429 A    
P10   O30   1.761477 S    
C68   C72   1.401212 A    
C32   H68   1.107555 S    
P1    O5    1.596949 S    
Ba1   O45   2.847010 S    
C40   H92   1.082238 S    
C74   H97   1.105747 S    
C26   H54   1.105665 S    
P14   C45   1.831936 S    
C37   H89   1.082353 S    
C52   C56   1.433867 A    
C22   H46   1.103599 S    
O4    Ba4   2.874092 S    
Ba3   O47   2.847010 S    
P5    Ba1   3.431493 S    
O23   P16   1.749128 S    
C40   C52   1.393743 A    
C42   H80   1.072339 S    
O22   C30   1.407657 S    
O24   P15   1.750855 S    
P3    C51   1.870032 S    
C20   H36   1.108366 S    
C44   C58   1.412466 A    
C73   H95   1.098732 S    
C3    C31   1.517673 S    
C6    O50   1.412039 S    
C1    C29   1.517739 S    
O42   C6    1.402829 S    
P12   O44   1.753031 S    
H1    C29   1.111595 S    
C27   H63   1.105810 S    
O9    Ba1   2.798441 S    
C19   H35   1.105463 S    
C39   H91   1.082352 S    
P7    Ba3   3.431493 S    
C33   C61   1.391537 A    
C35   C63   1.391568 A    
C31   H67   1.109855 S    
C27   H59   1.106681 S    
P6    O26   1.536863 D    
O5    Ba2   2.847023 S    
P11   O35   1.542873 D    
C27   H55   1.107987 S    
P7    O39   1.739178 S    
P8    O40   1.743164 S    
C12   H24   1.104436 S    
O13   P14   1.544848 D    
C19   H39   1.103748 S    
Ba1   Ba2   4.650592 S    
C9    H19   1.098740 S    
C15   C19   1.509373 S    
C5    C9    1.524282 S    
O38   C13   1.397847 S    
O37   C14   1.394539 S    
C25   H61   1.105796 S    
P8    O47   1.601813 S    
C10   H76   1.109203 S    
C34   C62   1.395044 A    
C76   H103  1.105726 S    
Ba4   O48   2.850286 S    
C7    O51   1.420033 S    
P12   O36   1.549904 D    
O39   C16   1.394549 S    
P10   O34   1.549876 D    
Ba2   O45   2.952098 S    
C2    H8    1.108787 S    
C4    H12   1.109165 S    
P11   O31   1.757109 S    
C73   H93   1.108807 S    
O2    Ba2   2.874092 S    
C13   H29   1.109059 S    
C4    H6    1.108599 S    
C1    H71   1.105491 S    
O27   Ba3   2.877364 S    
C13   H25   1.107240 S    
O9    P14   1.748040 S    
C37   C49   1.394837 A    
O52   C76   1.407522 S    
O24   C32   1.407843 S    
C55   C57   1.435788 A    
C18   H34   1.108365 S    
C17   H37   1.103720 S    
P4    C52   1.856457 S    
C16   H32   1.110385 S    
C17   H33   1.105422 S    
O50   C74   1.407501 S    
C22   C26   1.511176 S    
C76   H104  1.098851 S    
C5    H13   1.114752 S    
C41   H79   1.074410 S    
P1    Ba1   3.435330 S    
C11   H17   1.098750 S    
C58   C62   1.434880 A    
C55   C69   1.408754 A    
C43   C47   1.399992 A    
C56   C70   1.411915 A    
C36   H88   1.082306 S    
C8    H16   1.110204 S    
P16   C47   1.831966 S    
C23   H51   1.111065 S    
C2    C30   1.518637 S    
C39   C47   1.386690 A    
P8    Ba4   3.437632 S    
P11   O43   1.751083 S    
C41   C45   1.399992 A    
P5    O46   1.600052 S    
C44   H78   1.072268 S    
H2    C30   1.115258 S    
C11   H23   1.093004 S    
C43   C57   1.407862 A    
O19   C23   1.396211 S    
C4    H70   1.110403 S    
C10   H22   1.104683 S    
C75   H101  1.098667 S    
C44   C48   1.400188 A    
C21   C25   1.517568 S    
C20   H40   1.104620 S    
C23   H47   1.106718 S    
C11   H73   1.098839 S    
O12   Ba4   2.809092 S    
C1    H9    1.109743 S    
O11   P16   1.748013 S    
C13   C17   1.509349 S    
O14   P13   1.545942 D    
C66   C70   1.401212 A    
C41   C59   1.407856 A    
O43   C7    1.410084 S    
C69   H83   1.077968 S    
C7    C11   1.524333 S    
C50   C54   1.433885 A    
O8    Ba3   2.850304 S    
C59   C63   1.436740 A    
C26   H58   1.099307 S    
C10   H20   1.106388 S    
P15   C48   1.844058 S    
H4    C32   1.115050 S    
P8    C63   1.865634 S    
P3    Ba3   3.435330 S    
C3    H69   1.105493 S    
C75   H100  1.110551 S    
C53   C59   1.435787 A    
C74   H98   1.098734 S    
C15   H27   1.107218 S    
P6    O45   1.601813 S    
C16   H28   1.107662 S    
C72   H82   1.074656 S    
P10   O42   1.753037 S    
C34   H86   1.082300 S    
P3    O7    1.596949 S    
O29   Ba1   2.808346 S    
C21   H45   1.106724 S    
O26   Ba2   2.885641 S    
C14   H30   1.110382 S    
C56   C58   1.433277 A    
C6    H14   1.110323 S    
Ba4   O47   2.952098 S    
O21   P14   1.749140 S    
C4    C32   1.518300 S    
C57   C61   1.436740 A    
P1    C49   1.869963 S    
P6    Ba2   3.437632 S    
O25   Ba1   2.877364 S    
C42   C46   1.400214 A    
C38   C46   1.384403 A    
O7    Ba4   2.847023 S    
P2    C50   1.856399 S    
C36   C64   1.395041 A    
O17   C21   1.396196 S    
C23   C27   1.517590 S    
C9    H75   1.098834 S    
C29   H65   1.109873 S    
C71   H81   1.077968 S    
O3    Ba3   2.882281 S    
C24   C28   1.511146 S    
P2    O6    1.595212 S    
