data_mof_unit_8993.cif
_audit_creation_date              2012-12-11T14:19:17-0500
_audit_creation_method            fapswitch 2.2
_symmetry_space_group_name_H-M    P1
_symmetry_Int_Tables_number       1
_space_group_crystal_system       triclinic
_cell_length_a                    19.527997
_cell_length_b                    7.257019
_cell_length_c                    17.524744
_cell_angle_alpha                 90.000698
_cell_angle_beta                  107.640254
_cell_angle_gamma                 89.999935
_cell_volume                      2366.73981204

loop_
_atom_site_label
_atom_site_type_symbol
_atom_type_description
_atom_site_fract_x
_atom_site_fract_y
_atom_site_fract_z
_atom_type_partial_charge
O1    O     O_R   0.414820 0.494320 0.416790 -0.540221
O2    O     O_R   0.585180 0.994320 0.583210 -0.540220
O3    O     O_R   0.560270 0.819500 0.430140 -0.544267
O4    O     O_R   0.439730 0.319500 0.569860 -0.544277
C1    C     C_R   0.581001 0.655549 0.414710 0.700360
C2    C     C_R   0.418999 0.155551 0.585290 0.700343
O5    O     O_R   0.413840 0.823740 0.407440 -0.538314
O6    O     O_R   0.586160 0.323740 0.592560 -0.538316
O7    O     O_R   0.437710 0.998590 0.560350 -0.534561
O8    O     O_R   0.562290 0.498590 0.439650 -0.534561
C3    C     C_R   0.387643 0.654984 0.385227 0.735599
C4    C     C_R   0.612357 0.154985 0.614772 0.735598
O9    O     O_3   0.508000 0.662290 0.550200 -0.378613
O10   O     O_3   0.492000 0.162290 0.449800 -0.378608
V1    V     V_3+5 0.498520 0.935380 0.490690 1.399987
V2    V     V_3+5 0.501480 0.435380 0.509310 1.399968
C5    C     C_2   0.784754 0.271285 0.789379 -0.143406
C6    C     C_2   0.215249 0.771285 0.210619 -0.143415
C7    C     C_2   0.820143 0.113325 0.817369 -0.309217
C8    C     C_2   0.179858 0.613326 0.182630 -0.309220
H1    H     H_    0.806475 0.401117 0.817125 0.141661
H2    H     H_    0.193529 0.901117 0.182873 0.141666
C9    C     C_2   0.716900 0.284294 0.721252 -0.150957
C10   C     C_2   0.283104 0.784291 0.278745 -0.150960
C11   C     C_2   0.679254 0.138535 0.682701 -0.308187
C12   C     C_2   0.320745 0.638532 0.317298 -0.308242
H3    H     H_    0.697317 0.422336 0.702821 0.140047
H4    H     H_    0.302691 0.922331 0.297173 0.140061
C13   C     C_R   0.314451 0.277762 0.622669 -0.234713
C14   C     C_R   0.685567 0.777703 0.377355 -0.234752
C15   C     C_R   0.369540 0.148064 0.634509 -0.084408
C16   C     C_R   0.630458 0.648057 0.365490 -0.084432
C17   C     C_R   0.378109 0.014007 0.693922 -0.199771
C18   C     C_R   0.621873 0.514043 0.306055 -0.199810
C19   C     C_R   0.331527 0.005802 0.741799 0.053633
C20   C     C_R   0.668458 0.505829 0.258181 0.053538
C21   C     C_R   0.274539 0.134876 0.727794 0.015607
C22   C     C_R   0.725455 0.634878 0.272198 0.015577
C23   C     C_R   0.265507 0.271645 0.667412 0.049834
C24   C     C_R   0.734501 0.771602 0.332599 0.049802
C25   C     C_R   0.341344 0.873526 0.803915 -0.061689
C26   C     C_R   0.658641 0.373558 0.196062 -0.061712
C27   C     C_R   0.292295 0.864310 0.849288 -0.061895
C28   C     C_R   0.707693 0.364335 0.150694 -0.061890
C29   C     C_R   0.234126 0.990416 0.833389 0.026748
C30   C     C_R   0.765865 0.490436 0.166599 0.026779
C31   C     C_R   0.226684 0.128179 0.774227 0.018941
C32   C     C_R   0.773310 0.628188 0.225766 0.019005
C33   C     C_R   0.171215 0.260687 0.761765 0.090654
C34   C     C_R   0.828784 0.760690 0.238238 0.090655
C35   C     C_R   0.162875 0.394992 0.702443 -0.235846
C36   C     C_R   0.837131 0.894970 0.297575 -0.235782
C37   C     C_R   0.208339 0.400400 0.654120 -0.019212
C38   C     C_R   0.791677 0.900323 0.345908 -0.019177
C39   C     C_R   0.183105 0.983250 0.875746 -0.211218
C40   C     C_R   0.816888 0.483270 0.124243 -0.211209
C41   C     C_R   0.129950 0.118613 0.865592 -0.077230
C42   C     C_R   0.870047 0.618622 0.134406 -0.077227
C43   C     C_R   0.124656 0.258089 0.809003 -0.191357
C44   C     C_R   0.875343 0.758093 0.190999 -0.191358
H5    H     H_    0.310555 0.383724 0.578186 0.136943
H6    H     H_    0.689492 0.883609 0.421873 0.136984
H7    H     H_    0.083004 0.361797 0.800310 0.121120
H8    H     H_    0.916999 0.861793 0.199699 0.121123
O11   O     O_R   0.937810 0.773680 0.060480 -0.533815
O12   O     O_R   0.062190 0.273680 0.939520 -0.533817
O13   O     O_R   0.086190 0.439740 0.092580 -0.542300
O14   O     O_R   0.913810 0.939740 0.907420 -0.542302
C45   C     C_R   0.112554 0.608224 0.114620 0.737132
C46   C     C_R   0.887446 0.108223 0.885379 0.737121
O15   O     O_R   0.939760 0.444210 0.069890 -0.541864
O16   O     O_R   0.060240 0.944210 0.930110 -0.541869
O17   O     O_R   0.914790 0.269640 0.916760 -0.536736
O18   O     O_R   0.085210 0.769640 0.083240 -0.536736
C47   C     C_R   0.919635 0.612334 0.085298 0.692978
C48   C     C_R   0.080365 0.112332 0.914702 0.692973
O19   O     O_3   0.992050 0.601530 0.949880 -0.379060
O20   O     O_3   0.007950 0.101530 0.050120 -0.379055
V3    V     V_3+5 0.001480 0.328340 0.009300 1.400248
V4    V     V_3+5 0.998520 0.828340 0.990700 1.400239
H9    H     H_    0.119677 0.494735 0.692600 0.133747
H10   H     H_    0.880329 0.994717 0.307428 0.133762
C49   C     C_R   0.193593 0.541144 0.589677 0.097890
C50   C     C_R   0.192876 0.729104 0.608560 -0.129649
C51   C     C_R   0.178627 0.861927 0.547947 -0.105462
C52   C     C_R   0.164817 0.808252 0.468128 -0.096332
C53   C     C_R   0.164235 0.621409 0.448630 -0.113470
C54   C     C_R   0.177834 0.488045 0.508996 -0.144318
H11   H     H_    0.203407 0.772299 0.670147 0.120506
H12   H     H_    0.177993 0.006433 0.562724 0.120790
H13   H     H_    0.154078 0.911359 0.421348 0.103281
H14   H     H_    0.153019 0.579899 0.386713 0.114785
H15   H     H_    0.176560 0.343605 0.493014 0.103245
C55   C     C_R   0.806434 0.040958 0.410392 0.097845
C56   C     C_R   0.806974 0.228984 0.391543 -0.129658
C57   C     C_R   0.821152 0.361706 0.452196 -0.105501
C58   C     C_R   0.835103 0.307858 0.532019 -0.096347
C59   C     C_R   0.835895 0.120948 0.551480 -0.113461
C60   C     C_R   0.822327 0.987690 0.491070 -0.144250
H16   H     H_    0.796341 0.272308 0.329951 0.120524
H17   H     H_    0.821618 0.506275 0.437447 0.120776
H18   H     H_    0.845792 0.410888 0.578829 0.103306
H19   H     H_    0.847231 0.079311 0.613396 0.114731
H20   H     H_    0.823720 0.843207 0.507012 0.103227
H21   H     H_    0.800048 0.982034 0.790484 0.127021
H22   H     H_    0.199951 0.482036 0.209513 0.127022
H23   H     H_    0.697372 0.999656 0.700599 0.130808
H24   H     H_    0.302625 0.499656 0.299404 0.130812
H25   H     H_    0.422704 0.919553 0.703281 0.132541
H26   H     H_    0.577267 0.419619 0.296681 0.132551
C61   C     C_R   0.404109 0.747157 0.823785 0.089200
C62   C     C_R   0.459442 0.766598 0.896406 -0.092460
C63   C     C_R   0.516952 0.642791 0.916384 -0.126189
C64   C     C_R   0.519701 0.500203 0.863809 -0.123426
C65   C     C_R   0.465082 0.480731 0.791369 -0.094347
C66   C     C_R   0.407231 0.603312 0.771447 -0.148578
H27   H     H_    0.457610 0.876375 0.937593 0.113296
H28   H     H_    0.559237 0.657049 0.972617 0.110971
H29   H     H_    0.564082 0.404752 0.878923 0.111659
H30   H     H_    0.467750 0.370653 0.750819 0.117939
H31   H     H_    0.364948 0.587594 0.715360 0.126456
C67   C     C_R   0.595882 0.247170 0.176198 0.089212
C68   C     C_R   0.540546 0.266580 0.103578 -0.092462
C69   C     C_R   0.483044 0.142746 0.083606 -0.126189
C70   C     C_R   0.480307 0.000161 0.136186 -0.123425
C71   C     C_R   0.534928 0.980720 0.208625 -0.094340
C72   C     C_R   0.592771 0.103329 0.228541 -0.148578
H32   H     H_    0.542371 0.376349 0.062387 0.113305
H33   H     H_    0.440757 0.156979 0.027373 0.110958
H34   H     H_    0.435932 0.904687 0.121076 0.111663
H35   H     H_    0.532271 0.870643 0.249179 0.117952
H36   H     H_    0.635058 0.087627 0.284627 0.126453
C73   C     C_R   0.302991 0.723600 0.914047 0.108670
C74   C     C_R   0.316479 0.778132 0.994254 -0.169118
C75   C     C_R   0.325667 0.645868 0.054621 -0.120792
C76   C     C_R   0.323340 0.458534 0.035766 -0.098641
C77   C     C_R   0.311312 0.403152 0.956475 -0.119906
C78   C     C_R   0.300754 0.534816 0.895776 -0.087376
H37   H     H_    0.318991 0.923007 0.009709 0.099761
H38   H     H_    0.334884 0.688537 0.116104 0.119588
H39   H     H_    0.331113 0.356298 0.082606 0.105448
H40   H     H_    0.310335 0.258157 0.942178 0.113805
H41   H     H_    0.291476 0.490183 0.834640 0.122487
C79   C     C_R   0.697000 0.223621 0.085936 0.108676
C80   C     C_R   0.683511 0.278150 0.005730 -0.169123
C81   C     C_R   0.674324 0.145883 0.945362 -0.120782
C82   C     C_R   0.676655 0.958550 0.964217 -0.098642
C83   C     C_R   0.688686 0.903172 0.043509 -0.119916
C84   C     C_R   0.699243 0.034837 0.104208 -0.087373
H42   H     H_    0.680997 0.423025 0.990276 0.099756
H43   H     H_    0.665102 0.188550 0.883879 0.119584
H44   H     H_    0.668882 0.856312 0.917378 0.105448
H45   H     H_    0.689666 0.758178 0.057807 0.113804
H46   H     H_    0.708525 0.990207 0.165344 0.122473
H47   H     H_    0.184896 0.874660 0.918514 0.143630
H48   H     H_    0.815094 0.374688 0.081470 0.143624

loop_
_geom_bond_atom_site_label_1
_geom_bond_atom_site_label_2
_ccdc_geom_bond_type
O14   V4    S    
C14   C16   A    
C53   C54   A    
C71   C72   A    
C20   C26   A    
C56   C57   A    
O1    C3    A    
O16   C48   A    
O2    C4    A    
C2    O7    A    
O15   V3    S    
C64   C65   A    
C68   C69   A    
C31   C33   A    
C23   C37   A    
C51   C52   A    
C32   C34   A    
C39   H47   S    
O12   V3    S    
C11   H23   S    
C76   H39   S    
C6    C10   S    
C55   C60   A    
C41   C48   S    
C19   C21   A    
C10   C12   D    
C63   C64   A    
C78   H41   S    
C80   C81   A    
C62   H27   S    
C41   C43   A    
C42   C44   A    
C65   C66   A    
C67   C72   A    
C27   C73   S    
C72   H36   S    
C82   C83   A    
C17   C19   A    
C80   H42   S    
C44   H8    S    
C70   H34   S    
C61   C62   A    
C36   C38   A    
C33   C35   A    
C34   C36   A    
C15   C17   A    
C61   C66   A    
C9    H3    S    
C21   C31   A    
C35   H9    S    
C22   C32   A    
C58   H18   S    
C28   C79   S    
C1    C16   S    
O5    V1    S    
C49   C54   A    
C73   C78   A    
O6    V2    S    
O11   V4    S    
O18   V4    S    
C57   H17   S    
C13   C15   A    
C25   C27   A    
C26   C28   A    
C62   C63   A    
C28   C30   A    
C42   C47   S    
C58   C59   A    
C8    H22   S    
C29   C31   A    
C75   H38   S    
C21   C23   A    
C13   H5    S    
O15   C47   A    
C77   H40   S    
C66   H31   S    
C75   C76   A    
O13   V3    S    
C83   C84   A    
C56   H16   S    
O4    C2    A    
C12   H24   S    
C74   H37   S    
C52   C53   A    
C76   C77   A    
C3    C12   S    
C5    H1    S    
C63   H28   S    
O13   C45   A    
C16   C18   A    
O4    V2    S    
O5    C3    A    
C84   H46   S    
C79   C84   A    
C49   C50   A    
O6    C4    A    
O12   C48   A    
C57   C58   A    
C13   C23   A    
C46   O17   A    
O17   V3    S    
C14   C24   A    
C45   O18   A    
O1    V2    S    
C5    C9    S    
C50   C51   A    
C36   H10   S    
O2    V1    S    
C27   C29   A    
C7    H21   S    
C65   H30   S    
C24   C38   A    
C14   H6    S    
C25   C61   S    
C70   C71   A    
C18   H26   S    
C8    C45   S    
C17   H25   S    
C50   H11   S    
O3    V1    S    
C26   C67   S    
C81   C82   A    
O19   V4    S    
C54   H15   S    
C60   H20   S    
C6    H2    S    
C10   H4    S    
C79   C80   A    
O3    C1    A    
C33   C43   A    
C51   H12   S    
C74   C75   A    
C77   C78   A    
C43   H7    S    
O11   C47   A    
C37   C49   S    
C4    C11   S    
C52   H13   S    
C34   C44   A    
C39   C41   A    
C82   H44   S    
O7    V1    S    
C1    O8    A    
O16   V4    S    
O8    V2    S    
C22   C24   A    
O20   V3    S    
C68   H32   S    
C73   C74   A    
C64   H29   S    
C71   H35   S    
C20   C22   A    
C5    C7    D    
C18   C20   A    
C40   C42   A    
C69   H33   S    
C2    C15   S    
C6    C8    D    
C40   H48   S    
C9    C11   D    
C55   C56   A    
C19   C25   A    
C38   C55   S    
C81   H43   S    
C30   C32   A    
C29   C39   A    
O14   C46   A    
C59   C60   A    
C83   H45   S    
O9    V2    S    
C30   C40   A    
O10   V1    S    
C7    C46   S    
C35   C37   A    
C67   C68   A    
C53   H14   S    
C59   H19   S    
C69   C70   A    
