data_mof_unit_36353.cif
_audit_creation_date              2012-12-10T17:32:19-0500
_audit_creation_method            fapswitch 2.2
_symmetry_space_group_name_H-M    P1
_symmetry_Int_Tables_number       1
_space_group_crystal_system       triclinic
_cell_length_a                    12.38725
_cell_length_b                    13.121339
_cell_length_c                    15.096272
_cell_angle_alpha                 78.058026
_cell_angle_beta                  101.125184
_cell_angle_gamma                 116.45555
_cell_volume                      2134.94242073

loop_
_atom_site_label
_atom_site_type_symbol
_atom_type_description
_atom_site_fract_x
_atom_site_fract_y
_atom_site_fract_z
_atom_type_partial_charge
C1    C     C_R   0.855582 0.286458 0.502247 0.733137
C2    C     C_R   0.055738 0.596809 0.085096 0.068941
C3    C     C_R   0.880304 0.287942 0.054623 -0.204202
C4    C     C_R   0.878887 0.293383 0.961961 -0.225289
C5    C     C_R   0.937419 0.398464 0.909632 0.141063
C6    C     C_R   0.996911 0.500536 0.950227 0.017966
C7    C     C_R   0.058697 0.606823 0.896848 0.097441
C8    C     C_R   0.118817 0.708142 0.938234 0.157471
C9    C     C_R   0.116583 0.702085 0.032038 -0.263516
C10   C     C_R   0.938709 0.402170 0.817284 -0.249313
C11   C     C_R   0.000911 0.505909 0.765064 -0.049735
C12   C     C_R   0.002820 0.505544 0.669773 0.785333
C13   C     C_R   0.060229 0.608220 0.803597 -0.229668
C14   C     C_R   0.268472 0.032481 0.406940 -0.200640
C15   C     C_R   0.229361 0.836738 0.472867 -0.061035
C16   C     C_R   0.818870 0.075413 0.511646 0.028055
C17   C     C_R   0.734828 0.960858 0.509025 -0.186284
C18   C     C_R   0.612072 0.929950 0.493746 -0.212767
C19   C     C_R   0.565750 0.013070 0.470610 0.041327
C20   C     C_R   0.648215 0.130896 0.452569 0.040318
C21   C     C_R   0.438608 0.980639 0.459590 0.074491
C22   C     C_R   0.393477 0.062981 0.419252 0.108969
C23   C     C_R   0.145370 0.713995 0.488159 0.793211
C24   C     C_R   0.472785 0.173680 0.387902 -0.250320
C25   C     C_R   0.597766 0.207255 0.399235 0.164433
C26   C     C_R   0.354624 0.868248 0.488104 -0.247665
C27   C     C_R   0.187445 0.921097 0.436342 -0.183855
C28   C     C_R   0.775310 0.164202 0.486680 -0.147379
C29   C     C_R   0.391022 0.409273 0.674816 -0.328038
C30   C     C_R   0.750034 0.638588 0.370062 0.178758
C31   C     C_R   0.665384 0.685062 0.354274 -0.297031
C32   C     C_R   0.574836 0.645501 0.408919 -0.236118
C33   C     C_R   0.561353 0.553111 0.477410 0.017275
C34   C     C_R   0.995316 0.490978 0.329689 0.790507
C35   C     C_R   0.659747 0.518198 0.501032 0.252752
C36   C     C_R   0.458958 0.500647 0.528617 -0.071289
C37   C     C_R   0.477222 0.445672 0.616106 0.114908
C38   C     C_R   0.575551 0.416268 0.642019 -0.262706
C39   C     C_R   0.657667 0.441728 0.581061 -0.171328
C40   C     C_R   0.339324 0.497419 0.498389 0.287663
C41   C     C_R   0.269502 0.382429 0.639990 0.195816
C42   C     C_R   0.053601 0.591781 0.178319 -0.210039
C43   C     C_R   0.996014 0.486805 0.232638 -0.094839
C44   C     C_R   0.944145 0.382865 0.193136 -0.066229
C45   C     C_R   0.938721 0.388336 0.097754 0.090679
C46   C     C_R   0.996000 0.495486 0.044320 0.026577
Cu1   Cu    Cu3+1 0.098270 0.475420 0.521130 0.941362
Cu2   Cu    Cu3+1 0.901730 0.524580 0.478870 0.921082
H1    H     H_    0.097524 0.670286 0.209286 0.147165
H2    H     H_    0.436969 0.233876 0.349730 0.147107
H3    H     H_    0.233554 0.095289 0.375084 0.128218
H4    H     H_    0.384593 0.803655 0.523646 0.153288
H5    H     H_    0.555439 0.839203 0.495247 0.134707
H6    H     H_    0.764038 0.892157 0.520568 0.147418
H7    H     H_    0.582779 0.364223 0.706853 0.148163
H8    H     H_    0.414736 0.381577 0.745732 0.146939
H9    H     H_    0.518758 0.690974 0.397329 0.145337
H10   H     H_    0.667078 0.750527 0.296660 0.149767
H11   H     H_    0.718438 0.401125 0.599143 0.202267
H12   H     H_    0.834864 0.203367 0.091258 0.173561
H13   H     H_    0.833403 0.214620 0.931424 0.140192
H14   H     H_    0.892013 0.324158 0.785783 0.108437
H15   H     H_    0.107685 0.687721 0.760676 0.150293
H16   H     H_    0.162599 0.779896 0.063770 0.139302
H17   H     H_    0.092708 0.901503 0.431116 0.150929
N1    N     N_R   0.246280 0.438190 0.553160 -0.191944
N2    N     N_R   0.754320 0.561190 0.447410 -0.233915
O1    O     O_R   0.972510 0.318130 0.526570 -0.602559
O2    O     O_R   0.806530 0.359650 0.490890 -0.599422
O3    O     O_R   0.082980 0.479210 0.647590 -0.593541
O4    O     O_R   0.917000 0.520730 0.611900 -0.590201
O5    O     O_R   0.193470 0.640350 0.509110 -0.578639
O6    O     O_R   0.027490 0.681870 0.473430 -0.577349
O7    O     O_R   0.083000 0.479270 0.388100 -0.548473
O8    O     O_R   0.917020 0.520790 0.352410 -0.586258
C47   C     C_R   0.948583 0.091346 0.536506 0.109342
C48   C     C_R   0.975837 0.011393 0.604359 -0.147647
C49   C     C_R   0.089676 0.009562 0.616729 -0.115620
C50   C     C_R   0.181103 0.092048 0.565952 -0.116652
C51   C     C_R   0.157263 0.173478 0.500270 -0.179714
C52   C     C_R   0.041401 0.171159 0.484257 -0.058525
H18   H     H_    0.907823 0.948179 0.646724 0.127103
H19   H     H_    0.108100 0.946239 0.667724 0.128560
H20   H     H_    0.270714 0.093417 0.578143 0.145002
H21   H     H_    0.228111 0.237517 0.460638 0.128762
H22   H     H_    0.024680 0.232228 0.430752 0.165991
N3    N     N_3   0.664226 0.308995 0.340477 -0.603939
H23   H     H_    0.752931 0.321358 0.340215 0.233108
H24   H     H_    0.663306 0.379794 0.360991 0.249051
C53   C     C_R   0.180897 0.274745 0.696440 0.123021
C54   C     C_R   0.061249 0.249300 0.711085 -0.076734
C55   C     C_R   0.996327 0.156424 0.773417 -0.184141
C56   C     C_R   0.047700 0.084760 0.824092 -0.102694
C57   C     C_R   0.162662 0.103326 0.810105 -0.141305
C58   C     C_R   0.226113 0.193618 0.746038 -0.161518
H25   H     H_    0.011310 0.295433 0.677732 0.178577
H26   H     H_    0.905207 0.140201 0.782592 0.117405
H27   H     H_    0.997596 0.013693 0.872779 0.119231
H28   H     H_    0.202685 0.046736 0.847805 0.119951
H29   H     H_    0.311929 0.197935 0.735084 0.122539
C59   C     C_R   0.912144 0.267787 0.247782 0.068123
C60   C     C_R   0.789427 0.191495 0.253324 -0.204933
C61   C     C_R   0.755592 0.074218 0.281966 -0.109189
C62   C     C_R   0.843088 0.030788 0.301030 -0.099504
C63   C     C_R   0.964047 0.104101 0.289682 -0.158510
C64   C     C_R   0.998617 0.222064 0.263283 -0.156746
H30   H     H_    0.718972 0.220848 0.227637 0.158429
H31   H     H_    0.660945 0.016427 0.286427 0.138705
H32   H     H_    0.816677 0.940113 0.323028 0.121550
H33   H     H_    0.031063 0.069656 0.301640 0.123346
H34   H     H_    0.092190 0.277415 0.252176 0.134296
N4    N     N_3   0.308904 0.542235 0.407408 -0.543714
H35   H     H_    0.344899 0.521601 0.360130 0.199855
H36   H     H_    0.332514 0.629974 0.402301 0.211855
C65   C     C_R   0.823559 0.672877 0.294156 0.182071
C66   C     C_R   0.777164 0.609235 0.220249 -0.137033
C67   C     C_R   0.826113 0.654822 0.137259 -0.123529
C68   C     C_R   0.920263 0.765096 0.126625 -0.126975
C69   C     C_R   0.965537 0.829714 0.198959 -0.165910
C70   C     C_R   0.915460 0.784600 0.281445 -0.155073
H37   H     H_    0.700225 0.526154 0.225873 0.125978
H38   H     H_    0.789988 0.605294 0.080813 0.136236
H39   H     H_    0.957005 0.800980 0.062008 0.128580
H40   H     H_    0.035950 0.916433 0.189966 0.134686
H41   H     H_    0.940944 0.839383 0.332841 0.106519
N5    N     N_3   0.182769 0.816570 0.885131 -0.607277
H42   H     H_    0.117560 0.839956 0.842998 0.199255
H43   H     H_    0.231848 0.880210 0.927413 0.208715

loop_
_geom_bond_atom_site_label_1
_geom_bond_atom_site_label_2
_ccdc_geom_bond_type
C16   C28   A    
C7    C13   A    
N3    H23   S    
C56   C57   A    
C9    H16   S    
C11   C13   A    
C19   C20   A    
Cu2   O2    S    
C21   C26   A    
C33   C36   A    
N4    H36   S    
C7    C8    A    
C40   N4    S    
C48   C49   A    
C2    C46   A    
C59   C60   A    
C5    C6    A    
C48   H18   S    
C31   H10   S    
C36   C37   A    
C19   C21   A    
C63   H33   S    
C50   H20   S    
C20   C25   A    
C65   C66   A    
C25   N3    S    
C1    O1    A    
C66   C67   A    
C18   C19   A    
C68   C69   A    
C62   C63   A    
C18   H5    S    
C33   C35   A    
C54   H25   S    
C49   H19   S    
C38   H7    S    
Cu1   Cu2   S    
C8    C9    A    
C1    C28   S    
C61   H31   S    
C14   C27   A    
Cu1   N1    S    
C30   N2    A    
C34   O8    A    
C30   C65   S    
C3    H12   S    
C15   C23   S    
C41   C53   S    
C40   N1    A    
C21   C22   A    
Cu2   O8    S    
C10   H14   S    
C32   H9    S    
C23   O6    A    
C23   O5    A    
N4    H35   S    
C55   H26   S    
C64   H34   S    
C24   H2    S    
C38   C39   A    
C66   H37   S    
C36   C40   A    
C24   C25   A    
C54   C55   A    
C58   H29   S    
C16   C17   A    
C15   C26   A    
C20   C28   A    
C45   C46   A    
C4    H13   S    
C3    C45   A    
C1    O2    A    
C37   C38   A    
C35   C39   A    
C67   H38   S    
Cu1   O3    S    
C51   H21   S    
C27   H17   S    
C26   H4    S    
C15   C27   A    
C14   H3    S    
C13   H15   S    
C35   N2    A    
C69   C70   A    
C39   H11   S    
C17   C18   A    
C60   H30   S    
C47   C48   A    
C6    C7    A    
C34   O7    A    
C8    N5    S    
C12   O4    A    
C57   C58   A    
N3    H24   S    
C43   C44   A    
C22   C24   A    
C42   C43   A    
Cu2   O4    S    
C3    C4    A    
Cu1   O1    S    
C44   C45   A    
C59   C64   A    
C12   O3    A    
N5    H43   S    
C6    C46   A    
C29   C41   A    
C16   C47   S    
Cu2   O6    S    
C31   C32   A    
C34   C43   S    
C52   H22   S    
Cu1   O7    S    
C51   C52   A    
C53   C58   A    
C47   C52   A    
C44   C59   S    
C41   N1    A    
C29   H8    S    
C63   C64   A    
C32   C33   A    
C14   C22   A    
C5    C10   A    
C67   C68   A    
C49   C50   A    
C53   C54   A    
C30   C31   A    
C57   H28   S    
C2    C42   A    
N5    H42   S    
C17   H6    S    
C55   C56   A    
C70   H41   S    
C69   H40   S    
C68   H39   S    
Cu2   N2    S    
C60   C61   A    
Cu1   O5    S    
C10   C11   A    
C42   H1    S    
C50   C51   A    
C4    C5    A    
C65   C70   A    
C29   C37   A    
C61   C62   A    
C62   H32   S    
C2    C9    A    
C56   H27   S    
C11   C12   S    
