data_mof_unit_28010.cif
_audit_creation_date              2012-12-10T18:47:43-0500
_audit_creation_method            fapswitch 2.2
_symmetry_space_group_name_H-M    P1
_symmetry_Int_Tables_number       1
_space_group_crystal_system       triclinic
_cell_length_a                    9.843257
_cell_length_b                    10.715022
_cell_length_c                    15.570801
_cell_angle_alpha                 90.066982
_cell_angle_beta                  68.578955
_cell_angle_gamma                 90.011503
_cell_volume                      1528.81771027

loop_
_atom_site_label
_atom_site_type_symbol
_atom_type_description
_atom_site_fract_x
_atom_site_fract_y
_atom_site_fract_z
_atom_type_partial_charge
C1    C     C_R   0.499976 0.740118 0.500119 0.870419
C2    C     C_R   0.499924 0.259882 0.500047 0.869494
C3    C     C_R   0.361203 0.627353 0.087673 -0.204058
C4    C     C_R   0.691627 0.538047 0.891598 -0.203401
C5    C     C_R   0.264902 0.652917 0.043165 -0.232738
C6    C     C_R   0.793704 0.533042 0.934459 -0.231904
C7    C     C_R   0.609002 0.936145 0.519924 -0.190231
C8    C     C_R   0.390527 0.063857 0.480730 -0.189044
C9    C     C_R   0.609002 0.064017 0.519884 -0.187612
C10   C     C_R   0.390499 0.936000 0.480801 -0.195510
C11   C     C_R   0.499818 0.127445 0.500220 -0.014013
C12   C     C_R   0.499826 0.872561 0.500300 -0.013725
C13   C     C_R   0.949767 0.402775 0.462461 -0.068154
C14   C     C_R   0.049938 0.596902 0.538041 -0.089204
C15   C     C_R   0.093253 0.402498 0.462974 -0.039495
C16   C     C_R   0.906043 0.596769 0.538164 -0.069887
C17   C     C_R   0.409691 0.500389 0.675518 0.879403
C18   C     C_R   0.590331 0.497560 0.324033 0.872511
C19   C     C_R   0.357356 0.520295 0.774875 -0.099229
C20   C     C_R   0.645078 0.501539 0.222761 -0.113795
C21   C     C_R   0.198561 0.633032 0.908393 -0.228578
C22   C     C_R   0.845798 0.515474 0.075302 -0.211472
C23   C     C_R   0.230745 0.590564 0.818608 -0.222135
C24   C     C_R   0.795535 0.508069 0.171326 -0.208418
C25   C     C_R   0.450848 0.491086 0.821705 -0.071881
C26   C     C_R   0.545815 0.504735 0.176553 -0.076307
C27   C     C_R   0.432573 0.552214 0.904916 0.044243
C28   C     C_R   0.595452 0.538840 0.083403 0.041585
C29   C     C_R   0.298008 0.613317 0.952375 0.166185
C30   C     C_R   0.746312 0.530196 0.030675 0.162922
C31   C     C_R   0.541043 0.550903 0.944395 0.065223
C32   C     C_R   0.497705 0.570867 0.039641 0.063953
H1    H     H_    0.162461 0.699306 0.080756 0.149672
H2    H     H_    0.908654 0.526070 0.892500 0.152560
H3    H     H_    0.874243 0.502955 0.204925 0.172731
H4    H     H_    0.158690 0.614912 0.782718 0.159621
H5    H     H_    0.098602 0.684805 0.942216 0.144856
H6    H     H_    0.961823 0.510418 0.036368 0.153931
H7    H     H_    0.331155 0.656972 0.158714 0.157733
H8    H     H_    0.732143 0.538579 0.816996 0.158891
H9    H     H_    0.693422 0.887474 0.535802 0.149396
H10   H     H_    0.306113 0.112508 0.464831 0.150244
H11   H     H_    0.693429 0.112819 0.535739 0.158967
H12   H     H_    0.306028 0.887225 0.464980 0.154136
H13   H     H_    0.912983 0.325137 0.432150 0.128366
H14   H     H_    0.086612 0.674347 0.568602 0.127105
H15   H     H_    0.164627 0.324379 0.433420 0.132121
H16   H     H_    0.833949 0.674056 0.568901 0.124985
N1    N     N_R   0.142780 0.500030 0.500020 -0.079673
N2    N     N_R   0.857220 0.499970 0.499980 -0.078866
O1    O     O_R   0.385370 0.683250 0.500010 -0.630822
O2    O     O_R   0.614630 0.316750 0.499990 -0.628062
O3    O     O_R   0.614700 0.683220 0.500000 -0.628905
O4    O     O_R   0.385300 0.316780 0.500000 -0.629876
O5    O     O_R   0.319830 0.500020 0.632250 -0.614454
O6    O     O_R   0.680170 0.499980 0.367750 -0.612516
O7    O     O_R   0.549160 0.499990 0.632240 -0.604591
O8    O     O_R   0.450840 0.500010 0.367760 -0.602990
Zn1   Zn    Zn3+2 0.346870 0.500020 0.500000 0.952865
Zn2   Zn    Zn3+2 0.653130 0.499980 0.500000 0.954472
C33   C     C_1   0.401631 0.448910 0.217373 0.202611
N3    N     N_1   0.287115 0.404011 0.248806 -0.224693
C34   C     C_1   0.551777 0.386987 0.789812 0.176984
N4    N     N_1   0.631733 0.303927 0.764351 -0.201946

loop_
_geom_bond_atom_site_label_1
_geom_bond_atom_site_label_2
_ccdc_geom_bond_type
C19   C23   A    
C14   C16   A    
O5    Zn1   S    
C27   C29   A    
C1    O1    A    
C17   O5    A    
C18   C20   S    
C31   C32   A    
N1    Zn1   S    
C13   C15   A    
C18   O6    A    
C3    C5    A    
N2    Zn2   S    
C16   H16   S    
C28   C30   A    
C3    H7    S    
C14   H14   S    
C20   C24   A    
C13   H13   S    
C9    C11   A    
C5    H1    S    
C7    C12   A    
C1    C12   S    
C2    O2    A    
O2    Zn2   S    
C8    C11   A    
C2    C11   S    
C10   C12   A    
C8    C10   A    
C26   C28   A    
C17   C19   S    
C26   C33   S    
C16   N2    A    
C5    C29   A    
O4    Zn1   S    
C15   N1    A    
C21   C23   A    
C25   C34   S    
C3    C32   A    
C19   C25   A    
C22   C24   A    
C9    H11   S    
C24   H3    S    
O1    Zn1   S    
C33   N3    T    
C10   H12   S    
C13   N2    A    
C4    C31   A    
C6    H2    S    
C28   C32   A    
O6    Zn2   S    
C14   N1    A    
C27   C31   A    
C21   H5    S    
C4    C6    A    
C23   H4    S    
C2    O4    A    
C17   O7    A    
C7    C9    A    
C1    O3    A    
C15   H15   S    
O7    Zn2   S    
C22   C30   A    
C6    C30   A    
O8    Zn1   S    
C21   C29   A    
O3    Zn2   S    
C18   O8    A    
C4    H8    S    
C7    H9    S    
C8    H10   S    
C34   N4    T    
C20   C26   A    
C25   C27   A    
C22   H6    S    
