data_mof_unit_26400.cif
_audit_creation_date              2012-12-11T14:50:49-0500
_audit_creation_method            fapswitch 2.2
_symmetry_space_group_name_H-M    P1
_symmetry_Int_Tables_number       1
_space_group_crystal_system       triclinic
_cell_length_a                    10.85644
_cell_length_b                    10.948129
_cell_length_c                    18.818551
_cell_angle_alpha                 90.290665
_cell_angle_beta                  89.925354
_cell_angle_gamma                 60.028184
_cell_volume                      1937.57077466

loop_
_atom_site_label
_atom_site_type_symbol
_atom_type_description
_atom_site_fract_x
_atom_site_fract_y
_atom_site_fract_z
_atom_type_partial_charge
C1    C     C_R   0.239819 0.644911 0.610650 0.541189
C2    C     C_R   0.584269 0.124588 0.780566 -0.106767
C3    C     C_R   0.568147 0.150467 0.709831 -0.093997
C4    C     C_R   0.652660 0.619875 0.601900 0.566538
C5    C     C_R   0.672096 0.161221 0.671363 0.078918
C6    C     C_R   0.208819 0.545936 0.724292 -0.184567
C7    C     C_R   0.198024 0.552962 0.798277 -0.193063
C8    C     C_R   0.186367 0.670468 0.835036 0.008634
C9    C     C_R   0.198846 0.774954 0.796622 0.205146
C10   C     C_R   0.196106 0.773075 0.723411 -0.081934
C11   C     C_R   0.203941 0.658251 0.686300 -0.026736
C12   C     C_3   0.693492 0.536107 0.799496 -0.304336
C13   C     C_R   0.714847 0.505386 0.266224 -0.131559
C14   C     C_R   0.725112 0.526148 0.194473 -0.124725
C15   C     C_R   0.644816 0.661074 0.164812 0.027877
C16   C     C_R   0.629805 0.225898 0.602001 0.563118
C17   C     C_R   0.541930 0.771308 0.206827 -0.134373
C18   C     C_R   0.527742 0.748533 0.278777 -0.125463
C19   C     C_R   0.619218 0.616465 0.309522 0.029429
C20   C     C_R   0.542811 0.157576 0.288193 -0.130367
C21   C     C_R   0.543269 0.152275 0.215343 -0.137906
C22   C     C_R   0.653292 0.153520 0.177306 0.037857
C23   C     C_3   0.699992 0.671994 0.812567 0.076556
C24   C     C_R   0.761878 0.162361 0.213111 -0.144434
C25   C     C_R   0.761604 0.167111 0.286498 -0.151580
C26   C     C_R   0.648721 0.171043 0.324045 0.040202
C27   C     C_R   0.091363 0.803308 0.304409 -0.134766
C28   C     C_R   0.218808 0.649837 0.402517 0.546104
C29   C     C_R   0.074599 0.814505 0.232247 -0.122795
C30   C     C_R   0.108907 0.694766 0.190448 0.039177
C31   C     C_R   0.149371 0.565432 0.222213 -0.138200
C32   C     C_R   0.169519 0.553297 0.295042 -0.126700
C33   C     C_R   0.148336 0.671102 0.335328 0.035487
C34   C     C_3   0.670324 0.644607 0.676991 0.040305
C35   C     C_R   0.725169 0.049071 0.888573 0.598503
C36   C     C_R   0.722409 0.687190 0.888567 0.566092
C37   C     C_R   0.120357 0.705851 0.905942 0.543789
C38   C     C_R   0.674679 0.107018 0.104323 0.553383
C39   C     C_R   0.693237 0.688741 0.096892 0.545165
C40   C     C_R   0.615225 0.590055 0.385771 0.564853
C41   C     C_R   0.083433 0.714960 0.115300 0.548934
C42   C     C_R   0.618706 0.226453 0.395544 0.551006
C43   C     C_3   0.559524 0.798722 0.785261 -0.208840
C44   C     C_3   0.547337 0.788186 0.704661 -0.217320
C45   C     C_3   0.817146 0.633157 0.690288 -0.040598
C46   C     C_3   0.827301 0.665143 0.769851 0.136807
C47   C     C_2   0.853071 0.716968 0.638717 0.239849
C48   C     C_3   0.664825 0.525793 0.720401 -0.265467
C49   C     C_R   0.799743 0.133266 0.704430 -0.125979
C50   C     C_R   0.819981 0.097891 0.776563 -0.133344
C51   C     C_R   0.710438 0.095576 0.815095 0.064784
Cr1   Cr    Cr6+3 0.392930 0.397900 0.502230 1.009489
Cr2   Cr    Cr6+3 0.398240 0.708600 0.501260 1.017722
Cr3   Cr    Cr6+3 0.708800 0.393470 0.496460 1.008584
Cr4   Cr    Cr6+3 0.937620 0.938540 0.007640 1.028871
Cr5   Cr    Cr6+3 0.625150 0.937450 0.994520 1.016280
Cr6   Cr    Cr6+3 0.937990 0.625080 0.001190 1.018577
H1    H     H_    0.553969 0.899737 0.798122 0.176394
H2    H     H_    0.191051 0.470427 0.826283 0.135356
H3    H     H_    0.468452 0.799407 0.812038 0.130909
H4    H     H_    0.196503 0.859418 0.695753 0.155100
H5    H     H_    0.785799 0.403292 0.288475 0.123742
H6    H     H_    0.804435 0.438211 0.163455 0.129529
H7    H     H_    0.478944 0.876375 0.185400 0.122779
H8    H     H_    0.450339 0.835754 0.310800 0.132431
H9    H     H_    0.454724 0.158864 0.316022 0.130340
H10   H     H_    0.460197 0.141689 0.189207 0.126077
H11   H     H_    0.849400 0.160720 0.184567 0.115626
H12   H     H_    0.745276 0.419489 0.700490 0.142183
H13   H     H_    0.845746 0.174167 0.313622 0.112612
H14   H     H_    0.071554 0.895612 0.334972 0.127575
H15   H     H_    0.442627 0.797815 0.693026 0.133721
H16   H     H_    0.036914 0.917404 0.209247 0.137251
H17   H     H_    0.170442 0.473811 0.190760 0.121309
H18   H     H_    0.212337 0.449934 0.318592 0.134938
H19   H     H_    0.548518 0.877790 0.678024 0.183634
H20   H     H_    0.795798 0.441999 0.814889 0.133623
H21   H     H_    0.607742 0.536735 0.832291 0.124764
H22   H     H_    0.558689 0.534375 0.714377 0.134852
H23   H     H_    0.928738 0.577100 0.790968 0.109831
H24   H     H_    0.264480 0.847752 0.871936 0.331608
H25   H     H_    0.923493 0.774781 0.766791 0.333589
H26   H     H_    0.948579 0.662736 0.606436 0.100737
H27   H     H_    0.900215 0.520992 0.680910 0.043927
H28   H     H_    0.881080 0.141900 0.675270 0.120337
H29   H     H_    0.918802 0.074009 0.802006 0.170797
H30   H     H_    0.495204 0.126837 0.807741 0.122233
H31   H     H_    0.468272 0.170880 0.686728 0.125064
H32   H     H_    0.219534 0.453811 0.696954 0.132672
O1    O     O_R   0.507430 0.255570 0.581420 -0.523056
O2    O     O_R   0.837200 0.593290 0.915250 -0.528945
O3    O     O_R   0.065330 0.635370 0.931590 -0.504270
O4    O     O_R   0.280190 0.527390 0.578910 -0.507930
O5    O     O_R   0.068300 0.828790 0.091860 -0.533527
O6    O     O_R   0.798730 0.057480 0.079370 -0.509088
O7    O     O_R   0.584680 0.080480 0.076790 -0.524469
O8    O     O_R   0.626790 0.809640 0.067050 -0.505996
O9    O     O_R   0.816010 0.596460 0.076500 -0.522231
O10   O     O_R   0.045680 0.638310 0.081070 -0.502909
O11   O     O_3   0.833590 0.833690 0.001120 -0.258215
O12   O     O_R   0.524460 0.695920 0.424060 -0.497920
O13   O     O_R   0.260310 0.739740 0.584580 -0.529091
O14   O     O_R   0.532250 0.695150 0.573830 -0.499669
O15   O     O_R   0.744930 0.503430 0.576380 -0.533181
O16   O     O_R   0.699250 0.276390 0.571950 -0.514009
O17   O     O_R   0.499020 0.256400 0.419850 -0.523846
O18   O     O_R   0.272400 0.528160 0.429140 -0.509833
O19   O     O_R   0.251910 0.740570 0.423020 -0.528573
O20   O     O_3   0.206490 0.884705 0.828355 -0.724468
O21   O     O_3   0.827083 0.792781 0.778970 -0.689182
O22   O     O_2   0.777332 0.844268 0.632790 -0.498268
O23   O     O_R   0.736530 0.504260 0.414810 -0.513980
O24   O     O_R   0.691460 0.277160 0.422180 -0.522393
O25   O     O_3   0.499990 0.499990 0.499980 -0.268027
O26   O     O_R   0.089490 0.825610 0.930610 -0.497841
O27   O     O_R   0.818370 0.054540 0.929880 -0.499065
O28   O     O_R   0.605870 0.077310 0.915530 -0.536300
O29   O     O_R   0.646440 0.806700 0.917570 -0.512666

loop_
_geom_bond_atom_site_label_1
_geom_bond_atom_site_label_2
_ccdc_geom_bond_type
Cr3   O24   S    
C16   O1    A    
Cr6   O3    S    
C27   C29   A    
Cr5   O28   S    
Cr1   O1    S    
C1    C11   S    
C48   H12   S    
C12   C48   S    
C32   H18   S    
C7    C8    A    
C40   O23   A    
C45   C46   S    
C27   C33   A    
C18   H8    S    
C12   C23   S    
C20   C26   A    
H25   O21   S    
C48   H22   S    
C20   H9    S    
Cr2   O14   S    
C17   H7    S    
C30   C31   A    
C39   O8    A    
C29   H16   S    
Cr4   O27   S    
Cr6   O9    S    
C28   O18   A    
C22   C38   S    
C4    O14   A    
C4    O15   A    
C23   C43   S    
C15   C17   A    
C18   C19   A    
C44   H19   S    
C5    C16   S    
C43   H1    S    
C40   O12   A    
C13   H5    S    
C31   C32   A    
Cr1   O18   S    
Cr2   O12   S    
C8    C9    A    
C12   H21   S    
C38   O6    A    
C41   O10   A    
C30   C41   S    
C47   H26   S    
C36   O29   A    
C9    C10   A    
Cr3   O16   S    
Cr1   O17   S    
C23   C46   S    
C13   C14   A    
C21   H10   S    
C5    C49   A    
Cr5   O8    S    
Cr4   O5    S    
C7    H2    S    
C50   C51   A    
C45   C47   S    
C9    O20   S    
C4    C34   S    
C13   C19   A    
C49   H28   S    
C35   O27   A    
C34   C44   S    
C24   C25   A    
Cr4   O6    S    
C2    C51   A    
C6    C11   A    
C50   H29   S    
C31   H17   S    
C3    C5    A    
C25   C26   A    
Cr6   O11   S    
Cr4   O11   S    
C43   C44   S    
C29   C30   A    
C42   O24   A    
C41   O5    A    
Cr2   O13   S    
C12   H20   S    
C17   C18   A    
Cr3   O23   S    
Cr1   O4    S    
C34   C45   S    
C42   O17   A    
C15   C39   S    
C43   H3    S    
C16   O16   A    
C36   O2    A    
H24   O20   S    
C28   C33   S    
C23   C36   S    
C10   C11   A    
C46   O21   S    
C35   C51   S    
C22   C24   A    
C35   O28   A    
C10   H4    S    
C34   C48   S    
C8    C37   S    
Cr5   O11   S    
C27   H14   S    
Cr2   O25   S    
C26   C42   S    
Cr3   O15   S    
Cr5   O7    S    
Cr6   O2    S    
C37   O3    A    
C3    H31   S    
Cr5   O29   S    
C39   O9    A    
C6    C7    A    
C37   O26   A    
Cr1   O25   S    
C6    H32   S    
C32   C33   A    
C2    C3    A    
C46   H23   S    
Cr2   O19   S    
Cr4   O26   S    
C28   O19   A    
C47   O22   D    
C14   H6    S    
Cr3   O25   S    
C44   H15   S    
C19   C40   S    
C24   H11   S    
C45   H27   S    
C2    H30   S    
C20   C21   A    
C1    O4    A    
C49   C50   A    
C38   O7    A    
C14   C15   A    
C25   H13   S    
C21   C22   A    
C1    O13   A    
Cr6   O10   S    
