data_mof_unit_20634.cif
_audit_creation_date              2012-12-10T19:50:08-0500
_audit_creation_method            fapswitch 2.2
_symmetry_space_group_name_H-M    P1
_symmetry_Int_Tables_number       1
_space_group_crystal_system       triclinic
_cell_length_a                    14.244093
_cell_length_b                    14.930452
_cell_length_c                    15.557718
_cell_angle_alpha                 90.996825
_cell_angle_beta                  67.468752
_cell_angle_gamma                 88.882508
_cell_volume                      3054.43340361

loop_
_atom_site_label
_atom_site_type_symbol
_atom_type_description
_atom_site_fract_x
_atom_site_fract_y
_atom_site_fract_z
_atom_type_partial_charge
C1    C     C_R   0.503929 0.671922 0.489302 0.894181
C2    C     C_R   0.501858 0.185883 0.579730 -0.030040
C3    C     C_R   0.513942 0.768007 0.468419 -0.184392
C4    C     C_R   0.504100 0.232651 0.500622 -0.100217
C5    C     C_R   0.605107 0.809832 0.460968 0.446686
C6    C     C_R   0.520732 0.189337 0.415527 0.431899
C7    C     C_R   0.607196 0.902426 0.462692 -0.349645
C8    C     C_R   0.529970 0.096871 0.410070 -0.334240
C9    C     C_R   0.518738 0.952874 0.480496 0.047492
C10   C     C_R   0.525645 0.048997 0.487484 0.044623
C11   C     C_R   0.855674 0.544050 0.582160 -0.090286
C12   C     C_R   0.499875 0.328374 0.502506 0.958571
C13   C     C_R   0.107497 0.413849 0.501940 0.013567
C14   C     C_R   0.762307 0.551812 0.567002 0.532644
C15   C     C_R   0.213204 0.421109 0.482572 0.438566
C16   C     C_R   0.435839 0.501768 0.676410 0.871449
C17   C     C_R   0.564210 0.501026 0.323346 0.883222
C18   C     C_R   0.826502 0.448347 0.439061 0.455852
C19   C     C_R   0.189944 0.575548 0.522370 0.467684
C20   C     C_R   0.923149 0.450812 0.442258 -0.293303
C21   C     C_R   0.092438 0.574451 0.520166 -0.334757
C22   C     C_R   0.939694 0.494990 0.515252 0.012468
C23   C     C_R   0.419421 0.592890 0.083144 0.408745
C24   C     C_R   0.046760 0.493469 0.514640 -0.032281
C25   C     C_R   0.395326 0.514187 0.778353 -0.130154
C26   C     C_R   0.605095 0.498185 0.220365 -0.119985
C27   C     C_R   0.295326 0.606365 0.913609 0.090507
C28   C     C_R   0.732999 0.451830 0.068255 0.100175
C29   C     C_R   0.303152 0.561749 0.830008 0.081315
C30   C     C_R   0.709282 0.487184 0.160996 0.080615
C31   C     C_R   0.461566 0.491690 0.821544 -0.260902
C32   C     C_R   0.534608 0.508435 0.179719 -0.260121
C33   C     C_R   0.438162 0.512215 0.915187 0.036077
C34   C     C_R   0.571919 0.406000 0.925904 0.388967
C35   C     C_R   0.562727 0.497487 0.084462 0.023315
C36   C     C_R   0.354691 0.572392 0.962402 -0.011226
C37   C     C_R   0.652292 0.446734 0.034526 -0.011464
C38   C     C_R   0.502860 0.481189 0.959547 -0.105259
C39   C     C_R   0.496070 0.525135 0.042265 -0.116379
C40   C     C_3   0.234438 0.629512 0.125981 -0.401742
C41   C     C_3   0.202540 0.571343 0.212393 -0.321893
C42   C     C_3   0.095245 0.597027 0.279589 -0.913609
C43   C     C_3   0.708653 0.300986 0.933016 -0.366490
C44   C     C_3   0.662193 0.233889 0.010665 -0.327102
C45   C     C_R   0.338123 0.599965 0.054513 0.054111
C46   C     C_3   0.715558 0.141988 0.984254 -0.911683
C47   C     C_3   0.862851 0.585077 0.669881 -0.433159
C48   C     C_3   0.784329 0.547652 0.759710 -0.325732
C49   C     C_3   0.779358 0.603451 0.844588 -0.899343
C50   C     C_3   0.061371 0.321422 0.513816 -0.346503
C51   C     C_3   0.990095 0.308151 0.615438 -0.362963
C52   C     C_3   0.938598 0.217983 0.627453 -0.886669
C53   C     C_3   0.790724 0.523102 0.192955 -0.422283
C54   C     C_3   0.776759 0.625121 0.210717 -0.330721
C55   C     C_3   0.857968 0.662968 0.241344 -0.831568
C56   C     C_R   0.650810 0.391132 0.959224 0.043932
C57   C     C_3   0.215677 0.568615 0.797023 -0.405511
C58   C     C_3   0.169377 0.477108 0.795314 -0.325043
C59   C     C_3   0.072765 0.486170 0.775463 -0.908685
C60   C     C_3   0.241938 0.699024 0.937747 -0.462760
C61   C     C_3   0.280807 0.763952 0.856337 -0.323279
C62   C     C_3   0.220673 0.852916 0.881041 -0.902939
C63   C     C_3   0.843175 0.431774 0.004913 -0.433834
C64   C     C_3   0.885448 0.349170 0.038211 -0.322727
C65   C     C_3   0.999328 0.335141 0.985058 -0.911580
C66   C     C_3   0.333641 0.970639 0.494924 -0.410207
C67   C     C_R   0.430066 0.913438 0.478300 0.096707
C68   C     C_3   0.279052 0.999551 0.597496 -0.352939
C69   C     C_3   0.181060 0.053053 0.613610 -0.892653
C70   C     C_3   0.545195 0.040854 0.643980 -0.398744
C71   C     C_3   0.450284 0.005841 0.721170 -0.365021
C72   C     C_3   0.476861 0.967543 0.799635 -0.879467
C73   C     C_3   0.364405 0.781422 0.414015 -0.355053
C74   C     C_3   0.380395 0.823813 0.319994 -0.393406
C75   C     C_3   0.289866 0.807495 0.292759 -0.808049
C76   C     C_3   0.466650 0.234505 0.674470 -0.409686
C77   C     C_3   0.350443 0.248644 0.714063 -0.354329
C78   C     C_R   0.521616 0.092404 0.570416 0.092449
C79   C     C_3   0.308554 0.275128 0.817324 -0.922937
C80   C     C_R   0.434656 0.820358 0.457720 -0.002449
H1    H     H_    0.985630 0.416503 0.387139 0.181866
H2    H     H_    0.205162 0.499464 0.191361 0.217822
H3    H     H_    0.254907 0.579780 0.249365 0.251660
H4    H     H_    0.236388 0.700754 0.146961 0.218141
H5    H     H_    0.174832 0.622643 0.096981 0.194605
H6    H     H_    0.707221 0.114122 0.920963 0.267130
H7    H     H_    0.797646 0.146941 0.970848 0.260535
H8    H     H_    0.680845 0.095482 0.042198 0.253073
H9    H     H_    0.668005 0.258861 0.076111 0.225427
H10   H     H_    0.580273 0.226562 0.024023 0.239621
H11   H     H_    0.705873 0.272320 0.867736 0.248688
H12   H     H_    0.049367 0.637046 0.530003 0.192027
H13   H     H_    0.790670 0.305080 0.915012 0.180661
H14   H     H_    0.853412 0.599893 0.852645 0.256106
H15   H     H_    0.759481 0.674504 0.837544 0.264319
H16   H     H_    0.719858 0.577921 0.908120 0.256222
H17   H     H_    0.707055 0.547694 0.758409 0.252408
H18   H     H_    0.805919 0.477163 0.767425 0.215661
H19   H     H_    0.937884 0.571359 0.673261 0.226841
H20   H     H_    0.854459 0.659131 0.668910 0.195401
H21   H     H_    0.891181 0.214293 0.585118 0.271316
H22   H     H_    0.996421 0.162327 0.605760 0.265087
H23   H     H_    0.455745 0.523916 0.222793 0.207507
H24   H     H_    0.888783 0.210142 0.701790 0.249135
H25   H     H_    0.034790 0.310935 0.660282 0.221053
H26   H     H_    0.930171 0.362009 0.639384 0.236975
H27   H     H_    0.020565 0.310217 0.467027 0.200386
H28   H     H_    0.121331 0.267630 0.494725 0.241226
H29   H     H_    0.710555 0.658417 0.646553 0.320613
H30   H     H_    0.338052 0.372051 0.394646 0.378524
H31   H     H_    0.742111 0.391665 0.384018 0.377947
H32   H     H_    0.252674 0.636339 0.592800 0.355474
H33   H     H_    0.934294 0.652449 0.185019 0.239334
H34   H     H_    0.534025 0.459530 0.780352 0.214478
H35   H     H_    0.843640 0.736081 0.256144 0.256421
H36   H     H_    0.855922 0.630233 0.305618 0.280010
H37   H     H_    0.781325 0.658126 0.145757 0.210414
H38   H     H_    0.701072 0.642231 0.265642 0.234800
H39   H     H_    0.789017 0.488933 0.255506 0.256842
H40   H     H_    0.869162 0.509896 0.142711 0.203484
H41   H     H_    0.014740 0.528166 0.830642 0.257421
H42   H     H_    0.089690 0.517006 0.707030 0.268669
H43   H     H_    0.041213 0.419126 0.774128 0.240232
H44   H     H_    0.223828 0.431459 0.741852 0.248455
H45   H     H_    0.676886 0.935622 0.455181 0.142516
H46   H     H_    0.150943 0.446191 0.863772 0.220967
H47   H     H_    0.153389 0.613160 0.843857 0.206093
H48   H     H_    0.241102 0.599368 0.728504 0.200802
H49   H     H_    0.249879 0.898382 0.821369 0.249344
H50   H     H_    0.138986 0.841793 0.896470 0.265456
H51   H     H_    0.228372 0.885545 0.942625 0.260923
H52   H     H_    0.362516 0.776552 0.839684 0.230907
H53   H     H_    0.274142 0.736027 0.792605 0.221342
H54   H     H_    0.158300 0.692311 0.962126 0.191621
H55   H     H_    0.257235 0.733126 0.994448 0.211747
H56   H     H_    0.537555 0.061408 0.346181 0.142859
H57   H     H_    0.017272 0.328161 0.909246 0.265662
H58   H     H_    0.039852 0.392367 0.999907 0.261989
H59   H     H_    0.025625 0.272975 0.008212 0.256097
H60   H     H_    0.870961 0.356305 0.113399 0.235740
H61   H     H_    0.847064 0.287852 0.029989 0.229497
H62   H     H_    0.853264 0.424457 0.931062 0.194708
H63   H     H_    0.889464 0.491215 0.002474 0.196209
H64   H     H_    0.494204 0.665666 0.137460 0.332969
H65   H     H_    0.482698 0.336279 0.885003 0.338702
H66   H     H_    0.197973 0.114319 0.571358 0.274787
H67   H     H_    0.087231 0.670315 0.295250 0.268558
H68   H     H_    0.127575 0.011658 0.594643 0.262051
H69   H     H_    0.144010 0.073644 0.688253 0.250329
H70   H     H_    0.260675 0.939385 0.641440 0.224488
H71   H     H_    0.328362 0.042579 0.619543 0.227413
H72   H     H_    0.352003 0.030354 0.450798 0.208987
H73   H     H_    0.277780 0.934999 0.474627 0.213760
H74   H     H_    0.531222 0.909611 0.773229 0.264293
H75   H     H_    0.511068 0.019652 0.829501 0.263527
H76   H     H_    0.407052 0.944641 0.855901 0.257878
H77   H     H_    0.392063 0.060344 0.750588 0.231579
H78   H     H_    0.039514 0.576246 0.249781 0.267863
H79   H     H_    0.417532 0.951974 0.692054 0.222802
H80   H     H_    0.598100 0.983423 0.612214 0.202511
H81   H     H_    0.589297 0.083164 0.673539 0.197081
H82   H     H_    0.221425 0.844881 0.341433 0.237916
H83   H     H_    0.306921 0.831016 0.221158 0.255727
H84   H     H_    0.273420 0.735068 0.295105 0.296680
H85   H     H_    0.391131 0.897135 0.321278 0.220458
H86   H     H_    0.450450 0.793861 0.265463 0.237920
H87   H     H_    0.378114 0.709067 0.397171 0.250590
H88   H     H_    0.284361 0.790236 0.463538 0.251962
H89   H     H_    0.079148 0.561816 0.345146 0.269196
H90   H     H_    0.327159 0.222087 0.857921 0.269593
H91   H     H_    0.340820 0.339064 0.828478 0.268895
H92   H     H_    0.224601 0.283764 0.843190 0.254157
H93   H     H_    0.329169 0.301546 0.675110 0.229079
H94   H     H_    0.313594 0.186027 0.705657 0.229431
H95   H     H_    0.488135 0.197468 0.725365 0.232903
H96   H     H_    0.503790 0.300068 0.668696 0.203078
H97   H     H_    0.747642 0.799858 0.446830 0.319375
H98   H     H_    0.538235 0.197790 0.285321 0.327647
N1    N     N_R   0.747530 0.500020 0.500000 -0.165069
N2    N     N_R   0.252470 0.499980 0.500000 -0.192133
O1    O     O_R   0.420530 0.630930 0.499990 -0.643866
O2    O     O_3   0.275897 0.348247 0.442524 -0.759560
O3    O     O_3   0.814734 0.392264 0.373178 -0.796696
O4    O     O_3   0.217520 0.653664 0.551962 -0.797374
O5    O     O_3   0.421985 0.653978 0.149740 -0.814016
O6    O     O_3   0.556814 0.340380 0.869078 -0.815811
O7    O     O_3   0.691663 0.759608 0.450683 -0.745454
O8    O     O_3   0.525776 0.238883 0.339601 -0.779961
O9    O     O_R   0.579470 0.369070 0.500010 -0.654024
O10   O     O_R   0.579480 0.630940 0.499990 -0.490885
O11   O     O_R   0.420520 0.369060 0.500010 -0.575109
O12   O     O_R   0.375120 0.499990 0.632240 -0.643740
O13   O     O_R   0.624880 0.500010 0.367760 -0.639677
O14   O     O_R   0.534080 0.500000 0.632240 -0.565242
O15   O     O_R   0.465920 0.500000 0.367760 -0.630730
O16   O     O_3   0.683726 0.609587 0.619632 -0.719219
Zn1   Zn    Zn3+2 0.393860 0.499990 0.500000 0.937098
Zn2   Zn    Zn3+2 0.606140 0.500010 0.500000 1.000376

loop_
_geom_bond_atom_site_label_1
_geom_bond_atom_site_label_2
_ccdc_geom_bond_type
O9    Zn2   S    
C25   C31   A    
C66   C68   S    
C34   C56   A    
C77   H94   S    
C72   H76   S    
C70   C78   S    
C41   C42   S    
C62   H50   S    
C17   O13   A    
C73   H87   S    
O1    Zn1   S    
C57   H48   S    
C10   C78   A    
C53   H40   S    
C44   H10   S    
H32   O4    S    
C53   C54   S    
C26   C32   A    
C48   H17   S    
C52   H22   S    
C75   H82   S    
C23   C45   A    
C17   C26   S    
C18   O3    S    
C79   H90   S    
C35   C37   A    
C27   C60   S    
C38   C39   A    
C11   C14   A    
C23   C39   A    
C8    H56   S    
C64   H61   S    
C3    C80   A    
O13   Zn2   S    
C41   H3    S    
C15   O2    S    
C6    O8    S    
C33   C36   A    
C47   H19   S    
C27   C29   A    
H29   O16   S    
C75   H83   S    
C73   C74   S    
C79   H91   S    
C34   O6    S    
C40   H4    S    
N2    Zn1   S    
C16   O12   A    
C61   H52   S    
C37   C56   A    
C11   C47   S    
C73   C80   S    
C68   C69   S    
C31   C33   A    
C70   C71   S    
C49   H14   S    
C4    C12   S    
C9    C10   S    
C31   H34   S    
C70   H80   S    
C14   N1    A    
H98   O8    S    
C1    O10   A    
C59   H42   S    
C66   C67   S    
C72   H75   S    
C15   N2    A    
C25   C29   A    
C69   H66   S    
C62   H49   S    
C42   H78   S    
C73   H88   S    
C42   H67   S    
C44   C46   S    
C46   H8    S    
H64   O5    S    
C77   C79   S    
C59   H43   S    
C40   C45   S    
C71   H77   S    
C30   C53   S    
C52   H21   S    
C72   H74   S    
C74   C75   S    
C61   H53   S    
C51   C52   S    
C32   C35   A    
C76   H96   S    
C16   O14   A    
C76   C77   S    
C4    C6    A    
C5    C7    A    
C1    O1    A    
C6    C8    A    
C55   H33   S    
C58   C59   S    
C43   H11   S    
C47   H20   S    
C63   C64   S    
C13   C24   A    
C75   H84   S    
C1    C3    S    
C79   H92   S    
C2    C4    A    
C43   C44   S    
C9    C67   A    
C66   H72   S    
C2    C78   A    
C42   H89   S    
C47   C48   S    
C12   O9    A    
C51   H25   S    
H31   O3    S    
C50   C51   S    
C32   H23   S    
C36   C45   A    
O12   Zn1   S    
C49   H15   S    
C60   H55   S    
C65   H58   S    
C40   C41   S    
C7    H45   S    
C29   C57   S    
C18   N1    A    
C26   C30   A    
C54   H38   S    
C50   H27   S    
C22   C24   S    
C17   O15   A    
C5    O7    S    
C70   H81   S    
C60   H54   S    
C74   H86   S    
C2    C76   S    
O10   Zn2   S    
C23   O5    S    
C46   H7    S    
C64   H60   S    
C16   C25   S    
C7    C9    A    
C12   O11   A    
C14   O16   S    
C54   C55   S    
C52   H24   S    
C77   H93   S    
C40   H5    S    
C19   C21   A    
C41   H2    S    
C34   C38   A    
C62   H51   S    
C50   H28   S    
C76   H95   S    
C67   C80   A    
O11   Zn1   S    
C20   C22   A    
C3    C5    A    
C19   O4    S    
C57   H47   S    
C66   H73   S    
C53   H39   S    
C58   H46   S    
N1    Zn2   S    
C27   C36   A    
C71   H79   S    
C11   C22   A    
C58   H44   S    
C33   C38   A    
H97   O7    S    
H65   O6    S    
C69   H69   S    
C64   C65   S    
C13   C15   A    
C65   H57   S    
C71   C72   S    
C68   H71   S    
C57   C58   S    
O14   Zn2   S    
C55   H35   S    
C28   C37   A    
C51   H26   S    
C48   C49   S    
C35   C39   A    
C28   C30   A    
C43   H13   S    
C63   H62   S    
C18   C20   A    
C48   H18   S    
C49   H16   S    
C61   C62   S    
C68   H70   S    
C13   C50   S    
C65   H59   S    
C28   C63   S    
C43   C56   S    
H30   O2    S    
C8    C10   A    
C55   H36   S    
C21   C24   A    
C69   H68   S    
C63   H63   S    
C60   C61   S    
C46   H6    S    
C54   H37   S    
C20   H1    S    
C59   H41   S    
C19   N2    A    
C74   H85   S    
C44   H9    S    
O15   Zn1   S    
C21   H12   S    
