data_mof_unit_66519.cif
_audit_creation_date              2013-03-05T16:51:41-0500
_audit_creation_method            fapswitch 2.2
_symmetry_space_group_name_H-M    P1
_symmetry_Int_Tables_number       1
_space_group_crystal_system       triclinic
_cell_length_a                    15.765604
_cell_length_b                    15.819336
_cell_length_c                    15.088544
_cell_angle_alpha                 89.999473
_cell_angle_beta                  90.004625
_cell_angle_gamma                 89.969432
_cell_volume                      3763.10325221

loop_
_atom_site_label
_atom_site_type_symbol
_atom_site_description
_atom_site_fract_x
_atom_site_fract_y
_atom_site_fract_z
_atom_type_partial_charge
O1    O     O_R   0.500000 0.378020 0.573650 -0.626482
O2    O     O_R   0.500000 0.621980 0.426350 -0.625745
O3    O     O_R   0.500040 0.378020 0.426320 -0.564663
O4    O     O_R   0.499960 0.621980 0.573680 -0.568546
C1    C     C_R   0.500150 0.338783 0.499950 0.895241
C2    C     C_R   0.500121 0.661217 0.500039 0.893636
O5    O     O_R   0.376760 0.499990 0.573650 -0.615807
O6    O     O_R   0.623240 0.500010 0.426350 -0.611906
O7    O     O_R   0.376800 0.499990 0.426320 -0.594809
O8    O     O_R   0.623200 0.500010 0.573680 -0.588678
C3    C     C_R   0.337533 0.500007 0.499970 0.894988
C4    C     C_R   0.662463 0.500001 0.500030 0.900756
Zn1   Zn    Zn3+2 0.499970 0.500000 0.598370 1.055360
Zn2   Zn    Zn3+2 0.500030 0.500000 0.401630 1.056309
C5    C     C_3   0.971269 0.420843 0.516228 -0.254406
C6    C     C_3   0.028714 0.579307 0.483792 -0.255675
C7    C     C_3   0.026598 0.448700 0.437635 0.375547
C8    C     C_3   0.973382 0.551449 0.562385 0.374008
H1    H     H_    0.946800 0.355998 0.527933 0.195430
H2    H     H_    0.053181 0.644152 0.472087 0.194864
H3    H     H_    0.946675 0.547407 0.354644 0.196434
H4    H     H_    0.053303 0.452743 0.645378 0.196262
C9    C     C_1   0.248855 0.499977 0.499925 -0.113314
C10   C     C_1   0.751136 0.500085 0.500080 -0.108300
C11   C     C_3   0.028780 0.473229 0.579827 -0.252428
C12   C     C_3   0.971202 0.526920 0.420194 -0.251467
C13   C     C_3   0.083133 0.499790 0.499660 0.024264
C14   C     C_3   0.916851 0.500357 0.500359 0.023711
C15   C     C_1   0.173764 0.499894 0.499804 0.069876
C16   C     C_1   0.826224 0.500217 0.500208 0.071789
H5    H     H_    0.534848 0.082341 0.638634 0.207582
H6    H     H_    0.518156 0.917625 0.359316 0.207569
C17   C     C_R   0.533144 0.957805 0.581685 0.322504
C18   C     C_R   0.523127 0.042131 0.416064 0.323244
C19   C     C_R   0.526189 0.912693 0.501539 -0.033685
C20   C     C_R   0.525767 0.087253 0.496480 -0.034842
C21   C     C_R   0.522562 0.954165 0.419961 -0.265858
C22   C     C_R   0.531996 0.045787 0.577898 -0.265400
C23   C     C_1   0.516255 0.824016 0.501001 0.074341
C24   C     C_1   0.515942 0.175940 0.498183 0.074743
C25   C     C_1   0.507601 0.250496 0.499564 -0.093341
C26   C     C_1   0.507739 0.749480 0.500268 -0.095144
C27   C     C_R   0.483555 0.426904 0.951431 -0.252485
C28   C     C_R   0.520012 0.572295 0.048576 -0.253019
H7    H     H_    0.469474 0.370282 0.913790 0.201805
H8    H     H_    0.534311 0.628849 0.086238 0.201524
C29   C     C_R   0.502620 0.501620 0.904972 -0.114931
C30   C     C_R   0.501583 0.497416 0.095027 -0.114976
C31   C     C_R   0.521552 0.575580 0.954598 0.334872
C32   C     C_R   0.483400 0.423285 0.045398 0.337032
C33   C     C_1   0.500956 0.500622 0.807057 0.227252
C34   C     C_1   0.500535 0.499040 0.192943 0.228106
N1    N     N_1   0.499980 0.500020 0.270550 -0.068989
N2    N     N_1   0.500020 0.499980 0.729450 -0.069166
N3    N     N_R   0.055174 0.391439 0.368104 0.223674
O9    O     O_R   0.999676 0.351696 0.319885 -0.328522
O10   O     O_R   0.135625 0.379637 0.353689 -0.345497
N4    N     N_R   0.944788 0.608710 0.631910 0.224207
O11   O     O_R   0.000275 0.648451 0.680145 -0.330497
O12   O     O_R   0.864334 0.620531 0.646287 -0.335067
N5    N     N_R   0.539120 0.916053 0.666475 0.228410
O13   O     O_R   0.516343 0.955365 0.738430 -0.311726
O14   O     O_R   0.574585 0.842068 0.673658 -0.302648
N6    N     N_R   0.518821 0.083867 0.331158 0.231334
O15   O     O_R   0.487370 0.044637 0.262827 -0.308126
O16   O     O_R   0.553346 0.157709 0.319293 -0.311959
N7    N     N_R   0.464345 0.344061 0.088341 0.225143
O17   O     O_R   0.494805 0.326390 0.166329 -0.313678
O18   O     O_R   0.421802 0.285972 0.046424 -0.312592
N8    N     N_R   0.542071 0.654469 0.911673 0.224677
O19   O     O_R   0.576621 0.655837 0.833365 -0.313621
O20   O     O_R   0.532489 0.725633 0.953820 -0.308500

loop_
_geom_bond_atom_site_label_1
_geom_bond_atom_site_label_2
_geom_bond_distance
_ccdc_geom_bond_type
C28   C31   1.419145 A    
O5    Zn1   1.977935 S    
O6    Zn2   1.977938 S    
O7    Zn2   1.978220 S    
C1    C25   1.401511 S    
C27   C32   1.418979 A    
N8    O19   1.301278 A    
O3    Zn2   1.965271 S    
C11   C13   1.540947 S    
C18   C21   1.392843 A    
O7    C3    1.272114 A    
C32   N7    1.442642 S    
C7    N3    1.457330 S    
C12   C14   1.540914 S    
C17   C22   1.393101 A    
H5    C22   1.084555 S    
O6    C4    1.272098 A    
H3    C12   1.110211 S    
C33   N2    1.171110 T    
N6    O15   1.301632 A    
C6    C13   1.540946 S    
C14   C16   1.428797 S    
C8    C14   1.524486 S    
C29   C31   1.420914 A    
H6    C21   1.084581 S    
O5    C3    1.272112 A    
C30   C32   1.420727 A    
C27   H7    1.083678 S    
C5    C14   1.540916 S    
O2    C2    1.273390 A    
C8    C11   1.536880 S    
O8    C4    1.272084 A    
C17   N5    1.442852 S    
O1    C1    1.273540 A    
C7    C12   1.536858 S    
C9    C15   1.183858 T    
C20   C22   1.396055 A    
C6    H2    1.110266 S    
C17   C19   1.408455 A    
C28   H8    1.083672 S    
C18   N6    1.442798 S    
C5    H1    1.110268 S    
C23   C26   1.186849 T    
C18   C20   1.408383 A    
C31   N8    1.442924 S    
N3    O10   1.300257 A    
C6    C12   1.558981 S    
N5    O13   1.301632 A    
O2    Zn2   1.965362 S    
C10   C16   1.183814 T    
N3    O9    1.300260 A    
C5    C11   1.558967 S    
O4    C2    1.272744 A    
C13   C15   1.428860 S    
N4    O12   1.300264 A    
N7    O17   1.301218 A    
C7    C13   1.524505 S    
O3    C1    1.272601 A    
C20   C24   1.411650 S    
Zn2   N1    1.977806 S    
O1    Zn1   1.965365 S    
C34   N1    1.171117 T    
H4    C11   1.110210 S    
C6    C8    1.536891 S    
Zn1   N2    1.977805 S    
C2    C26   1.401501 S    
C3    C9    1.398069 S    
O4    Zn1   1.965270 S    
C5    C7    1.536861 S    
C4    C10   1.397977 S    
C24   C25   1.186854 T    
N8    O20   1.301703 A    
C19   C21   1.395969 A    
N4    O11   1.300257 A    
C30   C34   1.477720 S    
C27   C29   1.406835 A    
C8    N4    1.457342 S    
N5    O14   1.301329 A    
C29   C33   1.477719 S    
C28   C30   1.406831 A    
C19   C23   1.411625 S    
N7    O18   1.301891 A    
O8    Zn1   1.978220 S    
N6    O16   1.301352 A    
