data_mof_unit_43205.cif
_audit_creation_date              2012-12-10T18:21:19-0500
_audit_creation_method            fapswitch 2.2
_symmetry_space_group_name_H-M    P1
_symmetry_Int_Tables_number       1
_space_group_crystal_system       triclinic
_cell_length_a                    15.06657
_cell_length_b                    14.160573
_cell_length_c                    10.936687
_cell_angle_alpha                 89.713128
_cell_angle_beta                  87.976571
_cell_angle_gamma                 88.925478
_cell_volume                      2331.4689822

loop_
_atom_site_label
_atom_site_type_symbol
_atom_type_description
_atom_site_fract_x
_atom_site_fract_y
_atom_site_fract_z
_atom_type_partial_charge
C1    C     C_R   0.326417 0.500247 0.499431 0.933618
C2    C     C_R   0.041416 0.579670 0.713240 -0.133423
C3    C     C_R   0.089739 0.538543 0.612697 0.018133
C4    C     C_R   0.503113 0.499881 0.256696 0.902696
C5    C     C_R   0.045480 0.478000 0.534167 0.041887
C6    C     C_R   0.093906 0.420613 0.449368 0.049274
C7    C     C_R   0.049359 0.352458 0.383233 -0.286234
C8    C     C_R   0.957133 0.352214 0.382846 0.544761
C9    C     C_R   0.181246 0.553857 0.589890 0.385162
C10   C     C_R   0.229434 0.497162 0.505114 -0.173734
C11   C     C_R   0.185834 0.431159 0.433262 -0.124848
C12   C     C_3   0.594310 0.500844 0.909879 0.825679
C13   C     C_R   0.567724 0.799392 0.444781 0.002563
C14   C     C_R   0.566083 0.198582 0.441346 -0.100064
C15   C     C_R   0.431298 0.797649 0.559072 0.516651
C16   C     C_R   0.434202 0.205378 0.566095 0.508277
C17   C     C_R   0.429196 0.899388 0.567756 -0.176911
C18   C     C_R   0.428128 0.103551 0.566417 -0.178694
C19   C     C_R   0.673108 0.499476 0.505171 0.948775
C20   C     C_R   0.496130 0.949829 0.503772 0.054718
C21   C     C_R   0.495681 0.050798 0.503135 0.070433
C22   C     C_R   0.564531 0.899205 0.439461 0.004701
C23   C     C_R   0.818470 0.435002 0.436043 0.398171
C24   C     C_R   0.563531 0.098987 0.437572 0.016931
C25   C     C_R   0.361557 0.952011 0.634068 -0.054774
C26   C     C_R   0.358100 0.052938 0.627246 -0.059664
C27   C     C_R   0.625962 0.046773 0.365853 -0.125705
C28   C     C_R   0.626744 0.949275 0.367261 -0.115457
C29   C     C_R   0.492994 0.499625 0.741050 0.956192
C30   C     C_3   0.436341 0.585287 0.074877 0.253144
C31   C     C_3   0.458507 0.400013 0.074403 0.352516
C32   C     C_3   0.442829 0.592946 0.928823 0.068417
C33   C     C_3   0.442259 0.405182 0.930525 0.159314
C34   C     C_R   0.769420 0.496974 0.512813 -0.253619
C35   C     C_3   0.601443 0.507465 0.055930 -0.402059
C36   C     C_3   0.502039 0.498970 0.117938 -0.267633
C37   C     C_3   0.492300 0.498341 0.876328 -0.384050
C38   C     C_2   0.446541 0.685114 0.127163 0.565904
C39   C     C_2   0.511745 0.309685 0.111886 0.378792
C40   C     C_2   0.086796 0.607917 0.825841 0.522938
C41   C     C_2   0.233760 0.382613 0.330052 0.489543
C42   C     C_2   0.643731 0.747488 0.389463 0.537667
C43   C     C_2   0.642507 0.248189 0.388238 0.552524
C44   C     C_2   0.296146 0.902391 0.715104 0.512901
C45   C     C_R   0.811387 0.553025 0.598011 0.414063
C46   C     C_2   0.278155 0.104427 0.677545 0.510477
C47   C     C_2   0.352625 0.612422 0.874791 0.581772
C48   C     C_2   0.345197 0.408681 0.891579 0.500991
C49   C     C_2   0.648038 0.594081 0.104319 0.638153
C50   C     C_2   0.666003 0.432359 0.100211 0.350278
C51   C     C_2   0.898390 0.613912 0.825809 0.447710
C52   C     C_R   0.903363 0.539134 0.616339 0.003003
C53   C     C_R   0.952338 0.477744 0.536295 -0.118816
C54   C     C_R   0.908738 0.420385 0.452470 0.016330
C55   C     C_R   0.947786 0.581480 0.713839 -0.099097
H1    H     H_    0.085741 0.299813 0.329325 0.173560
H2    H     H_    0.631447 0.689956 0.330576 0.100687
H3    H     H_    0.631223 0.309891 0.334489 0.077756
H4    H     H_    0.309630 0.768395 0.562312 0.335534
H5    H     H_    0.379186 0.235112 0.721176 0.363842
H6    H     H_    0.319372 0.853196 0.783875 0.149378
H7    H     H_    0.243707 0.155161 0.620572 0.086717
H8    H     H_    0.314006 0.532483 0.062747 0.408066
H9    H     H_    0.354689 0.325340 0.128354 0.368994
H10   H     H_    0.334126 0.577920 0.792156 0.086991
H11   H     H_    0.332564 0.421511 0.795852 0.059641
H12   H     H_    0.674439 0.080408 0.305721 0.196024
H13   H     H_    0.537359 0.690100 0.941252 0.417293
H14   H     H_    0.528062 0.317578 0.838613 0.407498
H15   H     H_    0.667085 0.591734 0.198448 -0.012710
H16   H     H_    0.647838 0.386935 0.174168 0.074881
H17   H     H_    0.697659 0.572019 0.854445 0.435215
H18   H     H_    0.642906 0.367030 0.906784 0.381702
H19   H     H_    0.738726 0.446066 0.304975 0.283447
H20   H     H_    0.800967 0.680370 0.659665 0.342544
H21   H     H_    0.904123 0.686111 0.856866 0.059671
H22   H     H_    0.676044 0.913920 0.308630 0.193216
H23   H     H_    0.388722 0.732187 0.129801 0.129774
H24   H     H_    0.497006 0.277324 0.200247 0.086287
H25   H     H_    0.063256 0.668765 0.878290 0.056021
H26   H     H_    0.181800 0.680743 0.653613 0.343080
H27   H     H_    0.292557 0.339475 0.344605 0.097297
H28   H     H_    0.957579 0.243974 0.272397 0.343140
N1    N     N_R   0.500070 0.750030 0.500050 -0.153749
N2    N     N_R   0.500070 0.249970 0.500050 -0.155966
O1    O     O_R   0.367860 0.580280 0.500020 -0.539390
O2    O     O_2   0.567619 0.269477 0.046611 -0.573622
O3    O     O_2   0.148590 0.560481 0.863645 -0.486882
O4    O     O_3   0.224169 0.626641 0.644218 -0.729158
O5    O     O_2   0.206281 0.390519 0.226685 -0.469285
O6    O     O_3   0.913543 0.285950 0.315660 -0.624337
O7    O     O_2   0.719904 0.766685 0.413196 -0.568967
O8    O     O_2   0.718330 0.222551 0.409234 -0.483318
O9    O     O_3   0.362813 0.744955 0.604870 -0.702050
O10   O     O_3   0.378398 0.261592 0.637305 -0.750485
O11   O     O_2   0.216394 0.913107 0.702308 -0.540971
O12   O     O_R   0.367860 0.419720 0.500020 -0.616078
O13   O     O_2   0.252616 0.093633 0.783824 -0.499440
O14   O     O_3   0.349913 0.564997 0.122192 -0.715062
O15   O     O_3   0.377107 0.390306 0.139840 -0.711417
O16   O     O_2   0.303636 0.675062 0.916253 -0.521540
O17   O     O_2   0.281534 0.388008 0.957657 -0.466895
O18   O     O_3   0.489172 0.674045 0.887407 -0.666092
O19   O     O_3   0.468692 0.317715 0.877357 -0.725032
O20   O     O_2   0.672214 0.661442 0.042537 -0.510789
O21   O     O_2   0.742430 0.426832 0.058558 -0.421950
O22   O     O_3   0.632407 0.580171 0.852559 -0.636292
O23   O     O_R   0.500000 0.580270 0.314790 -0.626394
O24   O     O_3   0.641107 0.423211 0.854242 -0.738297
O25   O     O_3   0.781617 0.398235 0.333933 -0.643690
O26   O     O_3   0.762363 0.624769 0.654210 -0.690650
O27   O     O_2   0.855074 0.558101 0.887337 -0.466506
O28   O     O_R   0.500000 0.419730 0.314790 -0.682488
O29   O     O_R   0.632160 0.580270 0.499960 -0.608156
O30   O     O_R   0.632160 0.419730 0.499960 -0.631000
O31   O     O_R   0.500030 0.580270 0.685200 -0.501268
O32   O     O_R   0.500030 0.419730 0.685200 -0.585599
O33   O     O_2   0.516012 0.716685 0.161213 -0.644680
Zn1   Zn    Zn3+2 0.500020 0.607200 0.499990 1.069411
Zn2   Zn    Zn3+2 0.500020 0.392800 0.499990 0.992266

loop_
_geom_bond_atom_site_label_1
_geom_bond_atom_site_label_2
_ccdc_geom_bond_type
C4    C36   S    
C51   O27   D    
C47   O16   D    
C18   C21   A    
C35   C36   S    
C18   C26   A    
H13   O18   S    
C39   O2    D    
C15   O9    S    
C7    C8    A    
C53   C54   A    
C4    O23   A    
C13   N1    A    
C30   C38   S    
C46   H7    S    
C44   O11   D    
C5    C53   A    
C2    C55   A    
C5    C6    A    
C33   O19   S    
C1    O12   A    
C17   C20   A    
C25   C44   S    
C14   C24   A    
C12   C37   S    
C13   C42   S    
H8    O14   S    
C43   H3    S    
C35   C49   S    
C24   C27   A    
O1    Zn1   S    
H4    O9    S    
C9    C10   A    
C42   O7    D    
O29   Zn1   S    
C52   C55   A    
H26   O4    S    
C41   O5    D    
C46   O13   D    
C22   C28   A    
O23   Zn1   S    
C7    H1    S    
C42   H2    S    
C12   O24   S    
C31   C33   S    
C4    O28   A    
C51   H21   S    
O32   Zn2   S    
C8    C54   A    
C6    C11   A    
C8    O6    S    
C49   O20   D    
C38   H23   S    
C45   C52   A    
C25   C26   A    
C31   O15   S    
C29   O32   A    
C30   O14   S    
C33   C37   S    
C39   H24   S    
N2    Zn2   S    
C50   H16   S    
C3    C9    A    
O28   Zn2   S    
H17   O22   S    
C19   O30   A    
C23   C34   A    
C48   O17   D    
C35   C50   S    
C40   H25   S    
C32   O18   S    
C34   C45   A    
C32   C37   S    
C12   C35   S    
C28   H22   S    
C15   N1    A    
C29   O31   A    
C20   C22   A    
C49   H15   S    
C16   N2    A    
C32   C47   S    
C9    O4    S    
C52   C53   A    
C23   C54   A    
H14   O19   S    
C1    O1    A    
C15   C17   A    
C23   O25   S    
C16   O10   S    
C1    C10   S    
C14   N2    A    
C3    C5    A    
C19   C34   S    
H19   O25   S    
C12   O22   S    
C45   O26   S    
H18   O24   S    
C6    C7    A    
C44   H6    S    
H28   O6    S    
H20   O26   S    
C19   O29   A    
O31   Zn1   S    
C30   C36   S    
C17   C25   A    
C40   O3    D    
O12   Zn2   S    
C2    C3    A    
C30   C32   S    
N1    Zn1   S    
C41   H27   S    
C43   O8    D    
C31   C39   S    
C13   C22   A    
C11   C41   S    
C51   C55   S    
C27   H12   S    
C10   C11   A    
C26   C46   S    
C38   O33   D    
H5    O10   S    
C2    C40   S    
H9    O15   S    
C20   C21   A    
C16   C18   A    
O30   Zn2   S    
C21   C24   A    
C29   C37   S    
C27   C28   A    
C50   O21   D    
C33   C48   S    
C31   C36   S    
C48   H11   S    
C47   H10   S    
C14   C43   S    
