data_mof_unit_48871.cif
_audit_creation_date              2012-12-10T18:52:12-0500
_audit_creation_method            fapswitch 2.2
_symmetry_space_group_name_H-M    P1
_symmetry_Int_Tables_number       1
_space_group_crystal_system       triclinic
_cell_length_a                    15.727131
_cell_length_b                    10.672438
_cell_length_c                    9.861235
_cell_angle_alpha                 89.82772
_cell_angle_beta                  89.957475
_cell_angle_gamma                 90.836036
_cell_volume                      1654.99284447

loop_
_atom_site_label
_atom_site_type_symbol
_atom_type_description
_atom_site_fract_x
_atom_site_fract_y
_atom_site_fract_z
_atom_type_partial_charge
C1    C     C_R   0.499924 0.260014 0.500089 0.869753
C2    C     C_R   0.500366 0.739998 0.499905 0.875565
C3    C     C_R   0.472743 0.935589 0.384295 -0.152654
C4    C     C_R   0.528433 0.064489 0.615429 -0.162709
C5    C     C_R   0.500772 0.872450 0.499695 -0.014340
C6    C     C_R   0.500120 0.127591 0.500171 -0.013911
C7    C     C_R   0.553011 0.579027 0.070503 0.442282
C8    C     C_R   0.447046 0.420890 0.929497 0.442537
C9    C     C_R   0.552769 0.578753 0.927007 -0.208121
C10   C     C_R   0.447255 0.421208 0.072995 -0.207797
C11   C     C_R   0.337964 0.499056 0.499960 0.904666
C12   C     C_R   0.662011 0.500637 0.500029 0.906657
C13   C     C_3   0.971144 0.409963 0.596697 0.482004
C14   C     C_3   0.027817 0.562289 0.402122 0.415600
C15   C     C_3   0.026394 0.370607 0.476001 0.414109
C16   C     C_3   0.974555 0.602595 0.524144 0.430947
C17   C     C_1   0.249211 0.494057 0.499718 -0.151622
C18   C     C_1   0.750682 0.498241 0.500249 -0.154797
C19   C     C_3   0.029236 0.525694 0.623223 -0.389422
C20   C     C_3   0.969829 0.446175 0.376853 -0.508593
C21   C     C_3   0.083327 0.486039 0.499778 -0.070456
C22   C     C_3   0.916316 0.488130 0.500656 -0.086590
C23   C     C_1   0.174041 0.489524 0.499362 0.059353
C24   C     C_1   0.825762 0.494442 0.500710 0.048363
C25   C     C_R   0.472333 0.063839 0.384578 -0.187542
C26   C     C_R   0.528799 0.936196 0.615170 -0.180730
H1    H     H_    0.942760 0.414052 0.278887 0.177837
H2    H     H_    0.054796 0.555453 0.723089 0.177004
H3    H     H_    0.449644 0.112797 0.295507 0.163036
H4    H     H_    0.551477 0.887195 0.704217 0.164348
H5    H     H_    0.450339 0.886124 0.295073 0.172484
H6    H     H_    0.550913 0.114008 0.704574 0.172026
H7    H     H_    0.594855 0.641573 0.871531 0.181800
H8    H     H_    0.405191 0.358349 0.128470 0.177606
N1    N     N_R   0.499980 0.499970 0.857200 -0.132740
N2    N     N_R   0.500020 0.500030 0.142800 -0.131433
O1    O     O_R   0.499990 0.316750 0.614620 -0.577556
O2    O     O_R   0.500010 0.683250 0.385380 -0.576439
O3    O     O_R   0.500000 0.316780 0.385290 -0.636591
O4    O     O_R   0.500000 0.683220 0.614710 -0.635354
O5    O     O_R   0.376780 0.499970 0.614640 -0.558775
O6    O     O_R   0.623220 0.500030 0.385360 -0.561366
O7    O     O_R   0.376780 0.500000 0.385310 -0.625840
O8    O     O_R   0.623220 0.500000 0.614690 -0.625090
Zn1   Zn    Zn3+2 0.500000 0.499980 0.653120 1.006210
Zn2   Zn    Zn3+2 0.500000 0.500020 0.346880 1.004783
O9    O     O_3   0.057356 0.247897 0.461412 -0.656742
C27   C     C_3   0.085911 0.229677 0.327478 0.092205
H9    H     H_    0.131684 0.305052 0.296032 0.160274
H10   H     H_    0.030798 0.227785 0.256728 0.144447
C28   C     C_3   0.130649 0.103753 0.319559 -0.343529
H11   H     H_    0.185805 0.104165 0.390030 0.237809
H12   H     H_    0.085868 0.027648 0.351242 0.213861
C29   C     C_3   0.161859 0.077290 0.176035 -0.927201
H13   H     H_    0.107465 0.074224 0.104235 0.260398
H14   H     H_    0.193816 0.985217 0.173937 0.271095
H15   H     H_    0.208094 0.150955 0.143000 0.279489
O10   O     O_3   0.941477 0.722872 0.548128 -0.636792
C30   C     C_3   0.007735 0.813393 0.560183 0.092327
H16   H     H_    0.989868 0.895780 0.497884 0.155049
H17   H     H_    0.070720 0.782138 0.521973 0.156753
C31   C     C_3   0.016652 0.854828 0.707898 -0.395014
H18   H     H_    0.954334 0.887358 0.746061 0.242429
H19   H     H_    0.036749 0.774289 0.770953 0.227767
C32   C     C_3   0.082412 0.960495 0.722576 -0.899748
H20   H     H_    0.145908 0.928573 0.688847 0.268651
H21   H     H_    0.086697 0.989073 0.830572 0.267583
H22   H     H_    0.063885 0.043012 0.661128 0.290445
O11   O     O_3   0.940662 0.333040 0.703712 -0.626888
C33   C     C_3   0.893855 0.229892 0.651652 0.110975
H23   H     H_    0.936871 0.163456 0.600302 0.180852
H24   H     H_    0.844380 0.260059 0.578588 0.133431
C34   C     C_3   0.849773 0.160754 0.768624 -0.345071
H25   H     H_    0.898599 0.120353 0.836802 0.227152
H26   H     H_    0.811328 0.227902 0.827952 0.240944
C35   C     C_3   0.791383 0.055763 0.716855 -0.949845
H27   H     H_    0.738993 0.095317 0.655321 0.265823
H28   H     H_    0.763209 0.003995 0.804201 0.275583
H29   H     H_    0.827607 0.989072 0.653679 0.277385
O12   O     O_3   0.062968 0.642719 0.302108 -0.649289
C36   C     C_3   0.997949 0.693155 0.220073 0.108402
H30   H     H_    0.010637 0.795372 0.208955 0.150714
H31   H     H_    0.932796 0.683597 0.264425 0.166986
C37   C     C_3   0.000103 0.633302 0.079176 -0.360132
H32   H     H_    0.060423 0.660444 0.027308 0.227494
H33   H     H_    0.998010 0.529620 0.088728 0.232900
C38   C     C_3   0.924988 0.674706 0.992838 -0.916474
H34   H     H_    0.864092 0.644720 0.040957 0.288415
H35   H     H_    0.928814 0.631032 0.890982 0.281684
H36   H     H_    0.925895 0.778228 0.980829 0.258337
Cl1   Cl    Cl    0.622937 0.682841 0.153339 -0.614648
Cl2   Cl    Cl    0.377311 0.316805 0.846655 -0.604790

loop_
_geom_bond_atom_site_label_1
_geom_bond_atom_site_label_2
_ccdc_geom_bond_type
C38   H34   S    
C7    N2    A    
C35   H29   S    
C15   O9    S    
C36   H30   S    
C17   C23   T    
C18   C24   T    
C14   C21   S    
C19   C21   S    
C35   H28   S    
O6    Zn2   S    
C6    C25   A    
C34   H25   S    
C31   H19   S    
C27   C28   S    
C32   H21   S    
C12   O6    A    
C37   C38   S    
N2    Zn2   S    
C33   H23   S    
C8    Cl2   S    
C14   O12   S    
C1    O1    A    
C27   H10   S    
C30   H16   S    
C9    H7    S    
C34   H26   S    
O4    Zn1   S    
C36   H31   S    
C25   H3    S    
C15   C20   S    
C29   H14   S    
C11   O7    A    
C30   H17   S    
C33   H24   S    
C13   C19   S    
C1    C6    S    
C14   C20   S    
C3    C25   A    
C35   H27   S    
C4    C6    A    
O10   C30   S    
C28   H11   S    
C28   H12   S    
C8    N1    A    
C31   H18   S    
C2    O2    A    
O9    C27   S    
C32   H22   S    
C7    Cl1   S    
C33   C34   S    
C10   H8    S    
C16   O10   S    
C37   H32   S    
C3    H5    S    
C19   H2    S    
C4    H6    S    
O3    Zn2   S    
C27   H9    S    
C20   C22   S    
C26   H4    S    
C13   C15   S    
C34   C35   S    
C14   C16   S    
C2    C5    S    
O1    Zn1   S    
N1    Zn1   S    
C36   C37   S    
O8    Zn1   S    
C7    C9    A    
C29   H13   S    
C11   C17   S    
C30   C31   S    
C16   C22   S    
C31   C32   S    
C37   H33   S    
O12   C36   S    
C3    C5    A    
C4    C26   A    
C20   H1    S    
C28   C29   S    
C21   C23   S    
C12   O8    A    
C13   O11   S    
C16   C19   S    
C13   C22   S    
C11   O5    A    
C22   C24   S    
O11   C33   S    
O7    Zn2   S    
O2    Zn2   S    
C1    O3    A    
C5    C26   A    
C2    O4    A    
C15   C21   S    
C8    C10   A    
C32   H20   S    
C38   H36   S    
C12   C18   S    
C9    N1    A    
C38   H35   S    
O5    Zn1   S    
C10   N2    A    
C29   H15   S    
