data_mof_unit_49914.cif
_audit_creation_date              2012-12-11T14:58:02-0500
_audit_creation_method            fapswitch 2.2
_symmetry_space_group_name_H-M    P1
_symmetry_Int_Tables_number       1
_space_group_crystal_system       triclinic
_cell_length_a                    6.936936
_cell_length_b                    16.805488
_cell_length_c                    17.039781
_cell_angle_alpha                 100.585893
_cell_angle_beta                  90.261415
_cell_angle_gamma                 90.580633
_cell_volume                      1952.52318409

loop_
_atom_site_label
_atom_site_type_symbol
_atom_type_description
_atom_site_fract_x
_atom_site_fract_y
_atom_site_fract_z
_atom_type_partial_charge
O1    O     O_R   0.506180 0.438940 0.579430 -0.542591
O2    O     O_R   0.170520 0.406230 0.413590 -0.540962
O3    O     O_R   0.005180 0.561060 0.420570 -0.504277
C1    C     C_R   0.339135 0.383450 0.384971 0.691314
O4    O     O_R   0.176140 0.429310 0.578370 -0.552014
O5    O     O_R   0.010830 0.584300 0.586530 -0.529756
C2    C     C_R   0.343211 0.413385 0.605113 0.680017
O6    O     O_R   0.500520 0.415700 0.413470 -0.540014
O7    O     O_3   0.340830 0.550820 0.502480 -0.336236
V1    V     V_3+5 0.064040 0.490570 0.499540 1.470768
O8    O     O_R   0.681400 0.593770 0.586410 -0.540923
C3    C     C_R   0.851232 0.616567 0.614737 0.696578
O9    O     O_R   0.675790 0.570690 0.421630 -0.540187
C4    C     C_R   0.843684 0.587734 0.395920 0.759083
V2    V     V_3+5 0.564650 0.509430 0.500460 1.476357
O10   O     O_3   0.837730 0.449180 0.497520 -0.381817
C5    C     C_R   0.927489 0.862600 0.167626 -0.058526
C6    C     C_R   0.842856 0.642317 0.335842 -0.143053
C7    C     C_R   0.655046 0.696847 0.236235 -0.178719
C8    C     C_R   0.676118 0.642396 0.288174 -0.178264
C9    C     C_R   0.992734 0.698656 0.329515 0.292001
C10   C     C_R   0.971728 0.753931 0.276080 0.088330
C11   C     C_R   0.800684 0.753154 0.229712 0.103245
C12   C     C_R   0.778473 0.807990 0.176629 -0.218743
C13   C     C_R   0.095678 0.863187 0.214272 -0.191301
C14   C     C_R   0.117301 0.810420 0.267791 -0.152316
H1    H     H_    0.649073 0.806034 0.140364 0.119276
H2    H     H_    0.214094 0.904019 0.208461 0.123458
H3    H     H_    0.523565 0.695042 0.201298 0.133335
H4    H     H_    0.250883 0.813717 0.301267 0.179018
H5    H     H_    0.558479 0.600468 0.291814 0.161900
H6    H     H_    0.106577 0.629768 0.965891 0.114932
C15   C     C_R   0.787667 0.908546 0.729522 -0.138644
C16   C     C_R   0.724309 0.922656 0.655642 -0.134908
C17   C     C_R   0.707546 0.858915 0.591207 -0.089010
C18   C     C_R   0.753729 0.780586 0.600210 -0.095586
C19   C     C_R   0.816337 0.764210 0.674793 0.057926
C20   C     C_R   0.833958 0.829548 0.740812 0.070229
C21   C     C_R   0.865053 0.684667 0.683866 -0.179052
C22   C     C_R   0.931702 0.670501 0.758932 0.070659
C23   C     C_R   0.949439 0.735840 0.824938 0.068382
C24   C     C_R   0.900605 0.815387 0.815893 -0.182294
C25   C     C_R   0.977950 0.591489 0.770208 -0.139904
C26   C     C_R   0.041509 0.577372 0.844049 -0.125348
C27   C     C_R   0.058509 0.641117 0.908461 -0.119250
C28   C     C_R   0.012304 0.719454 0.899477 -0.136585
H7    H     H_    0.801533 0.960383 0.777307 0.101088
H8    H     H_    0.689407 0.983507 0.648246 0.121438
H9    H     H_    0.659649 0.870255 0.533748 0.133431
H10   H     H_    0.740968 0.733387 0.547890 0.121463
H11   H     H_    0.963906 0.539644 0.722443 0.096441
H12   H     H_    0.076391 0.516515 0.851434 0.118050
H13   H     H_    0.025250 0.766653 0.951785 0.103676
H14   H     H_    0.542353 0.488237 0.147924 0.115183
C29   C     C_R   0.253504 0.216880 0.398306 -0.142650
C30   C     C_R   0.220723 0.137268 0.407806 -0.114730
C31   C     C_R   0.251703 0.073658 0.344647 -0.121386
C32   C     C_R   0.315472 0.089183 0.271455 -0.137630
C33   C     C_R   0.348110 0.169325 0.259559 0.073591
C34   C     C_R   0.316756 0.234595 0.324500 0.066832
C35   C     C_R   0.414274 0.184646 0.184881 -0.185992
C36   C     C_R   0.450176 0.265582 0.175617 0.067311
C37   C     C_R   0.419223 0.330862 0.240615 0.072546
C38   C     C_R   0.352482 0.315522 0.315209 -0.186773
C39   C     C_R   0.513552 0.283287 0.101833 -0.139473
C40   C     C_R   0.547234 0.362876 0.092441 -0.115848
C41   C     C_R   0.517148 0.426484 0.155705 -0.127425
C42   C     C_R   0.453085 0.411010 0.228871 -0.141119
H15   H     H_    0.229194 0.264125 0.449525 0.103421
H16   H     H_    0.172150 0.124866 0.464683 0.118868
H17   H     H_    0.227497 0.011883 0.352550 0.124070
H18   H     H_    0.341366 0.037700 0.224658 0.095804
H19   H     H_    0.537438 0.236040 0.050570 0.104285
H20   H     H_    0.596009 0.375261 0.035585 0.115640
H21   H     H_    0.428312 0.462587 0.275756 0.104543
C43   C     C_R   0.427536 0.140019 0.833864 -0.066470
C44   C     C_R   0.338188 0.360114 0.666329 -0.062850
C45   C     C_R   0.146960 0.300978 0.762314 -0.207291
C46   C     C_R   0.167455 0.355838 0.710342 -0.168430
C47   C     C_R   0.490463 0.308430 0.676852 -0.243185
C48   C     C_R   0.469593 0.252102 0.728664 0.161091
C49   C     C_R   0.296109 0.248042 0.771544 0.161475
C50   C     C_R   0.275257 0.191714 0.823362 -0.242432
C51   C     C_R   0.598231 0.144285 0.789823 -0.167116
C52   C     C_R   0.618725 0.199156 0.737870 -0.206076
H22   H     H_    0.143733 0.189962 0.857152 0.122883
H23   H     H_    0.718801 0.105562 0.796288 0.123415
H24   H     H_    0.013231 0.299463 0.794668 0.121695
H25   H     H_    0.752436 0.200664 0.705503 0.122185
H26   H     H_    0.046871 0.394541 0.703839 0.121959
H27   H     H_    0.622002 0.310178 0.643069 0.121951
O11   O     O_R   0.265840 0.084300 0.086750 -0.535166
O12   O     O_R   0.589750 0.070740 0.921690 -0.547594
O13   O     O_R   0.755020 0.915730 0.913400 -0.535960
C53   C     C_R   0.422610 0.086709 0.895051 0.695718
O14   O     O_R   0.595830 0.093740 0.086480 -0.537192
O15   O     O_R   0.761150 0.938890 0.079360 -0.538521
C54   C     C_R   0.427301 0.116661 0.115096 0.697753
O16   O     O_R   0.259710 0.061140 0.920790 -0.536986
O17   O     O_3   0.425260 0.949200 0.997610 -0.367525
V3    V     V_3+5 0.702060 0.009430 0.000450 1.414720
O18   O     O_R   0.090530 0.929220 0.078150 -0.545991
C55   C     C_R   0.923398 0.913836 0.105140 0.696523
O19   O     O_R   0.084440 0.906220 0.913360 -0.537857
C56   C     C_R   0.914549 0.883491 0.885048 0.697457
V4    V     V_3+5 0.201450 0.990520 0.999290 1.418536
O20   O     O_3   0.928380 0.050800 0.002390 -0.368134
Cl1   Cl    Cl    0.200256 0.703504 0.391345 -0.693770

loop_
_geom_bond_atom_site_label_1
_geom_bond_atom_site_label_2
_ccdc_geom_bond_type
V3    O20   S    
C29   C30   A    
O13   C56   A    
C6    C9    A    
C23   C24   A    
C4    C6    S    
O2    C1    A    
C7    C8    A    
C12   H1    S    
C1    O6    A    
C25   H11   S    
C43   C51   A    
O19   V4    S    
C48   C49   A    
O11   C54   A    
C27   C28   A    
C13   H2    S    
C36   C37   A    
C9    C10   A    
C18   C19   A    
C20   C24   A    
C43   C53   S    
O5    C3    A    
C53   O16   A    
V4    O20   S    
V2    O10   S    
C40   H20   S    
C39   H19   S    
C30   C31   A    
C16   C17   A    
H6    C27   S    
C46   H26   S    
O8    V2    S    
C22   C25   A    
C17   C18   A    
O13   V3    S    
O14   C54   A    
C17   H9    S    
C23   C28   A    
C51   H23   S    
O1    V2    S    
O9    C4    A    
O7    V1    S    
C2    C44   S    
C26   H12   S    
C40   C41   A    
C33   C34   A    
O12   C53   A    
C29   C34   A    
C35   C36   A    
C43   C50   A    
O19   C56   A    
C44   C46   A    
C33   C35   A    
C5    C12   A    
C41   C42   A    
C51   C52   A    
O12   V3    S    
C21   C22   A    
O4    C2    A    
C52   H25   S    
C45   C46   A    
H14   C41   S    
C32   C33   A    
C49   C50   A    
C42   H21   S    
C7    C11   A    
C25   C26   A    
C19   C20   A    
C45   C49   A    
C11   C12   A    
C15   C16   A    
C5    C55   S    
C29   H15   S    
C31   H17   S    
O15   C55   A    
O3    C4    A    
O11   V4    S    
C22   C23   A    
C14   H4    S    
O6    V2    S    
C30   H16   S    
O9    V2    S    
C15   H7    S    
C16   H8    S    
O2    V1    S    
C18   H10   S    
C26   C27   A    
C44   C47   A    
C45   H24   S    
O16   V4    S    
C37   C42   A    
C36   C39   A    
O1    C2    A    
C47   C48   A    
O5    V1    S    
O8    C3    A    
C1    C38   S    
O17   V4    S    
C15   C20   A    
C34   C38   A    
C5    C13   A    
C3    C21   S    
C13   C14   A    
O4    V1    S    
C19   C21   A    
O3    V1    S    
V1    O10   S    
C35   C54   S    
C32   H18   S    
C31   C32   A    
C47   H27   S    
C28   H13   S    
O17   V3    S    
O18   V4    S    
C6    C8    A    
O7    V2    S    
O18   C55   A    
C24   C56   S    
O15   V3    S    
C9    Cl1   S    
C37   C38   A    
C50   H22   S    
C39   C40   A    
C10   C14   A    
C10   C11   A    
O14   V3    S    
C48   C52   A    
C8    H5    S    
C7    H3    S    
