data_mof_unit_60105.cif
_audit_creation_date              2012-12-10T17:53:27-0500
_audit_creation_method            fapswitch 2.2
_symmetry_space_group_name_H-M    P1
_symmetry_Int_Tables_number       1
_space_group_crystal_system       monoclinic
_cell_length_a                    44.836435
_cell_length_b                    39.050453
_cell_length_c                    21.712941
_cell_angle_alpha                 90.0
_cell_angle_beta                  60.504465
_cell_angle_gamma                 90.0
_cell_volume                      33089.6158036

loop_
_atom_site_label
_atom_site_type_symbol
_atom_type_description
_atom_site_fract_x
_atom_site_fract_y
_atom_site_fract_z
_atom_type_partial_charge
C1    C     C_R   0.066101 0.500017 0.435198 0.807226
C2    C     C_R   0.977337 0.476270 0.241200 -0.082527
C3    C     C_R   0.232581 0.970262 0.745094 0.440485
C4    C     C_R   0.285907 0.499170 0.216498 0.088220
C5    C     C_R   0.714093 0.499170 0.783502 0.088219
C6    C     C_R   0.785907 0.999170 0.216498 0.088218
C7    C     C_R   0.214093 0.999170 0.783502 0.088219
C8    C     C_R   0.157701 0.477754 0.306822 -0.046333
C9    C     C_R   0.842299 0.477755 0.693179 -0.046332
C10   C     C_R   0.657701 0.977754 0.306821 -0.046333
C11   C     C_R   0.342299 0.977754 0.693179 -0.046333
C12   C     C_R   0.121990 0.477573 0.343875 -0.180104
C13   C     C_R   0.522662 0.976270 0.758800 -0.082528
C14   C     C_R   0.878010 0.477574 0.656126 -0.180102
C15   C     C_R   0.621990 0.977573 0.343874 -0.180104
C16   C     C_R   0.378010 0.977573 0.656126 -0.180102
C17   C     C_R   0.103795 0.500168 0.400115 -0.110562
C18   C     C_R   0.896205 0.500168 0.599885 -0.110559
C19   C     C_R   0.603795 0.000168 0.400115 -0.110561
C20   C     C_R   0.396205 0.000168 0.599885 -0.110561
C21   C     C_R   0.121663 0.522530 0.421861 -0.134786
C22   C     C_R   0.878337 0.522529 0.578138 -0.134786
C23   C     C_R   0.621663 0.022529 0.421862 -0.134786
C24   C     C_R   0.477338 0.976270 0.241200 -0.082528
C25   C     C_R   0.378337 0.022529 0.578138 -0.134786
C26   C     C_R   0.158047 0.522490 0.385207 0.392370
C27   C     C_R   0.841953 0.522490 0.614792 0.392369
C28   C     C_R   0.658047 0.022490 0.385207 0.392370
C29   C     C_R   0.341953 0.022490 0.614792 0.392370
C30   C     C_R   0.175909 0.500361 0.326973 0.008773
C31   C     C_R   0.824091 0.500361 0.673026 0.008776
C32   C     C_R   0.675909 0.000361 0.326973 0.008773
C33   C     C_R   0.324091 0.000361 0.673027 0.008774
C34   C     C_R   0.000000 0.433712 0.000000 0.947799
C35   C     C_R   0.022856 0.477181 0.693531 0.384604
C36   C     C_R   0.500000 0.933712 0.000000 0.947794
C37   C     C_R   0.959256 0.577811 0.714893 0.476329
C38   C     C_R   0.040747 0.577809 0.285106 0.476331
C39   C     C_R   0.459255 0.077811 0.714893 0.476332
C40   C     C_R   0.540746 0.077810 0.285107 0.476332
C41   C     C_R   0.000160 0.499328 0.880960 0.826615
C42   C     C_R   0.999839 0.499328 0.119040 0.826615
C43   C     C_R   0.500160 0.999328 0.880960 0.826615
C44   C     C_R   0.499840 0.999328 0.119040 0.826614
C45   C     C_R   1.000000 0.566193 0.000000 0.774978
C46   C     C_R   0.977144 0.477182 0.306470 0.384605
C47   C     C_R   0.500000 0.066193 0.000000 0.774978
C48   C     C_R   0.500000 0.433724 0.000000 0.790097
C49   C     C_R   1.000000 0.933724 0.000000 0.790098
C50   C     C_R   0.433774 0.499970 0.066458 0.823595
C51   C     C_R   0.566226 0.499970 0.933542 0.823593
C52   C     C_R   0.933774 0.999970 0.066458 0.823594
C53   C     C_R   0.066226 0.999970 0.933542 0.823592
C54   C     C_R   0.500000 0.565976 0.000000 0.815855
C55   C     C_R   0.000000 0.065976 0.000000 0.815855
C56   C     C_R   0.475799 0.621947 0.989065 -0.080338
C57   C     C_R   0.522856 0.977181 0.693531 0.384605
C58   C     C_R   0.524201 0.621947 0.010935 -0.080337
C59   C     C_R   0.975802 0.121947 0.989056 -0.080340
C60   C     C_R   0.024198 0.121947 0.010944 -0.080339
C61   C     C_R   0.475803 0.657872 0.988260 0.382269
C62   C     C_R   0.524196 0.657872 0.011740 0.382267
C63   C     C_R   0.975807 0.157872 0.988250 0.382264
C64   C     C_R   0.024194 0.157872 0.011749 0.382266
C65   C     C_R   0.500000 0.676062 0.000000 -0.132739
C66   C     C_R   0.000000 0.176062 1.000000 -0.132737
C67   C     C_R   0.500000 0.603808 0.000000 -0.279314
C68   C     C_R   0.477144 0.977181 0.306469 0.384606
C69   C     C_R   0.000000 0.103808 1.000000 -0.279316
C70   C     C_R   0.476883 0.732214 0.061338 -0.042645
C71   C     C_R   0.523117 0.732214 0.938663 -0.042641
C72   C     C_R   0.976878 0.232214 0.061333 -0.042642
C73   C     C_R   0.023122 0.232214 0.938667 -0.042646
C74   C     C_R   0.952156 0.543037 0.736678 -0.115860
C75   C     C_R   0.047846 0.543035 0.263320 -0.115865
C76   C     C_R   0.452155 0.043036 0.736679 -0.115863
C77   C     C_R   0.547845 0.043036 0.263321 -0.115864
C78   C     C_R   0.976984 0.268004 0.060884 -0.138478
C79   C     C_R   0.000456 0.499737 0.685520 -0.103252
C80   C     C_R   0.023017 0.268004 0.939115 -0.138477
C81   C     C_R   0.476988 0.768004 0.060889 -0.138479
C82   C     C_R   0.523012 0.768004 0.939111 -0.138480
C83   C     C_R   0.000000 0.285948 1.000000 0.240319
C84   C     C_R   0.500000 0.785948 0.000000 0.240329
C85   C     C_R   0.500000 0.714038 0.000000 -0.048518
C86   C     C_R   0.000000 0.214038 1.000000 -0.048518
C87   C     C_R   0.028515 0.341489 0.994059 0.241109
C88   C     C_R   0.971485 0.341489 0.005941 0.241109
C89   C     C_R   0.528516 0.841489 0.994054 0.241109
C90   C     C_R   0.999544 0.499737 0.314480 -0.103251
C91   C     C_R   0.471484 0.841489 0.005946 0.241110
C92   C     C_R   0.027616 0.377707 0.998571 0.250933
C93   C     C_R   0.972384 0.377707 0.001429 0.250924
C94   C     C_R   0.527616 0.877707 0.998567 0.250925
C95   C     C_R   0.472383 0.877707 0.001433 0.250927
C96   C     C_R   0.000000 0.395773 0.000000 -0.201349
C97   C     C_R   0.500000 0.895773 0.000000 -0.201345
C98   C     C_R   0.000000 0.323705 0.000000 -0.076047
C99   C     C_R   0.500000 0.823705 0.000000 -0.076048
C100  C     C_R   0.496335 0.377759 0.948270 -0.163993
C101  C     C_R   0.500456 0.999737 0.685520 -0.103251
C102  C     C_R   0.503665 0.377759 0.051730 -0.163993
C103  C     C_R   0.996335 0.877759 0.948270 -0.163993
C104  C     C_R   0.003665 0.877759 0.051730 -0.163993
C105  C     C_R   0.496239 0.342041 0.948436 -0.132135
C106  C     C_R   0.503761 0.342041 0.051564 -0.132135
C107  C     C_R   0.996239 0.842041 0.948436 -0.132135
C108  C     C_R   0.003761 0.842041 0.051564 -0.132135
C109  C     C_R   0.500000 0.324019 0.000000 0.096129
C110  C     C_R   1.000000 0.824019 0.000000 0.096129
C111  C     C_R   0.919787 0.528993 0.754622 -0.088040
C112  C     C_R   0.933899 0.500017 0.564801 0.807226
C113  C     C_R   0.499544 0.999737 0.314480 -0.103252
C114  C     C_R   0.080214 0.528990 0.245374 -0.088042
C115  C     C_R   0.419787 0.028992 0.754625 -0.088041
C116  C     C_R   0.580214 0.028991 0.245374 -0.088042
C117  C     C_R   0.500000 0.395968 0.000000 -0.038716
C118  C     C_R   0.000000 0.895968 0.000000 -0.038717
C119  C     C_R   0.473696 0.267892 0.057054 -0.012849
C120  C     C_R   0.526304 0.267892 0.942945 -0.012849
C121  C     C_R   0.973696 0.767891 0.057054 -0.012849
C122  C     C_R   0.026304 0.767891 0.942945 -0.012849
C123  C     C_R   0.973931 0.732109 0.056733 -0.199899
C124  C     C_R   0.978069 0.521208 0.741417 -0.071322
C125  C     C_R   0.026069 0.732109 0.943267 -0.199899
C126  C     C_R   0.473931 0.232109 0.056733 -0.199899
C127  C     C_R   0.526069 0.232109 0.943267 -0.199899
C128  C     C_R   1.000000 0.713965 0.000000 0.064938
C129  C     C_R   0.500000 0.213964 0.000000 0.064938
C130  C     C_R   0.500000 0.286159 0.000000 -0.017212
C131  C     C_R   1.000000 0.786159 0.000000 -0.017212
C132  C     C_R   0.030712 0.657857 0.976813 -0.152095
C133  C     C_R   0.969288 0.657857 0.023187 -0.152096
C134  C     C_R   0.530712 0.157857 0.976813 -0.152095
C135  C     C_R   0.021931 0.521208 0.258583 -0.071324
C136  C     C_R   0.469288 0.157857 0.023187 -0.152096
C137  C     C_R   0.030727 0.622139 0.976652 -0.167433
C138  C     C_R   0.969273 0.622139 0.023348 -0.167433
C139  C     C_R   0.530727 0.122139 0.976652 -0.167433
C140  C     C_R   0.469273 0.122139 0.023348 -0.167433
C141  C     C_R   1.000000 0.603940 0.000000 -0.033915
C142  C     C_R   0.500000 0.103940 0.000000 -0.033915
C143  C     C_R   0.000000 0.676073 1.000000 0.117424
C144  C     C_R   0.500000 0.176073 0.000000 0.117424
C145  C     C_R   0.894788 0.549233 0.751044 0.430004
C146  C     C_R   0.478069 0.021208 0.741417 -0.071323
C147  C     C_R   0.105214 0.549229 0.248950 0.430003
C148  C     C_R   0.394787 0.049231 0.751047 0.430003
C149  C     C_R   0.605213 0.049231 0.248951 0.430004
C150  C     C_R   0.902362 0.583437 0.728556 -0.307166
C151  C     C_R   0.097641 0.583433 0.271439 -0.307166
C152  C     C_R   0.402361 0.083435 0.728558 -0.307166
C153  C     C_R   0.597640 0.083434 0.271441 -0.307166
C154  C     C_R   0.978456 0.520480 0.804855 -0.214136
C155  C     C_R   0.021545 0.520480 0.195145 -0.214135
C156  C     C_R   0.478456 0.020480 0.804855 -0.214136
C157  C     C_R   0.521931 0.021208 0.258583 -0.071324
C158  C     C_R   0.521544 0.020480 0.195145 -0.214135
C159  C     C_1   0.324450 0.500160 0.292466 0.303304
C160  C     C_1   0.675550 0.500156 0.707534 0.303307
C161  C     C_1   0.824450 0.000156 0.292466 0.303306
C162  C     C_1   0.175550 0.000156 0.707534 0.303307
C163  C     C_1   0.216091 0.560150 0.244844 0.310855
C164  C     C_1   0.783908 0.560150 0.755152 0.310861
C165  C     C_1   0.716091 0.060150 0.244847 0.310856
C166  C     C_1   0.283909 0.060150 0.755154 0.310858
C167  C     C_1   0.175166 0.455248 0.246606 0.304176
C168  C     C_R   0.078467 0.457931 0.749978 -0.126936
C169  C     C_1   0.824834 0.455249 0.753396 0.304172
C170  C     C_1   0.675166 0.955248 0.246605 0.304176
C171  C     C_1   0.324834 0.955248 0.753395 0.304175
C172  C     C_1   0.102659 0.543971 0.483638 0.266448
C173  C     C_1   0.897341 0.543970 0.516360 0.266448
C174  C     C_1   0.602659 0.043970 0.483639 0.266449
C175  C     C_1   0.397341 0.043970 0.516361 0.266448
C176  C     C_1   0.449893 0.603855 0.980367 0.384913
C177  C     C_1   0.550107 0.603855 0.019633 0.384913
C178  C     C_1   0.949898 0.103856 0.980349 0.384923
C179  C     C_R   0.921531 0.457933 0.250024 -0.126936
C180  C     C_1   0.050102 0.103856 0.019651 0.384921
C181  C     C_1   0.452963 0.714559 0.125237 0.289934
C182  C     C_1   0.547037 0.714559 0.874764 0.289935
C183  C     C_1   0.952954 0.214559 0.125227 0.289938
C184  C     C_1   0.047047 0.214559 0.874772 0.289936
C185  C     C_1   0.445787 0.285317 0.115923 0.243939
C186  C     C_1   0.554213 0.285317 0.884077 0.243939
C187  C     C_1   0.945787 0.785317 0.115923 0.243939
C188  C     C_1   0.054213 0.785317 0.884077 0.243939
C189  C     C_1   0.911891 0.493693 0.777167 0.324679
C190  C     C_R   0.578468 0.957931 0.749977 -0.126936
C191  C     C_1   0.088109 0.493690 0.222829 0.324684
C192  C     C_1   0.411891 0.993692 0.777170 0.324682
C193  C     C_1   0.588109 0.993691 0.222829 0.324683
C194  C     C_1   0.093339 0.489915 0.714140 0.268765
C195  C     C_1   0.906660 0.489917 0.285863 0.268765
C196  C     C_1   0.593340 0.989915 0.714138 0.268765
C197  C     C_1   0.406660 0.989916 0.285862 0.268765
C198  C     C_R   0.421532 0.957932 0.250023 -0.126937
C199  C     C_R   0.098246 0.433986 0.763931 0.430744
C200  C     C_R   0.566101 0.000017 0.435198 0.807226
C201  C     C_R   0.901752 0.433989 0.236072 0.430740
C202  C     C_R   0.598246 0.933987 0.763930 0.430742
C203  C     C_R   0.401753 0.933988 0.236071 0.430741
C204  C     C_R   0.083128 0.403367 0.798434 -0.159075
C205  C     C_R   0.916869 0.403370 0.201569 -0.159072
C206  C     C_R   0.583129 0.903367 0.798432 -0.159068
C207  C     C_R   0.416871 0.903368 0.201568 -0.159068
C208  C     C_R   0.049130 0.396009 0.818929 -0.221374
C209  C     C_R   0.950867 0.396011 0.181072 -0.221368
C210  C     C_R   0.549130 0.896009 0.818929 -0.221371
C211  C     C_R   0.433899 0.000017 0.564801 0.807225
C212  C     C_R   0.450869 0.896010 0.181071 -0.221370
C213  C     C_R   0.029040 0.419195 0.806353 0.429602
C214  C     C_R   0.970958 0.419196 0.193648 0.429597
C215  C     C_R   0.529041 0.919196 0.806353 0.429596
C216  C     C_R   0.470959 0.919196 0.193647 0.429596
C217  C     C_R   0.000056 0.499967 0.618866 0.849724
C218  C     C_R   0.999944 0.499967 0.381134 0.849725
C219  C     C_R   0.500056 0.999967 0.618866 0.849724
C220  C     C_R   0.499944 0.999967 0.381134 0.849724
C221  C     C_R   0.043691 0.450678 0.771680 -0.111435
C222  C     C_R   0.000631 0.498574 0.813619 -0.104986
C223  C     C_R   0.956307 0.450679 0.228322 -0.111431
C224  C     C_R   0.543691 0.950678 0.771680 -0.111433
C225  C     C_R   0.456308 0.950678 0.228321 -0.111432
C226  C     C_R   0.377711 0.499783 0.067759 -0.265867
C227  C     C_R   0.622289 0.499786 0.932241 -0.265866
C228  C     C_R   0.877711 0.999785 0.067759 -0.265870
C229  C     C_R   0.122288 0.999785 0.932241 -0.265870
C230  C     C_R   0.341678 0.499470 0.104018 0.431465
C231  C     C_R   0.658322 0.499473 0.895982 0.431463
C232  C     C_R   0.841678 0.999472 0.104018 0.431463
C233  C     C_R   0.999369 0.498574 0.186381 -0.104988
C234  C     C_R   0.158322 0.999472 0.895982 0.431463
C235  C     C_R   0.323757 0.499178 0.178505 0.070549
C236  C     C_R   0.676243 0.499178 0.821495 0.070549
C237  C     C_R   0.823757 0.999178 0.178505 0.070549
C238  C     C_R   0.176243 0.999178 0.821495 0.070548
C239  C     C_R   0.341997 0.499438 0.216054 -0.049842
C240  C     C_R   0.658003 0.499436 0.783946 -0.049841
C241  C     C_R   0.841997 0.999436 0.216054 -0.049841
C242  C     C_R   0.158003 0.999436 0.783946 -0.049841
C243  C     C_R   0.377797 0.499699 0.179219 -0.221952
C244  C     C_R   0.500631 0.998574 0.813619 -0.104987
C245  C     C_R   0.622203 0.499696 0.820781 -0.221954
C246  C     C_R   0.877797 0.999697 0.179219 -0.221953
C247  C     C_R   0.122203 0.999697 0.820781 -0.221953
C248  C     C_R   0.395931 0.499831 0.104973 -0.086363
C249  C     C_R   0.604069 0.499831 0.895027 -0.086364
C250  C     C_R   0.895931 0.999831 0.104973 -0.086364
C251  C     C_R   0.104068 0.999831 0.895027 -0.086365
C252  C     C_R   0.268535 0.528432 0.213791 -0.236967
C253  C     C_R   0.731465 0.528432 0.786207 -0.236964
C254  C     C_R   0.768535 0.028432 0.213792 -0.236963
C255  C     C_R   0.499370 0.998574 0.186381 -0.104987
C256  C     C_R   0.231465 0.028432 0.786207 -0.236963
C257  C     C_R   0.232761 0.529374 0.249343 0.028286
C258  C     C_R   0.767239 0.529374 0.750655 0.028285
C259  C     C_R   0.732761 0.029374 0.249344 0.028285
C260  C     C_R   0.267239 0.029374 0.750656 0.028285
C261  C     C_R   0.213922 0.500545 0.288256 0.067048
C262  C     C_R   0.786078 0.500545 0.711744 0.067047
C263  C     C_R   0.713922 0.000545 0.288256 0.067047
C264  C     C_R   0.286078 0.000545 0.711744 0.067047
C265  C     C_R   0.934190 0.597410 0.710859 -0.159192
C266  C     C_R   0.022662 0.476270 0.758801 -0.082528
C267  C     C_R   0.065814 0.597407 0.289139 -0.159191
C268  C     C_R   0.434188 0.097408 0.710859 -0.159191
C269  C     C_R   0.565813 0.097408 0.289140 -0.159190
C270  C     C_R   0.231408 0.471260 0.290855 -0.266010
C271  C     C_R   0.768592 0.471259 0.709146 -0.266010
C272  C     C_R   0.731408 0.971259 0.290854 -0.266008
C273  C     C_R   0.268592 0.971259 0.709146 -0.266009
C274  C     C_R   0.267419 0.470263 0.254908 0.440487
C275  C     C_R   0.732581 0.470262 0.745094 0.440485
C276  C     C_R   0.767419 0.970262 0.254906 0.440486
Cu1   Cu    Cu3+1 0.000000 0.534200 0.500000 1.031157
Cu2   Cu    Cu3+1 0.500010 0.499910 0.938190 0.990414
Cu3   Cu    Cu3+1 0.999990 0.999910 0.061810 0.990414
Cu4   Cu    Cu3+1 0.000010 0.999910 0.938190 0.990414
Cu5   Cu    Cu3+1 0.500000 0.034200 0.500000 1.031157
Cu6   Cu    Cu3+1 0.000000 0.465780 0.500000 1.053002
Cu7   Cu    Cu3+1 0.500000 0.965780 0.500000 1.053002
Cu8   Cu    Cu3+1 0.965790 0.499970 0.034190 1.026824
Cu9   Cu    Cu3+1 0.034210 0.499970 0.965810 1.026824
Cu10  Cu    Cu3+1 0.465790 0.999970 0.034190 1.026825
Cu11  Cu    Cu3+1 0.534210 0.999970 0.965810 1.026824
Cu12  Cu    Cu3+1 0.499990 0.499910 0.061810 0.990414
H1    H     H_    0.883501 0.599416 0.725102 0.173272
H2    H     H_    0.961808 0.371949 0.154828 0.169640
H3    H     H_    0.651154 0.052528 0.236113 0.336359
H4    H     H_    0.059037 0.442385 0.648040 0.335987
H5    H     H_    0.940961 0.442386 0.351962 0.335987
H6    H     H_    0.559038 0.942385 0.648039 0.335987
H7    H     H_    0.440962 0.942386 0.351961 0.335987
H8    H     H_    0.140216 0.461525 0.721476 0.334637
H9    H     H_    0.859782 0.461529 0.278528 0.334637
H10   H     H_    0.640216 0.961526 0.721474 0.334638
H11   H     H_    0.359783 0.961526 0.278527 0.334637
H12   H     H_    0.538189 0.871948 0.845172 0.169640
H13   H     H_    0.461810 0.871948 0.154828 0.169640
H14   H     H_    0.391455 0.499920 0.010449 0.165004
H15   H     H_    0.608544 0.499924 0.989551 0.165006
H16   H     H_    0.891455 0.999923 0.010449 0.165006
H17   H     H_    0.108544 0.999923 0.989551 0.165006
H18   H     H_    0.391487 0.499919 0.208745 0.174851
H19   H     H_    0.608513 0.499915 0.791255 0.174851
H20   H     H_    0.891487 0.999915 0.208745 0.174851
H21   H     H_    0.116504 0.599411 0.274892 0.173273
H22   H     H_    0.108512 0.999915 0.791255 0.174851
H23   H     H_    0.283042 0.550607 0.184011 0.171178
H24   H     H_    0.716958 0.550608 0.815985 0.171179
H25   H     H_    0.783042 0.050608 0.184014 0.171178
H26   H     H_    0.216958 0.050608 0.815986 0.171178
H27   H     H_    0.216886 0.449199 0.320987 0.144723
H28   H     H_    0.783114 0.449199 0.679017 0.144723
H29   H     H_    0.716886 0.949199 0.320984 0.144723
H30   H     H_    0.283114 0.949199 0.679016 0.144723
H31   H     H_    0.939438 0.623863 0.693906 0.181255
H32   H     H_    0.383499 0.099413 0.725105 0.173272
H33   H     H_    0.060567 0.623860 0.306092 0.181255
H34   H     H_    0.439436 0.123861 0.693906 0.181255
H35   H     H_    0.560565 0.123861 0.306094 0.181254
H36   H     H_    0.108201 0.460370 0.327493 0.165903
H37   H     H_    0.891799 0.460370 0.672509 0.165904
H38   H     H_    0.608201 0.960370 0.327491 0.165903
H39   H     H_    0.391799 0.960370 0.672508 0.165903
H40   H     H_    0.959288 0.282001 0.108035 0.149914
H41   H     H_    0.040712 0.282001 0.891964 0.149914
H42   H     H_    0.459295 0.782001 0.108044 0.149908
H43   H     H_    0.616502 0.099413 0.274894 0.173273
H44   H     H_    0.540704 0.782000 0.891957 0.149908
H45   H     H_    0.493364 0.391074 0.907872 0.161187
H46   H     H_    0.506636 0.391074 0.092128 0.161187
H47   H     H_    0.993364 0.891074 0.907872 0.161187
H48   H     H_    0.006635 0.891074 0.092128 0.161187
H49   H     H_    0.493156 0.328400 0.908482 0.142451
H50   H     H_    0.506844 0.328400 0.091517 0.142451
H51   H     H_    0.993156 0.828400 0.908482 0.142451
H52   H     H_    0.006844 0.828400 0.091517 0.142450
H53   H     H_    0.953851 0.718366 0.101231 0.144668
H54   H     H_    0.097979 0.384949 0.809376 0.186263
H55   H     H_    0.046149 0.718366 0.898768 0.144668
H56   H     H_    0.453851 0.218366 0.101231 0.144668
H57   H     H_    0.546149 0.218366 0.898768 0.144668
H58   H     H_    0.054688 0.671229 0.959630 0.138925
H59   H     H_    0.945311 0.671229 0.040370 0.138925
H60   H     H_    0.554688 0.171229 0.959630 0.138925
H61   H     H_    0.445311 0.171229 0.040370 0.138925
H62   H     H_    0.054787 0.608807 0.958713 0.161824
H63   H     H_    0.945213 0.608807 0.041287 0.161824
H64   H     H_    0.554787 0.108807 0.958713 0.161824
H65   H     H_    0.902017 0.384952 0.190627 0.186264
H66   H     H_    0.445213 0.108807 0.041287 0.161824
H67   H     H_    0.961250 0.537088 0.847818 0.169719
H68   H     H_    0.038752 0.537087 0.152181 0.169720
H69   H     H_    0.461249 0.037088 0.847819 0.169720
H70   H     H_    0.538751 0.037088 0.152181 0.169720
H71   H     H_    0.983982 0.427501 0.815297 0.340760
H72   H     H_    0.016016 0.427500 0.184703 0.340760
H73   H     H_    0.483982 0.927501 0.815298 0.340759
H74   H     H_    0.516018 0.927501 0.184702 0.340759
H75   H     H_    0.339749 0.499383 0.016390 0.332679
H76   H     H_    0.597980 0.884949 0.809374 0.186263
H77   H     H_    0.660251 0.499389 0.983610 0.332680
H78   H     H_    0.839749 0.999388 0.016390 0.332680
H79   H     H_    0.160251 0.999388 0.983610 0.332680
H80   H     H_    0.268282 0.423580 0.285202 0.334238
H81   H     H_    0.731718 0.423579 0.714804 0.334238
H82   H     H_    0.768282 0.923579 0.285197 0.334238
H83   H     H_    0.231718 0.923579 0.714803 0.334238
H84   H     H_    0.162195 0.558511 0.443851 0.340312
H85   H     H_    0.837804 0.558510 0.556148 0.340313
H86   H     H_    0.662195 0.058510 0.443851 0.340313
H87   H     H_    0.402019 0.884950 0.190626 0.186263
H88   H     H_    0.337804 0.058510 0.556149 0.340312
H89   H     H_    0.455322 0.699063 0.972019 0.346496
H90   H     H_    0.544677 0.699062 0.027985 0.346497
H91   H     H_    0.955331 0.199062 0.971991 0.346495
H92   H     H_    0.044670 0.199062 0.028006 0.346496
H93   H     H_    0.077388 0.336956 0.958867 0.341716
H94   H     H_    0.922612 0.336956 0.041133 0.341716
H95   H     H_    0.577390 0.836956 0.958855 0.341715
H96   H     H_    0.422610 0.836956 0.041145 0.341716
H97   H     H_    0.005995 0.577299 0.700122 0.344744
H98   H     H_    0.038188 0.371947 0.845173 0.169641
H99   H     H_    0.994007 0.577298 0.299879 0.344744
H100  H     H_    0.505994 0.077299 0.700121 0.344743
H101  H     H_    0.494006 0.077298 0.299879 0.344744
H102  H     H_    0.062699 0.381338 0.026161 0.361411
H103  H     H_    0.937302 0.381338 0.973839 0.361411
H104  H     H_    0.562702 0.881337 0.026150 0.361409
H105  H     H_    0.437298 0.881337 0.973850 0.361409
H106  H     H_    0.848848 0.552532 0.763879 0.336360
H107  H     H_    0.151155 0.552527 0.236111 0.336359
H108  H     H_    0.348847 0.052529 0.763885 0.336359
N1    N     N_1   0.310370 0.500736 0.353676 -0.236176
N2    N     N_1   0.810838 0.437238 0.801661 -0.227617
N3    N     N_1   0.689161 0.937238 0.198339 -0.227617
N4    N     N_1   0.310839 0.937238 0.801661 -0.227617
N5    N     N_1   0.087434 0.561026 0.533061 -0.235010
N6    N     N_1   0.912566 0.561025 0.466937 -0.235011
N7    N     N_1   0.587434 0.061025 0.533062 -0.235011
N8    N     N_1   0.412566 0.061026 0.466938 -0.235011
N9    N     N_1   0.429183 0.589387 0.973513 -0.260744
N10   N     N_1   0.570817 0.589387 0.026487 -0.260746
N11   N     N_1   0.929190 0.089387 0.973487 -0.260742
N12   N     N_1   0.689630 0.500730 0.646324 -0.236176
N13   N     N_1   0.070810 0.089387 0.026512 -0.260742
N14   N     N_1   0.433804 0.700377 0.176402 -0.242219
N15   N     N_1   0.566195 0.700376 0.823599 -0.242219
N16   N     N_1   0.933791 0.200377 0.176388 -0.242220
N17   N     N_1   0.066209 0.200377 0.823611 -0.242220
N18   N     N_1   0.423438 0.299286 0.163058 -0.247508
N19   N     N_1   0.576562 0.299286 0.836942 -0.247508
N20   N     N_1   0.923438 0.799286 0.163058 -0.247508
N21   N     N_1   0.076562 0.799286 0.836942 -0.247508
N22   N     N_1   0.905621 0.465458 0.795156 -0.252159
N23   N     N_1   0.810370 0.000731 0.353676 -0.236176
N24   N     N_1   0.094379 0.465455 0.204840 -0.252157
N25   N     N_1   0.405621 0.965457 0.795159 -0.252158
N26   N     N_1   0.594379 0.965456 0.204840 -0.252157
N27   N     N_1   0.105139 0.515481 0.685497 -0.246806
N28   N     N_1   0.894861 0.515483 0.314506 -0.246805
N29   N     N_1   0.605139 0.015481 0.685495 -0.246805
N30   N     N_1   0.394861 0.015482 0.314505 -0.246805
N31   N     N_1   0.189630 0.000730 0.646324 -0.236176
N32   N     N_1   0.202887 0.584948 0.241297 -0.280939
N33   N     N_1   0.797113 0.584950 0.758698 -0.280938
N34   N     N_1   0.702887 0.084949 0.241301 -0.280939
N35   N     N_1   0.297113 0.084949 0.758700 -0.280939
N36   N     N_1   0.189162 0.437237 0.198341 -0.227617
O1    O     O_R   0.049900 0.528880 0.450120 -0.580952
O2    O     O_R   0.549920 0.499990 0.002300 -0.581769
O3    O     O_R   0.950080 0.999990 0.997700 -0.581769
O4    O     O_R   0.049920 0.999990 0.002300 -0.581769
O5    O     O_R   0.500010 0.549830 0.052300 -0.573662
O6    O     O_R   0.499990 0.549830 0.947700 -0.573660
O7    O     O_R   0.000010 0.049830 0.052300 -0.573662
O8    O     O_R   0.999990 0.049830 0.947700 -0.573662
O9    O     O_R   0.049890 0.471100 0.450130 -0.575361
O10   O     O_R   0.950110 0.471100 0.549870 -0.575361
O11   O     O_R   0.549890 0.971100 0.450130 -0.575361
O12   O     O_R   0.950100 0.528880 0.549880 -0.580951
O13   O     O_R   0.450110 0.971100 0.549870 -0.575361
O14   O     O_R   0.000000 0.528880 0.590180 -0.583923
O15   O     O_R   1.000000 0.528880 0.409820 -0.583921
O16   O     O_R   0.500000 0.028880 0.590180 -0.583923
O17   O     O_R   0.500000 0.028880 0.409820 -0.583921
O18   O     O_R   0.999980 0.471100 0.590190 -0.541422
O19   O     O_R   0.000020 0.471100 0.409810 -0.541424
O20   O     O_R   0.499980 0.971100 0.590190 -0.541423
O21   O     O_R   0.500020 0.971100 0.409810 -0.541423
O22   O     O_R   0.971100 0.450060 0.028870 -0.542262
O23   O     O_R   0.549900 0.028880 0.450120 -0.580952
O24   O     O_R   0.028900 0.450060 0.971130 -0.542262
O25   O     O_R   0.471100 0.950060 0.028870 -0.542260
O26   O     O_R   0.528900 0.950060 0.971130 -0.542259
O27   O     O_R   0.971100 0.499970 0.938700 -0.575980
O28   O     O_R   0.028900 0.499970 0.061300 -0.575980
O29   O     O_R   0.471100 0.999970 0.938700 -0.575980
O30   O     O_R   0.528900 0.999970 0.061300 -0.575980
O31   O     O_R   0.028870 0.499990 0.880960 -0.587610
O32   O     O_R   0.971130 0.499990 0.119040 -0.587610
O33   O     O_R   0.528870 0.999990 0.880960 -0.587609
O34   O     O_R   0.450100 0.028880 0.549880 -0.580951
O35   O     O_R   0.471130 0.999990 0.119040 -0.587609
O36   O     O_R   0.971110 0.549880 0.028880 -0.590977
O37   O     O_R   0.028890 0.549880 0.971120 -0.590978
O38   O     O_R   0.471110 0.049880 0.028880 -0.590977
O39   O     O_R   0.528890 0.049880 0.971120 -0.590978
O40   O     O_R   0.499980 0.450010 0.052100 -0.586463
O41   O     O_R   0.500020 0.450010 0.947900 -0.586463
O42   O     O_R   0.999980 0.950010 0.052100 -0.586463
O43   O     O_R   0.000020 0.950010 0.947900 -0.586463
O44   O     O_3   0.995494 0.409852 0.828792 -0.703464
O45   O     O_R   0.450080 0.499920 0.102080 -0.586631
O46   O     O_3   0.004504 0.409852 0.171208 -0.703466
O47   O     O_3   0.495494 0.909852 0.828793 -0.703463
O48   O     O_3   0.504505 0.909852 0.171206 -0.703465
O49   O     O_3   0.323448 0.499117 0.067995 -0.711524
O50   O     O_3   0.676552 0.499121 0.932005 -0.711525
O51   O     O_3   0.823448 0.999121 0.067994 -0.711525
O52   O     O_3   0.176552 0.999121 0.932005 -0.711525
O53   O     O_3   0.285018 0.441449 0.256009 -0.714076
O54   O     O_3   0.714982 0.441448 0.743995 -0.714077
O55   O     O_3   0.785018 0.941448 0.256006 -0.714077
O56   O     O_R   0.549920 0.499920 0.897920 -0.586630
O57   O     O_3   0.214982 0.941448 0.743994 -0.714077
O58   O     O_3   0.177198 0.542966 0.404899 -0.717109
O59   O     O_3   0.822802 0.542965 0.595098 -0.717110
O60   O     O_3   0.677198 0.042965 0.404901 -0.717110
O61   O     O_3   0.322802 0.042965 0.595099 -0.717110
O62   O     O_3   0.451634 0.674041 0.976158 -0.703333
O63   O     O_3   0.548366 0.674041 0.023843 -0.703334
O64   O     O_3   0.951641 0.174041 0.976137 -0.703332
O65   O     O_3   0.048360 0.174041 0.023862 -0.703334
O66   O     O_3   0.056533 0.322771 0.985068 -0.708779
O67   O     O_R   0.950080 0.999920 0.102080 -0.586630
O68   O     O_3   0.943467 0.322771 0.014932 -0.708779
O69   O     O_3   0.556535 0.822770 0.985058 -0.708777
O70   O     O_3   0.443465 0.822770 0.014942 -0.708777
O71   O     O_3   0.990108 0.593648 0.696463 -0.709820
O72   O     O_3   0.009895 0.593647 0.303538 -0.709820
O73   O     O_3   0.490107 0.093648 0.696462 -0.709820
O74   O     O_3   0.509894 0.093647 0.303539 -0.709820
O75   O     O_3   0.052775 0.395939 0.003503 -0.674779
O76   O     O_3   0.947225 0.395939 0.996498 -0.674779
O77   O     O_3   0.552777 0.895939 0.003495 -0.674779
O78   O     O_R   0.049920 0.999920 0.897920 -0.586630
O79   O     O_3   0.447223 0.895939 0.996505 -0.674780
O80   O     O_3   0.863146 0.535140 0.770342 -0.724367
O81   O     O_3   0.136856 0.535136 0.229649 -0.724365
O82   O     O_3   0.363145 0.035138 0.770347 -0.724366
O83   O     O_3   0.636856 0.035137 0.229651 -0.724367
O84   O     O_3   0.044374 0.456804 0.636460 -0.714542
O85   O     O_3   0.955625 0.456805 0.363541 -0.714543
O86   O     O_3   0.544374 0.956804 0.636459 -0.714543
O87   O     O_3   0.455626 0.956804 0.363541 -0.714543
O88   O     O_3   0.132183 0.439137 0.745209 -0.704334
O89   O     O_R   0.450080 0.499990 0.997700 -0.581769
O90   O     O_3   0.867815 0.439140 0.254796 -0.704334
O91   O     O_3   0.632184 0.939137 0.745206 -0.704335
O92   O     O_3   0.367816 0.939138 0.254795 -0.704334

loop_
_geom_bond_atom_site_label_1
_geom_bond_atom_site_label_2
_ccdc_geom_bond_type
C147  O81   S    
C21   C26   A    
C11   C171  S    
C157  C158  A    
C40   O74   S    
C270  C274  A    
C9    C169  S    
Cu7   O21   S    
C104  C108  A    
C260  C264  A    
C38   O72   S    
C44   O30   A    
C54   O5    A    
C179  C195  S    
C19   C200  S    
C81   H42   S    
C89   C99   A    
C257  C261  A    
H79   O52   S    
Cu8   Cu9   S    
C34   C96   S    
C259  C263  A    
H6    O86   S    
C183  N16   T    
C139  C142  A    
C208  H98   S    
H85   O59   S    
C29   C33   A    
C119  C130  A    
C220  O17   A    
C53   C251  S    
C89   C94   A    
C15   H38   S    
C149  C153  A    
C137  C141  A    
C262  C271  A    
C253  C258  A    
H74   O48   S    
C204  C208  A    
C159  N1    T    
C184  N17   T    
C161  C241  S    
C160  N12   T    
C136  C140  A    
C71   C82   A    
Cu3   O42   S    
C76   C146  S    
H9    O90   S    
C80   C83   A    
C50   C248  S    
Cu6   O19   S    
C123  H53   S    
C25   C29   A    
C27   C31   A    
C28   C32   A    
C4    C252  A    
Cu11  O30   S    
C94   C97   A    
C132  C137  A    
C115  C148  A    
C138  C141  A    
Cu8   O22   S    
C64   C66   A    
C154  C222  A    
C19   C23   A    
C50   O45   A    
C205  H65   S    
C190  C224  A    
C273  H30   S    
C121  C187  S    
C101  C219  S    
C70   C181  S    
C122  C188  S    
H90   O63   S    
C16   C20   A    
C227  H15   S    
C169  N2    T    
C150  C265  A    
C59   C69   A    
C256  H26   S    
C24   C225  S    
C111  C189  S    
C82   C84   A    
C22   C27   A    
C240  C245  A    
C187  N20   T    
C60   C180  S    
C13   C224  S    
Cu5   O17   S    
C103  C107  A    
H91   O64   S    
C269  H35   S    
C74   C111  A    
C1    O1    A    
C264  C273  A    
H77   O50   S    
C140  C142  A    
C274  O53   S    
C47   O39   A    
C195  N28   T    
C185  N18   T    
C95   C97   A    
C43   C244  S    
Cu8   O36   S    
C21   C172  S    
H89   O62   S    
C59   C63   A    
C27   O59   S    
C60   C64   A    
H96   O70   S    
C8    C30   A    
H11   O92   S    
C231  O50   S    
Cu1   O14   S    
C133  H59   S    
C36   O26   A    
C254  C259  A    
C42   C233  S    
C275  O54   S    
H5    O85   S    
C57   O86   S    
C121  C123  A    
Cu4   O43   S    
C61   C65   A    
C58   C67   A    
Cu2   O56   S    
C217  O14   A    
Cu2   O6    S    
C243  C248  A    
C20   C25   A    
C63   O64   S    
C155  C233  A    
C40   C77   A    
C87   O66   S    
C239  C243  A    
C100  C117  A    
C113  C157  A    
H10   O91   S    
C52   C250  S    
C136  H61   S    
C166  C260  S    
C227  C231  A    
Cu1   Cu6   S    
C208  C213  A    
C168  C199  A    
C7    C256  A    
C209  H2    S    
H103  O76   S    
C48   O40   A    
C120  C127  A    
C181  N14   T    
C23   C174  S    
C152  C268  A    
C270  H27   S    
C33   C264  S    
C78   H40   S    
C138  H63   S    
C56   C176  S    
C134  H60   S    
C177  N10   T    
C114  C147  A    
H78   O51   S    
C222  C266  A    
C79   C217  S    
C13   C57   A    
C201  O90   S    
C173  N6    T    
C53   O4    A    
C95   O79   S    
C229  C234  A    
C92   O75   S    
C5    C253  A    
C206  C210  A    
C72   C78   A    
C156  C244  A    
C51   O56   A    
Cu9   O37   S    
C35   O84   S    
C83   C98   S    
C215  O47   S    
C139  H64   S    
C88   O68   S    
H95   O69   S    
C6    C276  A    
C41   C222  S    
C49   O42   A    
C227  C249  A    
C126  C129  A    
Cu1   O1    S    
C188  N21   T    
Cu12  O2    S    
C258  C262  A    
C137  H62   S    
C231  C236  A    
C116  C149  A    
H106  O80   S    
C220  O21   A    
C11   C33   A    
C105  H49   S    
C134  C139  A    
C55   O7    A    
C190  C202  A    
C226  C230  A    
C268  H34   S    
C156  H69   S    
C211  O13   A    
C68   O87   S    
H80   O53   S    
C165  C259  S    
C207  H87   S    
C147  C151  A    
C38   C267  A    
C127  C129  A    
H86   O60   S    
C219  O16   A    
C25   C175  S    
C140  H66   S    
Cu11  O33   S    
C154  H67   S    
C8    C12   A    
Cu4   O3    S    
C261  C270  A    
C229  C251  A    
C23   C28   A    
C82   H44   S    
C219  O20   A    
C36   C97   S    
C102  C117  A    
C26   C30   A    
C132  H58   S    
C197  N30   T    
C112  O10   A    
C232  C237  A    
C155  H68   S    
C211  O34   A    
C116  C193  S    
Cu3   O67   S    
C212  H13   S    
C122  C131  A    
C199  O88   S    
C22   C173  S    
H97   O71   S    
C245  C249  A    
C114  C191  S    
C214  O46   S    
C18   C22   A    
C59   C178  S    
C148  C152  A    
C66   C86   S    
C45   O37   A    
C54   O6    A    
C226  C248  A    
C48   C117  S    
Cu7   O20   S    
C247  C251  A    
Cu5   Cu7   S    
C51   O2    A    
C57   C101  A    
C79   C124  A    
H88   O61   S    
C1    C17   S    
C237  C241  A    
C55   C69   S    
C122  C125  A    
H92   O65   S    
H82   O55   S    
H7    O87   S    
C90   C135  A    
C16   H39   S    
C60   C69   A    
C256  C260  A    
C29   O61   S    
C108  C110  A    
C197  C198  S    
C210  H12   S    
C90   C218  S    
C45   O36   A    
C214  C223  A    
C62   O63   S    
C91   C95   A    
C276  O55   S    
C201  C205  A    
Cu7   O13   S    
C91   C99   A    
C70   C85   A    
H101  O74   S    
C88   C98   A    
C267  H33   S    
C106  C109  A    
C246  H20   S    
C58   C62   A    
C74   C124  S    
C37   C74   A    
C216  O48   S    
Cu4   O8    S    
C271  H28   S    
C39   O73   S    
C215  C224  A    
C164  N33   T    
C15   C19   A    
C163  N32   T    
C171  N4    T    
Cu2   Cu12  S    
C18   C112  S    
C3    C7    A    
C218  O15   A    
C104  H48   S    
Cu6   O9    S    
C75   C135  S    
C13   C244  A    
Cu11  O39   S    
C53   O78   A    
C76   C115  A    
C234  C238  A    
C34   O22   A    
C105  C109  A    
C213  C221  A    
C78   C83   A    
C230  O49   S    
C179  C201  A    
C5    C236  S    
C12   C17   A    
C112  O12   A    
Cu3   Cu4   S    
C200  O11   A    
C1    O9    A    
C162  C242  S    
C196  N29   T    
C168  C221  A    
C113  C220  S    
C228  C250  A    
C68   C113  A    
C87   C98   A    
C132  C143  A    
C63   C66   A    
C133  C138  A    
Cu9   O28   S    
C87   C92   A    
C3    O57   S    
C253  H24   S    
C45   C141  S    
C102  H46   S    
H72   O46   S    
C252  C257  A    
C3    C273  A    
C104  C118  A    
C254  H25   S    
C43   O33   A    
C6    C237  S    
C243  H18   S    
C61   O62   S    
C241  C246  A    
C34   O24   A    
Cu12  O5    S    
H81   O54   S    
Cu10  O35   S    
C129  C144  S    
C39   C268  A    
C176  N9    T    
Cu10  O29   S    
C167  N36   T    
C32   C263  S    
C9    C14   A    
C119  C185  S    
Cu3   O7    S    
Cu5   O23   S    
C8    C167  S    
H3    O83   S    
C11   C16   A    
H104  O77   S    
C42   O28   A    
C7    C238  S    
C272  C276  A    
C230  C235  A    
C152  H32   S    
C37   C265  A    
C46   O85   S    
Cu4   O78   S    
H108  O82   S    
C115  C192  S    
C151  C267  A    
Cu2   O41   S    
H94   O68   S    
C226  H14   S    
C103  C118  A    
C41   O27   A    
Cu6   O18   S    
C228  C232  A    
Cu1   O12   S    
C170  N3    T    
C163  C257  S    
C175  N8    T    
C84   C99   S    
C235  C239  A    
C162  N31   T    
C80   H41   S    
C72   C183  S    
C153  H43   S    
Cu5   O16   S    
C72   C86   A    
C44   C255  S    
C46   C90   A    
C10   C170  S    
C216  C225  A    
Cu9   O31   S    
C151  H21   S    
C30   C261  S    
C4    C274  A    
C26   O58   S    
C50   O89   A    
C136  C144  A    
Cu2   O89   S    
Cu10  Cu11  S    
H75   O49   S    
C161  N23   T    
C186  N19   T    
H4    O84   S    
C128  C143  S    
C17   C21   A    
H99   O72   S    
C24   C68   A    
Cu12  O40   S    
C204  H54   S    
C252  H23   S    
C52   O67   A    
H84   O58   S    
C198  C203  A    
C159  C239  S    
C56   C61   A    
C64   O65   S    
C165  N34   T    
C178  N11   T    
C218  O19   A    
C210  C215  A    
C247  H22   S    
C124  C154  A    
C41   O31   A    
C164  C258  S    
H8    O88   S    
C14   C18   A    
C92   C96   A    
Cu12  O45   S    
C40   C269  A    
C2    C46   A    
C271  C275  A    
C125  H55   S    
C47   C142  S    
C100  C105  A    
C28   O60   S    
C31   C262  S    
C120  C130  A    
C108  H52   S    
C10   C15   A    
C111  C145  A    
C191  N24   T    
C14   H37   S    
Cu1   O15   S    
C43   O29   A    
C36   O25   A    
C189  N22   T    
H107  O81   S    
C135  C155  A    
C6    C254  A    
C20   C211  S    
C35   C79   A    
C182  N15   T    
C70   C81   A    
C158  C255  A    
Cu11  O26   S    
C221  C266  S    
C2    C233  A    
C180  N13   T    
C71   C85   A    
C193  N26   T    
C213  O44   S    
C212  C216  A    
C148  O82   S    
C228  H16   S    
C125  C128  A    
C192  N25   T    
C77   C116  A    
C174  N7    T    
C37   O71   S    
C198  C225  A    
C190  C196  S    
H71   O44   S    
C44   O35   A    
C172  N5    T    
C52   O3    A    
C168  C194  S    
C71   C182  S    
H102  O75   S    
C121  C131  A    
C89   O69   S    
H100  O73   S    
C38   C75   A    
C234  O52   S    
C101  C146  A    
C133  C143  A    
C48   O41   A    
C42   O32   A    
C106  H50   S    
C110  C131  S    
C229  H17   S    
C127  H57   S    
C232  O51   S    
C206  H76   S    
C73   C184  S    
Cu7   O11   S    
C54   C67   S    
H73   O47   S    
C203  C207  A    
C236  C240  A    
C179  C223  A    
C200  O23   A    
C24   C255  A    
C209  C214  A    
C10   C32   A    
Cu10  O38   S    
C49   C118  S    
C205  C209  A    
Cu9   O24   S    
H105  O79   S    
H93   O66   S    
C75   C114  A    
C39   C76   A    
C12   H36   S    
C166  N35   T    
C49   O43   A    
C5    C275  A    
C217  O18   A    
C263  C272  A    
C93   C96   A    
C203  O92   S    
C103  H47   S    
C207  C212  A    
C4    C235  S    
C272  H29   S    
C47   O38   A    
H83   O57   S    
C81   C84   A    
C134  C144  A    
Cu3   O4    S    
C246  C250  A    
Cu10  O25   S    
C88   C93   A    
C149  O83   S    
C160  C240  S    
C62   C65   A    
C265  H31   S    
Cu8   O27   S    
C153  C269  A    
C145  C150  A    
C120  C186  S    
C55   O8    A    
C145  O80   S    
C65   C85   S    
C56   C67   A    
C202  O91   S    
C238  C242  A    
C242  C247  A    
C93   O76   S    
C158  H70   S    
C91   O70   S    
Cu6   O10   S    
C123  C128  A    
C199  C204  A    
C126  H56   S    
C194  N27   T    
Cu8   O32   S    
C2    C223  S    
C107  C110  A    
C73   C80   A    
C102  C106  A    
C58   C177  S    
C35   C266  A    
Cu5   O34   S    
C51   C249  S    
C73   C86   A    
C107  H51   S    
C9    C31   A    
C245  H19   S    
C146  C156  A    
C202  C206  A    
C94   O77   S    
C109  C130  S    
C150  H1    S    
C119  C126  A    
C77   C157  S    
C100  H45   S    
