data_mof_unit_6169.cif
_audit_creation_date              2012-10-26T19:03:57-0400
_audit_creation_method            fapswitch 2.2
_symmetry_space_group_name_H-M    P1
_symmetry_Int_Tables_number       1
_space_group_crystal_system       triclinic
_cell_length_a                    15.891826
_cell_length_b                    13.006586
_cell_length_c                    11.741017
_cell_angle_alpha                 99.512955
_cell_angle_beta                  92.7917
_cell_angle_gamma                 92.166851
_cell_volume                      2388.04349608

loop_
_atom_site_label
_atom_site_type_symbol
_atom_type_description
_atom_site_fract_x
_atom_site_fract_y
_atom_site_fract_z
_atom_type_partial_charge
C1    C     C_R   0.502970 0.299538 0.478488 0.601600
C2    C     C_R   0.507696 0.185986 0.464847 -0.034861
C3    C     C_R   0.521961 0.016421 0.345599 0.228801
C4    C     C_R   0.340445 0.499785 0.501074 0.584669
C5    C     C_R   0.536093 0.125763 0.363125 0.207996
C6    C     C_R   0.480145 0.137082 0.554373 -0.130643
C7    C     C_R   0.480744 0.029566 0.545509 -0.004974
C8    C     C_R   0.502651 0.968254 0.441518 -0.000751
C9    C     C_R   0.508073 0.860846 0.438016 -0.085303
C10   C     C_R   0.456729 0.874775 0.632277 0.017632
C11   C     C_R   0.457274 0.982881 0.638998 -0.103412
C12   C     C_3   0.950551 0.410448 0.579951 0.122100
C13   C     C_R   0.422393 0.392477 0.027814 0.201912
C14   C     C_R   0.427336 0.410550 0.149053 0.123617
C15   C     C_R   0.540467 0.533875 0.154533 0.106838
C16   C     C_R   0.496123 0.700404 0.521297 0.564245
C17   C     C_R   0.536719 0.523813 0.031830 -0.034877
C18   C     C_R   0.472239 0.458137 0.966974 -0.071118
C19   C     C_R   0.460807 0.461035 0.845639 0.133075
C20   C     C_R   0.580025 0.579562 0.853503 0.134727
C21   C     C_R   0.595342 0.577907 0.973357 0.210904
C22   C     C_R   0.659538 0.499733 0.498890 0.562707
C23   C     C_3   0.915843 0.484990 0.497812 -0.093594
C24   C     C_3   0.049723 0.428132 0.599683 0.120948
C25   C     C_3   0.046491 0.432582 0.382570 0.029473
C26   C     C_3   0.947969 0.448425 0.373206 0.082027
C27   C     C_1   0.748564 0.494836 0.496187 0.122654
C28   C     C_3   0.083414 0.490979 0.505405 -0.081803
C29   C     C_2   0.421061 0.831427 0.729703 0.318922
C30   C     C_2   0.379619 0.420838 0.786624 0.393074
C31   C     C_2   0.628732 0.655262 0.799851 0.389181
C32   C     C_3   0.953476 0.597466 0.542557 -0.248738
C33   C     C_3   0.048206 0.604104 0.519814 0.094558
C34   C     C_1   0.823678 0.489629 0.495461 0.112959
C35   C     C_1   0.175695 0.495653 0.505115 0.111897
C36   C     C_1   0.251135 0.498041 0.503430 0.131294
C37   C     C_R   0.486526 0.813364 0.532208 0.018759
Cu1   Cu    Cu3+1 0.506190 0.507730 0.615930 1.084685
Cu2   Cu    Cu3+1 0.493810 0.492270 0.384070 1.078977
H1    H     H_    0.940285 0.330508 0.530477 0.203593
H2    H     H_    0.940386 0.515741 0.326517 0.128063
H3    H     H_    0.052609 0.630082 0.434457 0.126113
H4    H     H_    0.943882 0.619050 0.636321 0.258103
H5    H     H_    0.050239 0.562544 0.905427 0.386638
H6    H     H_    0.815853 0.503659 0.820254 0.392511
H7    H     H_    0.427933 0.876321 0.816483 0.124565
H8    H     H_    0.493944 0.974838 0.028855 0.374845
H9    H     H_    0.706822 0.082633 0.266035 0.371141
H10   H     H_    0.322281 0.456639 0.815987 0.159759
H11   H     H_    0.685064 0.632893 0.755411 0.142437
H12   H     H_    0.920612 0.655336 0.498331 0.144451
H13   H     H_    0.331264 0.128289 0.017414 0.394431
H14   H     H_    0.815257 0.690451 0.008649 0.400601
H15   H     H_    0.039004 0.142386 0.360304 0.399632
H16   H     H_    0.761414 0.346678 0.186594 0.415604
H17   H     H_    0.105171 0.879498 0.623581 0.391869
H18   H     H_    0.532833 0.813776 0.363499 0.197567
H19   H     H_    0.436912 0.030786 0.716494 0.162024
H20   H     H_    0.459633 0.183068 0.632729 0.219252
H21   H     H_    0.075764 0.349402 0.581562 0.182481
H22   H     H_    0.388443 0.364039 0.196139 0.197971
H23   H     H_    0.586801 0.585321 0.207815 0.200689
H24   H     H_    0.074329 0.473573 0.316112 0.128756
N1    N     N_R   0.515490 0.519350 0.790130 -0.289282
N2    N     N_R   0.484510 0.480650 0.209890 -0.284876
O1    O     O_R   0.504390 0.354460 0.582000 -0.468620
O2    O     O_2   0.175243 0.533513 0.748119 -0.243460
O3    O     O_3   0.026077 0.553023 0.824806 -0.399426
O4    O     O_2   0.809082 0.335605 0.660976 -0.262030
O5    O     O_2   0.934728 0.346737 0.789813 -0.140235
O6    O     O_3   0.860543 0.518462 0.768532 -0.492084
O7    O     O_2   0.379009 0.749325 0.713572 -0.421024
O8    O     O_2   0.599856 0.899311 0.176857 -0.196513
O9    O     O_2   0.450156 0.855320 0.192297 -0.280950
O10   O     O_3   0.489201 0.019320 0.105138 -0.415054
O11   O     O_2   0.549189 0.226155 0.180950 -0.170747
O12   O     O_R   0.493940 0.341410 0.386200 -0.453056
O13   O     O_2   0.655232 0.273042 0.340787 -0.272622
O14   O     O_3   0.667982 0.098932 0.203543 -0.397154
O15   O     O_2   0.374919 0.345620 0.709063 -0.436364
O16   O     O_2   0.608787 0.745941 0.811409 -0.457319
O17   O     O_2   0.281252 0.295240 0.917719 -0.218777
O18   O     O_2   0.416688 0.219358 0.866019 -0.272533
O19   O     O_3   0.357463 0.194255 0.061337 -0.464551
O20   O     O_2   0.676286 0.720348 0.139463 -0.221701
O21   O     O_2   0.731919 0.546605 0.103076 -0.257065
O22   O     O_3   0.762826 0.671563 0.959263 -0.511348
O23   O     O_R   0.384660 0.506540 0.597940 -0.463296
O24   O     O_2   0.082125 0.271670 0.214924 -0.153132
O25   O     O_2   0.169070 0.289769 0.393092 -0.287454
O26   O     O_3   0.018284 0.211203 0.393496 -0.478640
O27   O     O_2   0.922863 0.308424 0.171830 -0.152305
O28   O     O_2   0.860280 0.258151 0.343137 -0.198694
O29   O     O_3   0.791051 0.400578 0.246012 -0.468139
O30   O     O_2   0.079576 0.717163 0.738671 -0.169047
O31   O     O_2   0.196886 0.707680 0.609930 -0.228843
O32   O     O_3   0.073159 0.822364 0.570994 -0.491718
O33   O     O_R   0.374210 0.493480 0.402140 -0.519733
O34   O     O_R   0.506060 0.658590 0.613800 -0.459298
O35   O     O_R   0.495610 0.645540 0.418000 -0.523686
O36   O     O_R   0.625790 0.506520 0.597860 -0.546558
O37   O     O_R   0.615340 0.493460 0.402060 -0.461506
O38   O     O_2   0.105950 0.381904 0.804943 -0.187985
S1    S     S_3+6 0.091800 0.475086 0.747003 0.113056
S2    S     S_3+6 0.888202 0.400412 0.703743 0.083690
S3    S     S_3+6 0.515723 0.943297 0.202715 0.077040
S4    S     S_3+6 0.602386 0.184439 0.270709 0.113400
S5    S     S_3+6 0.367820 0.273726 0.962871 0.051372
S6    S     S_3+6 0.692931 0.630470 0.046949 0.030966
S7    S     S_3+6 0.081045 0.298999 0.344271 0.056123
S8    S     S_3+6 0.881424 0.347658 0.281877 0.110798
S9    S     S_3+6 0.102866 0.712165 0.615660 0.077130

loop_
_geom_bond_atom_site_label_1
_geom_bond_atom_site_label_2
_ccdc_geom_bond_type
C4    C36   S    
C12   H1    S    
C4    O33   A    
H6    O6    S    
C1    O12   A    
C35   C36   T    
Cu2   O35   S    
C7    C8    A    
C25   C28   S    
C7    C11   A    
O31   S9    D    
C12   C23   S    
C22   O36   A    
C13   C18   A    
C10   C37   A    
C33   H3    S    
Cu2   O12   S    
O26   S7    S    
C18   C19   A    
Cu1   O36   S    
O20   S6    D    
O30   S9    D    
C13   S5    S    
C12   S2    S    
C15   N2    A    
O29   S8    S    
O18   S5    D    
C1    C2    S    
C25   H24   S    
C23   C26   S    
H13   O19   S    
C15   H23   S    
Cu1   O1    S    
C28   C35   S    
C8    C9    A    
O17   S5    D    
C11   H19   S    
C16   C37   S    
C29   O7    D    
C30   O15   D    
C27   C34   T    
C13   C14   A    
Cu2   N2    S    
C2    C6    A    
H17   O32   S    
H16   O29   S    
O2    S1    D    
C1    O1    A    
Cu1   N1    S    
C3    S3    S    
C24   C28   S    
O21   S6    D    
C3    C8    A    
O32   S9    S    
O4    S2    D    
C16   O35   A    
Cu2   O33   S    
C25   C26   S    
C14   H22   S    
O24   S7    D    
C17   C21   A    
Cu1   O23   S    
O13   S4    D    
C24   S1    S    
C20   N1    A    
C32   H12   S    
O9    S3    D    
C19   N1    A    
C24   H21   S    
C23   C34   S    
C9    C37   A    
C17   C18   A    
O14   S4    S    
H14   O22   S    
C33   S9    S    
C25   S7    S    
O28   S8    D    
C4    O23   A    
C30   H10   S    
C28   C33   S    
O11   S4    D    
C22   C27   S    
O6    S2    S    
H5    O3    S    
C2    C5    A    
O25   S7    D    
C31   H11   S    
H9    O14   S    
Cu2   O37   S    
C5    S4    S    
C15   C17   A    
C14   N2    A    
C6    H20   S    
C16   O34   A    
O3    S1    S    
Cu1   O34   S    
C3    C5    A    
O5    S2    D    
C31   O16   D    
C21   S6    S    
O27   S8    D    
C6    C7    A    
O22   S6    S    
C12   C24   S    
C22   O37   A    
C29   H7    S    
C23   C32   S    
H8    O10   S    
H15   O26   S    
C32   C33   S    
C10   C29   S    
O8    S3    D    
Cu1   Cu2   S    
O19   S5    S    
C32   H4    S    
C9    H18   S    
C10   C11   A    
C20   C21   A    
O10   S3    S    
O38   S1    D    
C19   C30   S    
C26   S8    S    
C26   H2    S    
C20   C31   S    
