data_mof_unit_20415.cif
_audit_creation_date              2012-12-10T18:42:29-0500
_audit_creation_method            fapswitch 2.2
_symmetry_space_group_name_H-M    P1
_symmetry_Int_Tables_number       1
_space_group_crystal_system       triclinic
_cell_length_a                    8.551228
_cell_length_b                    10.726675
_cell_length_c                    9.92671
_cell_angle_alpha                 89.296422
_cell_angle_beta                  97.327478
_cell_angle_gamma                 92.920598
_cell_volume                      901.915398555

loop_
_atom_site_label
_atom_site_type_symbol
_atom_type_description
_atom_site_fract_x
_atom_site_fract_y
_atom_site_fract_z
_atom_type_partial_charge
C1    C     C_R   0.507307 0.260616 0.500991 0.882615
C2    C     C_R   0.492947 0.739401 0.499038 0.881155
C3    C     C_R   0.201778 0.498973 0.465054 0.969660
C4    C     C_R   0.798219 0.500997 0.534948 0.968915
C5    C     C_2   0.037045 0.493431 0.446450 -0.343052
C6    C     C_2   0.962940 0.506059 0.553627 -0.358306
C7    C     C_R   0.561416 0.064370 0.391602 -0.017443
C8    C     C_R   0.439013 0.935650 0.608475 -0.016086
C9    C     C_R   0.544439 0.936377 0.390351 -0.217039
C10   C     C_R   0.456499 0.063619 0.609931 -0.226974
C11   C     C_R   0.487195 0.872000 0.498392 -0.083349
C12   C     C_R   0.513315 0.128019 0.501710 -0.086305
C13   C     C_R   0.608895 0.574023 0.078379 0.477702
C14   C     C_R   0.391054 0.425796 0.921441 0.474997
C15   C     C_R   0.606944 0.572031 0.935903 -0.197648
C16   C     C_R   0.392960 0.428084 0.064074 -0.206230
H1    H     H_    0.976811 0.477204 0.344972 0.223920
H2    H     H_    0.023171 0.521965 0.655185 0.223614
H3    H     H_    0.581919 0.887181 0.306375 0.214282
H4    H     H_    0.419583 0.112790 0.694176 0.216167
H5    H     H_    0.692203 0.628506 0.886964 0.213778
H6    H     H_    0.307583 0.371885 0.113159 0.209887
N1    N     N_R   0.499960 0.499970 0.857200 -0.179301
N2    N     N_R   0.500040 0.500030 0.142800 -0.180258
O1    O     O_R   0.499990 0.316750 0.614620 -0.569832
O2    O     O_R   0.500010 0.683250 0.385380 -0.581217
O3    O     O_R   0.499990 0.316780 0.385290 -0.628289
O4    O     O_R   0.500010 0.683220 0.614710 -0.626559
O5    O     O_R   0.271750 0.499990 0.587840 -0.549705
O6    O     O_R   0.728250 0.500010 0.412160 -0.556157
O7    O     O_R   0.271750 0.500010 0.358510 -0.627192
O8    O     O_R   0.728250 0.499990 0.641490 -0.629537
Zn1   Zn    Zn3+2 0.500000 0.499980 0.653120 1.015873
Zn2   Zn    Zn3+2 0.500000 0.500020 0.346880 1.017194
C17   C     C_R   0.634996 0.126317 0.279081 0.140993
C18   C     C_R   0.558497 0.118682 0.145291 -0.106383
C19   C     C_R   0.629021 0.174680 0.038674 -0.153061
C20   C     C_R   0.776700 0.237565 0.064605 -0.085240
C21   C     C_R   0.854454 0.244228 0.197149 -0.095077
C22   C     C_R   0.783694 0.189498 0.304457 -0.131713
H7    H     H_    0.443970 0.070203 0.123974 0.157327
H8    H     H_    0.569256 0.169387 0.935904 0.161724
H9    H     H_    0.831095 0.280622 0.981879 0.195560
H10   H     H_    0.970088 0.291043 0.216368 0.147235
H11   H     H_    0.845068 0.195253 0.406788 0.113394
C23   C     C_R   0.364946 0.873751 0.720798 0.132881
C24   C     C_R   0.216565 0.810123 0.695018 -0.125410
C25   C     C_R   0.145354 0.755496 0.802148 -0.087924
C26   C     C_R   0.222377 0.762640 0.934924 -0.104239
C27   C     C_R   0.369735 0.825960 0.961260 -0.135876
C28   C     C_R   0.440598 0.881972 0.854821 -0.093776
H12   H     H_    0.155764 0.803972 0.592507 0.127401
H13   H     H_    0.029916 0.708411 0.782620 0.147536
H14   H     H_    0.167612 0.719667 0.017507 0.189564
H15   H     H_    0.428937 0.831648 0.064214 0.164668
H16   H     H_    0.554711 0.931004 0.876416 0.162659
S1    S     S_3+6 0.766109 0.674447 0.156706 -0.018635
O9    O     O_2   0.763092 0.707210 0.302067 -0.297532
O10   O     O_2   0.918053 0.614136 0.143263 -0.359355
O11   O     O_3   0.765231 0.808707 0.067207 -0.625272
H17   H     H_    0.866293 0.854096 0.100510 0.387524
S2    S     S_3+6 0.232893 0.325399 0.843259 -0.011795
O12   O     O_2   0.234446 0.205536 0.923500 -0.365356
O13   O     O_2   0.082289 0.386531 0.859622 -0.356537
O14   O     O_3   0.227940 0.286303 0.680193 -0.546277
H18   H     H_    0.127738 0.236090 0.657819 0.361705

loop_
_geom_bond_atom_site_label_1
_geom_bond_atom_site_label_2
_ccdc_geom_bond_type
C14   N1    A    
C3    O7    A    
C24   H12   S    
S2    O13   D    
C27   H15   S    
O1    Zn1   S    
C1    O3    A    
O8    Zn1   S    
S2    O12   D    
C15   N1    A    
C17   C22   A    
S1    O9    D    
O7    Zn2   S    
C4    O6    A    
C20   H9    S    
C16   N2    A    
C1    O1    A    
C9    C11   A    
C3    O5    A    
C18   H7    S    
C4    O8    A    
C1    C12   S    
C10   C12   A    
C8    C11   A    
C5    C6    D    
C28   H16   S    
C8    C10   A    
C18   C19   A    
C19   C20   A    
C9    H3    S    
O4    Zn1   S    
C27   C28   A    
C8    C23   S    
C13   C15   A    
O3    Zn2   S    
C25   H13   S    
C6    H2    S    
C26   C27   A    
C14   C16   A    
C7    C12   A    
S1    O10   D    
C4    C6    S    
C5    H1    S    
C2    C11   S    
C21   H10   S    
C26   H14   S    
C14   S2    S    
O5    Zn1   S    
C15   H5    S    
C13   S1    S    
C22   H11   S    
C2    O2    A    
O14   H18   S    
C10   H4    S    
C19   H8    S    
C7    C9    A    
O6    Zn2   S    
C21   C22   A    
C25   C26   A    
S1    O11   S    
C2    O4    A    
S2    O14   S    
C3    C5    S    
C23   C24   A    
C7    C17   S    
C23   C28   A    
O2    Zn2   S    
N2    Zn2   S    
C24   C25   A    
C13   N2    A    
C16   H6    S    
O11   H17   S    
N1    Zn1   S    
C17   C18   A    
C20   C21   A    
