data_mof_unit_11477.cif
_audit_creation_date              2012-12-10T17:02:30-0500
_audit_creation_method            fapswitch 2.2
_symmetry_space_group_name_H-M    P1
_symmetry_Int_Tables_number       1
_space_group_crystal_system       triclinic
_cell_length_a                    10.772059
_cell_length_b                    11.02465
_cell_length_c                    9.840004
_cell_angle_alpha                 111.506241
_cell_angle_beta                  97.851633
_cell_angle_gamma                 91.099878
_cell_volume                      1073.98224917

loop_
_atom_site_label
_atom_site_type_symbol
_atom_type_description
_atom_site_fract_x
_atom_site_fract_y
_atom_site_fract_z
_atom_type_partial_charge
C1    C     C_R   0.489423 0.253652 0.439903 0.769676
C2    C     C_R   0.508003 0.746350 0.560169 0.768616
C3    C     C_2   0.480815 0.113085 0.404222 0.086925
C4    C     C_2   0.509186 0.886853 0.596012 0.089057
C5    C     C_2   0.475793 0.069032 0.513371 -0.196918
C6    C     C_2   0.472760 0.930294 0.487553 -0.199954
C7    C     C_2   0.510660 0.510691 0.081319 -0.031202
C8    C     C_2   0.489360 0.489277 0.918665 -0.032992
C9    C     C_R   0.263131 0.500259 0.501616 0.782965
C10   C     C_R   0.736855 0.499722 0.498378 0.788698
C11   C     C_R   0.140663 0.737784 0.554960 -0.118467
C12   C     C_R   0.859225 0.262116 0.444582 -0.109073
C13   C     C_R   0.081024 0.853122 0.577470 -0.129018
C14   C     C_R   0.918892 0.146794 0.422144 -0.114709
C15   C     C_R   0.951420 0.852277 0.572613 -0.123244
C16   C     C_R   0.048542 0.147725 0.427454 -0.135355
C17   C     C_R   0.880993 0.736096 0.545299 -0.130169
C18   C     C_R   0.118979 0.263944 0.454988 -0.136758
C19   C     C_R   0.939736 0.617757 0.522404 0.061618
C20   C     C_R   0.060223 0.382240 0.477656 0.065988
C21   C     C_R   0.071004 0.618599 0.527223 0.067612
C22   C     C_R   0.928932 0.381359 0.472628 0.062887
C23   C     C_R   0.870252 0.499184 0.495391 -0.166588
C24   C     C_R   0.129713 0.500799 0.504593 -0.164590
Cu1   Cu    Cu3+1 0.521920 0.521810 0.644910 0.990058
Cu2   Cu    Cu3+1 0.478080 0.478190 0.355090 0.987456
H1    H     H_    0.094765 0.058073 0.409832 0.144472
H2    H     H_    0.905229 0.941963 0.590382 0.150434
H3    H     H_    0.241587 0.743209 0.560184 0.123864
H4    H     H_    0.758242 0.256625 0.439051 0.133019
H5    H     H_    0.135696 0.943463 0.599089 0.143706
H6    H     H_    0.864217 0.056400 0.400274 0.150676
H7    H     H_    0.780452 0.740101 0.542322 0.127008
H8    H     H_    0.219538 0.260006 0.458309 0.118345
H9    H     H_    0.441742 0.861065 0.375796 0.207038
H10   H     H_    0.476091 0.137798 0.625526 0.201865
H11   H     H_    0.416417 0.416397 0.845639 0.156604
H12   H     H_    0.583630 0.583542 0.154330 0.163399
H13   H     H_    0.623384 0.623284 0.934581 0.217181
H14   H     H_    0.376578 0.376757 0.065433 0.212287
N1    N     N_2   0.445130 0.445420 0.137360 -0.271118
N2    N     N_2   0.554870 0.554580 0.862640 -0.268413
O1    O     O_R   0.511700 0.332340 0.577400 -0.603557
O2    O     O_R   0.488300 0.667660 0.422600 -0.605676
O3    O     O_R   0.474680 0.295500 0.332650 -0.520038
O4    O     O_R   0.525320 0.704500 0.667350 -0.518655
O5    O     O_R   0.338170 0.518410 0.622370 -0.573824
O6    O     O_R   0.661830 0.481590 0.377630 -0.569534
O7    O     O_R   0.301150 0.481570 0.377630 -0.566387
O8    O     O_R   0.698850 0.518430 0.622370 -0.562533
Br1   Br    Br    0.566323 0.002192 0.797958 -0.457699
Br2   Br    Br    0.481502 0.998700 0.201533 -0.464985

loop_
_geom_bond_atom_site_label_1
_geom_bond_atom_site_label_2
_ccdc_geom_bond_type
Cu1   N2    S    
C19   C23   A    
C3    Br2   S    
C9    C24   S    
C10   C23   S    
C11   C13   A    
Cu1   O5    S    
C2    C4    S    
Cu2   O6    S    
C3    C5    D    
Cu1   O1    S    
C16   H1    S    
C7    N1    D    
C12   C14   A    
Cu2   O2    S    
C7    C8    S    
C2    O4    A    
C18   H8    S    
C1    O3    A    
C15   H2    S    
C17   H7    S    
C16   C18   A    
H14   N1    S    
C19   C21   A    
C7    H12   S    
C8    N2    D    
C9    O5    A    
H13   N2    S    
C18   C20   A    
C13   C15   A    
C10   O6    A    
C5    C6    S    
C14   C16   A    
Cu2   O7    S    
C8    H11   S    
C4    Br1   S    
C11   C21   A    
C10   O8    A    
C5    H10   S    
C12   C22   A    
C9    O7    A    
C6    H9    S    
C11   H3    S    
C4    C6    D    
C21   C24   A    
C14   H6    S    
C15   C17   A    
C13   H5    S    
Cu1   O8    S    
C17   C19   A    
Cu2   O3    S    
C12   H4    S    
Cu1   Cu2   S    
C22   C23   A    
Cu1   O4    S    
C1    O1    A    
C2    O2    A    
C20   C24   A    
Cu2   N1    S    
C20   C22   A    
C1    C3    S    
