data_mof_unit_41287.cif
_audit_creation_date              2012-10-26T19:53:27-0400
_audit_creation_method            fapswitch 2.2
_symmetry_space_group_name_H-M    P1
_symmetry_Int_Tables_number       1
_space_group_crystal_system       triclinic
_cell_length_a                    9.090597
_cell_length_b                    7.811166
_cell_length_c                    10.692625
_cell_angle_alpha                 90.601522
_cell_angle_beta                  90.022473
_cell_angle_gamma                 90.014442
_cell_volume                      759.221724712

loop_
_atom_site_label
_atom_site_type_symbol
_atom_type_description
_atom_site_fract_x
_atom_site_fract_y
_atom_site_fract_z
_atom_type_partial_charge
C1    C     C_R   0.220131 0.499988 0.500022 0.552365
C2    C     C_3   0.632048 0.537065 0.049935 -0.191034
C3    C     C_3   0.509422 0.504517 0.876859 0.042984
C4    C     C_3   0.490578 0.495483 0.123141 0.042984
C5    C     C_1   0.065402 0.499984 0.500004 -0.008972
C6    C     C_1   0.934598 0.500016 0.499996 -0.008972
C7    C     C_2   0.283619 0.739659 0.076632 0.253193
C8    C     C_2   0.716381 0.260341 0.923368 0.253192
C9    C     C_2   0.597137 0.832727 0.938482 0.222309
C10   C     C_2   0.402863 0.167272 0.061518 0.222308
C11   C     C_R   0.779869 0.500012 0.499978 0.552365
C12   C     C_R   0.493017 0.498716 0.259217 0.583191
C13   C     C_R   0.506983 0.501284 0.740783 0.583191
C14   C     C_3   0.401344 0.615114 0.039356 -0.019065
C15   C     C_3   0.598656 0.384886 0.960644 -0.019064
C16   C     C_3   0.541378 0.656639 0.965181 -0.005889
C17   C     C_3   0.458622 0.343361 0.034819 -0.005889
C18   C     C_3   0.367952 0.462935 0.950065 -0.191034
Cu1   Cu    Cu3+1 0.500000 0.669080 0.500000 1.131765
Cu2   Cu    Cu3+1 0.500000 0.330920 0.500000 1.131765
H1    H     H_    0.259169 0.432858 0.907835 0.118792
H2    H     H_    0.740831 0.567142 0.092165 0.118792
H3    H     H_    0.230560 0.816040 0.005564 0.104277
H4    H     H_    0.769441 0.183961 0.994436 0.104278
H5    H     H_    0.621129 0.918324 0.016189 0.101786
H6    H     H_    0.378869 0.081677 0.983811 0.101785
N1    N     N_1   0.500000 0.076820 0.500000 -0.039064
N2    N     N_1   0.500000 0.923180 0.500000 -0.039064
O1    O     O_R   0.288390 0.642760 0.500000 -0.487630
O2    O     O_2   0.754962 0.245924 0.814531 -0.451353
O3    O     O_2   0.618790 0.879845 0.831770 -0.452058
O4    O     O_2   0.381212 0.120153 0.168230 -0.452059
O5    O     O_R   0.711610 0.357240 0.500000 -0.487629
O6    O     O_R   0.711610 0.642760 0.500000 -0.500902
O7    O     O_R   0.288390 0.357240 0.500000 -0.500903
O8    O     O_R   0.499960 0.642760 0.316850 -0.480923
O9    O     O_R   0.500040 0.357240 0.683150 -0.480923
O10   O     O_R   0.500040 0.642760 0.683150 -0.473770
O11   O     O_R   0.499960 0.357240 0.316850 -0.473770
O12   O     O_2   0.245036 0.754074 0.185469 -0.451353

loop_
_geom_bond_atom_site_label_1
_geom_bond_atom_site_label_2
_ccdc_geom_bond_type
C2    H2    S    
C2    C4    S    
C7    O12   D    
C2    C15   S    
Cu2   N1    S    
Cu2   O9    S    
C12   O8    A    
C18   H1    S    
C2    C16   S    
C14   C18   S    
C13   O9    A    
Cu1   Cu2   S    
C3    C13   S    
C8    O2    D    
C10   H6    S    
C12   O11   A    
C1    O1    A    
C17   C18   S    
C9    H5    S    
Cu1   N2    S    
C13   O10   A    
C7    H3    S    
C4    C17   S    
C8    H4    S    
C9    C16   S    
C8    C15   S    
C14   C16   S    
Cu1   O8    S    
C6    C11   S    
C4    C14   S    
C5    C6    T    
C1    C5    S    
C4    C12   S    
C9    O3    D    
C10   C17   S    
Cu1   O1    S    
C10   O4    D    
C11   O5    A    
Cu1   O10   S    
C3    C15   S    
C1    O7    A    
C3    C18   S    
Cu2   O5    S    
N1    N2    T    
C15   C17   S    
Cu2   O11   S    
Cu2   O7    S    
C11   O6    A    
C7    C14   S    
C3    C16   S    
Cu1   O6    S    
