data_mof_unit_32106.cif
_audit_creation_date              2013-03-05T15:53:27-0500
_audit_creation_method            fapswitch 2.2
_symmetry_space_group_name_H-M    P1
_symmetry_Int_Tables_number       1
_space_group_crystal_system       triclinic
_cell_length_a                    24.33662
_cell_length_b                    17.22317
_cell_length_c                    15.523828
_cell_angle_alpha                 89.830967
_cell_angle_beta                  128.55811
_cell_angle_gamma                 89.980893
_cell_volume                      5088.17744218

loop_
_atom_site_label
_atom_site_type_symbol
_atom_site_description
_atom_site_fract_x
_atom_site_fract_y
_atom_site_fract_z
_atom_type_partial_charge
C1    C     C_R   0.837700 0.878777 0.210997 -0.204057
C2    C     C_R   0.162422 0.878566 0.789291 -0.207025
C3    C     C_R   0.337527 0.379189 0.210638 -0.207095
C4    C     C_R   0.667196 0.392736 0.801298 -0.198496
H1    H     H_    0.784872 0.873656 0.183981 0.118629
H2    H     H_    0.215228 0.873206 0.816225 0.118202
H3    H     H_    0.284730 0.374138 0.183812 0.117891
H4    H     H_    0.720016 0.394745 0.827668 0.111119
N1    N     N_R   0.888400 0.921830 0.294620 -0.062847
N2    N     N_R   0.111600 0.921830 0.705380 -0.062185
N3    N     N_R   0.388400 0.421830 0.294620 -0.062111
N4    N     N_R   0.611600 0.421830 0.705380 -0.063433
C5    C     C_R   0.087162 0.855110 0.408972 -0.103498
C6    C     C_R   0.912988 0.855005 0.591480 -0.102569
C7    C     C_R   0.586943 0.354623 0.409548 -0.101490
C8    C     C_R   0.414770 0.354570 0.592639 -0.087336
H5    H     H_    0.055136 0.835663 0.325792 0.133488
H6    H     H_    0.944985 0.835371 0.674812 0.134518
H7    H     H_    0.555010 0.335093 0.326399 0.133814
H8    H     H_    0.448478 0.335565 0.676953 0.129854
N5    N     N_R   0.079940 0.922160 0.443410 -0.034305
N6    N     N_R   0.920060 0.922160 0.556590 -0.034248
N7    N     N_R   0.579940 0.422160 0.443410 -0.033717
N8    N     N_R   0.420060 0.422160 0.556590 -0.029788
C9    C     C_R   0.165060 0.857880 0.591486 -0.115475
C10   C     C_R   0.835137 0.858020 0.408928 -0.114388
C11   C     C_R   0.663624 0.356829 0.592507 -0.118062
C12   C     C_R   0.336116 0.357238 0.409712 -0.117473
H9    H     H_    0.208596 0.844139 0.675475 0.089130
H10   H     H_    0.791653 0.844488 0.325025 0.089217
H11   H     H_    0.704658 0.342064 0.677679 0.097503
H12   H     H_    0.292718 0.343160 0.325952 0.090410
N9    N     N_R   0.125650 0.922400 0.556620 -0.044573
N10   N     N_R   0.874350 0.922400 0.443380 -0.044142
N11   N     N_R   0.625650 0.422400 0.556620 -0.045299
N12   N     N_R   0.374350 0.422400 0.443380 -0.045278
C13   C     C_R   0.072718 0.881296 0.793520 0.276306
C14   C     C_R   0.927384 0.881598 0.206678 0.275880
C15   C     C_R   0.577112 0.395980 0.804528 0.277799
C16   C     C_R   0.427259 0.381856 0.206418 0.275772
N13   N     N_R   0.054230 0.922730 0.705400 -0.085894
N14   N     N_R   0.945770 0.922730 0.294600 -0.086274
N15   N     N_R   0.554230 0.422730 0.705400 -0.087676
N16   N     N_R   0.445770 0.422730 0.294600 -0.085752
C17   C     C_R   0.862800 0.847496 0.159810 0.035275
C18   C     C_R   0.137399 0.847116 0.840612 0.036507
C19   C     C_R   0.362510 0.348062 0.159207 0.036892
C20   C     C_R   0.647590 0.375232 0.865854 0.007820
C21   C     C_R   0.140058 0.813315 0.499684 0.030207
C22   C     C_R   0.860242 0.813333 0.501008 0.029109
C23   C     C_R   0.639248 0.312374 0.500719 0.030569
C24   C     C_R   0.362043 0.312490 0.502381 0.024696
C25   C     C_R   0.811366 0.101374 0.409186 -0.156695
C26   C     C_R   0.188378 0.102678 0.591941 -0.138842
C27   C     C_R   0.311552 0.602261 0.408545 -0.141573
C28   C     C_R   0.688351 0.602269 0.591486 -0.140764
H13   H     H_    0.763746 0.092472 0.326272 0.107661
H14   H     H_    0.235625 0.094897 0.675650 0.102924
H15   H     H_    0.264145 0.593992 0.325254 0.104424
H16   H     H_    0.735708 0.593889 0.674921 0.103181
N17   N     N_R   0.873790 0.077030 0.443380 -0.045339
N18   N     N_R   0.126210 0.077030 0.556620 -0.045388
N19   N     N_R   0.373790 0.577030 0.443380 -0.046299
N20   N     N_R   0.626210 0.577030 0.556620 -0.045408
C29   C     C_R   0.942197 0.140584 0.241980 -0.096745
C30   C     C_R   0.073646 0.112735 0.796651 -0.106367
C31   C     C_R   0.426159 0.612663 0.202882 -0.106148
C32   C     C_R   0.573682 0.612791 0.796658 -0.106672
H17   H     H_    0.979478 0.155808 0.228701 0.104842
H18   H     H_    0.043178 0.113061 0.825700 0.129314
H19   H     H_    0.456570 0.612780 0.173730 0.129815
H20   H     H_    0.543192 0.613317 0.825658 0.134483
N21   N     N_R   0.945200 0.076700 0.294600 -0.038877
N22   N     N_R   0.054800 0.076700 0.705400 -0.044531
N23   N     N_R   0.445200 0.576700 0.294600 -0.044482
N24   N     N_R   0.554800 0.576700 0.705400 -0.043397
C33   C     C_R   0.164437 0.113832 0.794259 -0.116648
C34   C     C_R   0.850773 0.141411 0.243286 -0.120532
C35   C     C_R   0.664502 0.613683 0.794369 -0.117734
C36   C     C_R   0.335378 0.613808 0.205245 -0.116723
H21   H     H_    0.216543 0.115903 0.817720 0.088593
H22   H     H_    0.803006 0.155812 0.230609 0.095405
H23   H     H_    0.716628 0.615596 0.817888 0.088292
H24   H     H_    0.283212 0.615822 0.181601 0.089059
N25   N     N_R   0.111030 0.077600 0.705380 -0.050394
N26   N     N_R   0.888970 0.077600 0.294620 -0.050274
N27   N     N_R   0.611030 0.577600 0.705380 -0.050519
N28   N     N_R   0.388970 0.577600 0.294620 -0.050334
C37   C     C_R   0.885304 0.104426 0.592102 -0.098956
C38   C     C_R   0.115546 0.104144 0.408928 -0.112112
C39   C     C_R   0.385165 0.604688 0.591712 -0.091215
C40   C     C_R   0.614900 0.604745 0.408284 -0.100451
H25   H     H_    0.905782 0.101608 0.676972 0.116392
H26   H     H_    0.096249 0.100440 0.324759 0.120399
H27   H     H_    0.405385 0.601893 0.676446 0.123506
H28   H     H_    0.594870 0.601945 0.323662 0.116622
N29   N     N_R   0.919490 0.077280 0.556590 -0.040532
N30   N     N_R   0.080510 0.077280 0.443410 -0.041143
N31   N     N_R   0.419490 0.577280 0.556590 -0.039079
N32   N     N_R   0.580510 0.577280 0.443410 -0.040852
Ni1   Ni    Ni4+2 0.882160 0.999430 0.370180 0.204469
Ni2   Ni    Ni4+2 0.117840 0.999430 0.629820 0.200894
Ni3   Ni    Ni4+2 0.382160 0.499430 0.370180 0.201555
Ni4   Ni    Ni4+2 0.617840 0.499430 0.629820 0.197735
Ni5   Ni    Ni4+2 0.012460 0.999430 0.370180 0.284844
Ni6   Ni    Ni4+2 0.987540 0.999430 0.629820 0.278778
Ni7   Ni    Ni4+2 0.512460 0.499430 0.370180 0.278984
Ni8   Ni    Ni4+2 0.487540 0.499430 0.629820 0.283949
C41   C     C_R   0.816548 0.119306 0.500475 0.058617
C42   C     C_R   0.183858 0.120217 0.501160 0.055340
C43   C     C_R   0.316543 0.619949 0.499711 0.048187
C44   C     C_R   0.683429 0.620085 0.500345 0.053976
C45   C     C_R   0.883927 0.183302 0.210799 0.122513
C46   C     C_R   0.142830 0.135748 0.854649 0.120790
C47   C     C_R   0.356836 0.635551 0.144503 0.119687
C48   C     C_R   0.642926 0.635598 0.854787 0.117896
C49   C     C_R   0.852229 0.709576 0.603845 0.107139
C50   C     C_R   0.147815 0.709657 0.397006 0.106278
C51   C     C_R   0.353050 0.210147 0.605672 0.107493
C52   C     C_R   0.647612 0.208668 0.398410 0.109298
C53   C     C_R   0.833870 0.738428 0.504470 0.049871
C54   C     C_R   0.166520 0.738394 0.496456 0.049873
C55   C     C_R   0.335580 0.237770 0.506386 0.049744
C56   C     C_R   0.666158 0.237531 0.497772 0.047238
C57   C     C_R   0.780070 0.700515 0.406354 -0.186458
C58   C     C_R   0.220578 0.700230 0.594642 -0.186987
C59   C     C_R   0.281951 0.199447 0.408511 -0.186121
C60   C     C_R   0.720867 0.200015 0.596133 -0.186290
H29   H     H_    0.767676 0.716112 0.328399 0.122644
H30   H     H_    0.233271 0.715744 0.672704 0.122689
H31   H     H_    0.270106 0.214249 0.330714 0.122864
H32   H     H_    0.733846 0.215825 0.674284 0.130025
C61   C     C_R   0.235400 0.151088 0.407600 -0.190984
C62   C     C_R   0.766963 0.151108 0.596551 -0.191982
C63   C     C_R   0.734010 0.651479 0.405680 -0.190471
C64   C     C_R   0.266465 0.651010 0.595080 -0.189986
H33   H     H_    0.189293 0.130367 0.329134 0.137620
H34   H     H_    0.813809 0.131067 0.675037 0.139007
H35   H     H_    0.687639 0.631158 0.327205 0.137581
H36   H     H_    0.313003 0.630455 0.673531 0.138534
C65   C     C_R   0.243429 0.140781 0.504877 0.043203
C66   C     C_R   0.757529 0.139535 0.498356 0.041400
C67   C     C_R   0.742746 0.640243 0.503401 0.043090
C68   C     C_R   0.257356 0.639942 0.497082 0.044352
C69   C     C_R   0.307526 0.162025 0.604834 0.150800
C70   C     C_R   0.692664 0.159913 0.398842 0.159943
C71   C     C_R   0.807200 0.660763 0.603222 0.152154
C72   C     C_R   0.192702 0.660685 0.397425 0.152644
C73   C     C_3   0.823956 0.696624 0.704924 -0.518504
C74   C     C_3   0.175473 0.696600 0.295158 -0.517503
C75   C     C_3   0.323340 0.199343 0.705108 -0.514796
C76   C     C_3   0.675050 0.195483 0.296169 -0.528705
C77   C     C_3   0.872924 0.750280 0.705468 -0.418416
C78   C     C_3   0.126657 0.750442 0.294795 -0.418568
C79   C     C_3   0.372864 0.252257 0.705859 -0.420668
C80   C     C_3   0.626139 0.249175 0.295794 -0.422384
H37   H     H_    0.778729 0.727920 0.690054 0.208475
H38   H     H_    0.220486 0.727736 0.309279 0.208360
H39   H     H_    0.277698 0.230976 0.688410 0.207932
H40   H     H_    0.719857 0.226752 0.309765 0.203056
H41   H     H_    0.851977 0.655721 0.776019 0.195181
H42   H     H_    0.147315 0.655801 0.224412 0.195613
H43   H     H_    0.350894 0.159192 0.777038 0.194814
H44   H     H_    0.646936 0.154404 0.225745 0.197065
H45   H     H_    0.855029 0.811765 0.690728 0.216164
H46   H     H_    0.144440 0.811852 0.308878 0.216137
H47   H     H_    0.355000 0.313802 0.689479 0.217223
H48   H     H_    0.643725 0.310647 0.309390 0.216396
H49   H     H_    0.929056 0.740462 0.777132 0.218533
H50   H     H_    0.070463 0.740854 0.223535 0.218721
H51   H     H_    0.428820 0.242750 0.778430 0.212051
H52   H     H_    0.569941 0.239309 0.224727 0.217634
H53   H     H_    0.787046 0.280583 0.177138 0.132065
H54   H     H_    0.282295 0.139242 0.993419 0.130754
H55   H     H_    0.217359 0.636015 0.004370 0.131228
H56   H     H_    0.782418 0.638719 0.993712 0.129585
H57   H     H_    0.208933 0.736155 0.833295 0.140742
H58   H     H_    0.788913 0.737642 0.163545 0.139865
H59   H     H_    0.789250 0.375248 0.007193 0.132181
H60   H     H_    0.288747 0.238169 0.163147 0.139826
C81   C     C_2   0.167003 0.778308 0.910141 -0.143520
C82   C     C_2   0.832898 0.779456 0.089526 -0.143681
C83   C     C_2   0.694909 0.348117 0.980662 -0.112380
C84   C     C_2   0.332553 0.280070 0.088874 -0.143869
C85   C     C_2   0.201803 0.727311 0.895151 -0.158955
C86   C     C_2   0.796958 0.728914 0.102773 -0.157869
C87   C     C_2   0.764715 0.348161 0.038701 -0.141668
C88   C     C_2   0.296717 0.229488 0.102281 -0.158166
H61   H     H_    0.878656 0.271803 0.103574 0.133251
H62   H     H_    0.163102 0.200467 0.993396 0.131978
H63   H     H_    0.335869 0.700435 0.004891 0.132082
H64   H     H_    0.663289 0.700128 0.993719 0.131916
C89   C     C_2   0.859318 0.256102 0.148275 -0.206356
C90   C     C_2   0.187530 0.168693 0.964690 -0.182605
C91   C     C_2   0.311813 0.667807 0.033673 -0.181598
C92   C     C_2   0.687679 0.668345 0.964958 -0.180694
C93   C     C_2   0.806957 0.296254 0.133359 -0.106311
C94   C     C_2   0.256965 0.169799 0.021198 -0.108999
C95   C     C_2   0.242294 0.667457 0.976460 -0.109307
C96   C     C_2   0.757128 0.669299 0.021544 -0.108548
H65   H     H_    0.161028 0.768746 0.973079 0.180977
H66   H     H_    0.839833 0.769885 0.027727 0.181259
H67   H     H_    0.672280 0.318567 0.013753 0.173963
H68   H     H_    0.339412 0.270527 0.026984 0.181054
N33   N     N_R   0.041993 0.892059 0.847093 0.221114
O1    O     O_R   0.061519 0.849564 0.931318 -0.405315
O2    O     O_R   0.996882 0.947825 0.815388 -0.424056
N34   N     N_R   0.958052 0.892691 0.153033 0.221804
O3    O     O_R   0.939134 0.850093 0.069587 -0.405976
O4    O     O_R   0.002565 0.948808 0.183982 -0.416335
N35   N     N_R   0.541473 0.412125 0.849299 0.222194
O5    O     O_R   0.559515 0.377337 0.938046 -0.399669
O6    O     O_R   0.489229 0.460960 0.799592 -0.437609
N36   N     N_R   0.458239 0.392666 0.153198 0.221279
O7    O     O_R   0.438771 0.350651 0.068993 -0.406063
O8    O     O_R   0.503564 0.448028 0.185228 -0.423798

loop_
_geom_bond_atom_site_label_1
_geom_bond_atom_site_label_2
_geom_bond_distance
_ccdc_geom_bond_type
C16   C19   1.386522 A    
C76   H40   1.112584 S    
C7    H7    1.065576 S    
N23   Ni7   1.849938 S    
C84   H68   1.085726 S    
C27   H15   1.079236 S    
C77   H49   1.112014 S    
C66   C70   1.399287 A    
C52   C80   1.500952 S    
C68   C72   1.399506 A    
C35   N27   1.323863 A    
C31   N23   1.340802 A    
H57   C85   1.087295 S    
C6    C22   1.376415 A    
N33   O1    1.300247 A    
C2    C18   1.378946 A    
C61   H33   1.081273 S    
N31   Ni8   1.864237 S    
C26   C42   1.376081 A    
N1    N14   1.396479 A    
N8    N12   1.374380 A    
N30   Ni5   1.869850 S    
C14   N34   1.435642 S    
C87   C93   1.457331 S    
N12   Ni3   1.829771 S    
C1    H1    1.079230 S    
H64   C92   1.087610 S    
C18   C81   1.452927 S    
C8    H8    1.073316 S    
C71   C73   1.497922 S    
C72   C74   1.497667 S    
C14   N14   1.345210 A    
N4    N15   1.396466 A    
C3    H3    1.079443 S    
C10   C22   1.383264 A    
C50   C54   1.401491 A    
C24   C55   1.457665 S    
N36   O8    1.301123 A    
N5    N9    1.374416 A    
C58   H30   1.081955 S    
C30   N22   1.340766 A    
C37   C41   1.385394 A    
C52   C70   1.377491 A    
C40   H28   1.080639 S    
C29   N21   1.342922 A    
C78   H50   1.112009 S    
C25   N17   1.326080 A    
C82   C86   1.337449 D    
C39   C43   1.386359 A    
C4    H4    1.079491 S    
C73   C77   1.504171 S    
C14   C17   1.386480 A    
N19   N31   1.374411 A    
H60   C88   1.087221 S    
N18   N30   1.374379 A    
C60   C62   1.399396 A    
N21   Ni5   1.849938 S    
C64   H36   1.081182 S    
C10   N10   1.339473 A    
C76   C80   1.504223 S    
C79   H47   1.112454 S    
N34   O3    1.300250 A    
C9    C21   1.384231 A    
C27   N19   1.323842 A    
C51   C79   1.499819 S    
C28   N20   1.323026 A    
C41   C66   1.458159 S    
N8    Ni8   1.855656 S    
C7    C23   1.378546 A    
N15   Ni8   1.836138 S    
C4    N4    1.335119 A    
C74   H38   1.112377 S    
C92   C96   1.333340 D    
C56   C60   1.407473 A    
C77   H45   1.112419 S    
C57   C63   1.398553 A    
C7    N7    1.331750 A    
C58   C64   1.398452 A    
C8    N8    1.330789 A    
C35   C48   1.383404 A    
C36   N28   1.324186 A    
N2    N13   1.396466 A    
C37   H25   1.080579 S    
C23   C56   1.459358 S    
C86   C96   1.438222 S    
C2    H2    1.079221 S    
C22   C53   1.456802 S    
C29   C45   1.388564 A    
H56   C96   1.084206 S    
N6    N10   1.374380 A    
C60   H32   1.081711 S    
C30   C46   1.383976 A    
C11   C23   1.386168 A    
C17   C82   1.453129 S    
C38   H26   1.080495 S    
C91   C95   1.333460 D    
N33   O2    1.301130 A    
C9    H9    1.074463 S    
C74   H42   1.111848 S    
N17   N29   1.374411 A    
H54   C94   1.084176 S    
N10   Ni1   1.829771 S    
N13   Ni6   1.836137 S    
H53   C93   1.085861 S    
N9    Ni2   1.834532 S    
C48   C92   1.453740 S    
C8    C24   1.378525 A    
C12   H12   1.074718 S    
C1    N1    1.329271 A    
N19   Ni3   1.848350 S    
N11   Ni4   1.834533 S    
C36   H24   1.080138 S    
C81   C85   1.337645 D    
N36   O7    1.300227 A    
C40   C44   1.387432 A    
C15   N15   1.348264 A    
C26   N18   1.323844 A    
H63   C91   1.087640 S    
C11   N11   1.339262 A    
N6    Ni6   1.855655 S    
C11   H11   1.077950 S    
C80   H52   1.112113 S    
C84   C88   1.337380 D    
C37   N29   1.337039 A    
C75   H39   1.112503 S    
C54   C58   1.407064 A    
C42   C65   1.458341 S    
N17   Ni1   1.848350 S    
C53   C57   1.407479 A    
C79   H51   1.112065 S    
C63   C67   1.407172 A    
C62   C66   1.407699 A    
C34   H22   1.079809 S    
C55   C59   1.407848 A    
N35   O5    1.300254 A    
C36   C47   1.383469 A    
C33   H21   1.079963 S    
C32   H20   1.081556 S    
N7    Ni7   1.850050 S    
C15   N35   1.437024 S    
N3    N16   1.396479 A    
C69   C75   1.497864 S    
C32   N24   1.341037 A    
C85   C95   1.438070 S    
N24   N27   1.368732 A    
H55   C95   1.084341 S    
C76   H44   1.111890 S    
C43   C68   1.456485 S    
C32   C48   1.383916 A    
C5    C21   1.375459 A    
N29   Ni6   1.864238 S    
N1    Ni1   1.848348 S    
N35   O6    1.300712 A    
C67   C71   1.400030 A    
N7    N11   1.374416 A    
C57   H29   1.081939 S    
C49   C77   1.500050 S    
C70   C76   1.497274 S    
C34   C45   1.389740 A    
C73   H41   1.111869 S    
C38   C42   1.387737 A    
C49   C53   1.400912 A    
C33   C46   1.383614 A    
C2    N2    1.329294 A    
N28   Ni3   1.857186 S    
C40   N32   1.337608 A    
C4    C20   1.384657 A    
N25   Ni2   1.862120 S    
C26   H14   1.079312 S    
N16   Ni7   1.841886 S    
C25   C41   1.378197 A    
N20   Ni4   1.843591 S    
C47   C91   1.453697 S    
N32   Ni7   1.869850 S    
C25   H13   1.079371 S    
C46   C90   1.453631 S    
C27   C43   1.377954 A    
C82   H66   1.085714 S    
C45   C89   1.463065 S    
C6    H6    1.065679 S    
C81   H65   1.085833 S    
C59   C61   1.399335 A    
C38   N30   1.339924 A    
C19   C84   1.452831 S    
C88   C94   1.437861 S    
C62   H34   1.081219 S    
C20   C83   1.468611 S    
N4    Ni4   1.843412 S    
C51   C55   1.400478 A    
C51   C69   1.377417 A    
C63   H35   1.081248 S    
C75   H43   1.111947 S    
C75   C79   1.505531 S    
C5    H5    1.065430 S    
C49   C71   1.376677 A    
C83   H67   1.085149 S    
C6    N6    1.331693 A    
C59   H31   1.082018 S    
C50   C72   1.376689 A    
N20   N32   1.374379 A    
C64   C68   1.407535 A    
N34   O4    1.301191 A    
C5    N5    1.330768 A    
C35   H23   1.079996 S    
C12   C24   1.386787 A    
C1    C17   1.379201 A    
C90   C94   1.333256 D    
C13   N33   1.435664 S    
C44   C67   1.456619 S    
C29   H17   1.080474 S    
C21   C54   1.456843 S    
N2    Ni2   1.843412 S    
C3    C19   1.379136 A    
C65   C69   1.400446 A    
C89   C93   1.336529 D    
C50   C78   1.500309 S    
C31   H19   1.081703 S    
N22   Ni6   1.855698 S    
N22   N25   1.368732 A    
C13   N13   1.345279 A    
N14   Ni5   1.841885 S    
C31   C47   1.383621 A    
N21   N26   1.368727 A    
C3    N3    1.328900 A    
H62   C90   1.087620 S    
C33   N25   1.323811 A    
N27   Ni4   1.862118 S    
H58   C86   1.087218 S    
H61   C89   1.087310 S    
N23   N28   1.368727 A    
C16   N16   1.345214 A    
C28   H16   1.079176 S    
C30   H18   1.081680 S    
C12   N12   1.340306 A    
C39   H27   1.080483 S    
N24   Ni8   1.855696 S    
C34   N26   1.333301 A    
C74   C78   1.504058 S    
C16   N36   1.435751 S    
H59   C87   1.084591 S    
C80   H48   1.112516 S    
C78   H46   1.112426 S    
N3    Ni3   1.848348 S    
C61   C65   1.407354 A    
C39   N31   1.336761 A    
C13   C18   1.386053 A    
N26   Ni1   1.857186 S    
C73   H37   1.112399 S    
C28   C44   1.377122 A    
N5    Ni5   1.850050 S    
C83   C87   1.337810 D    
C52   C56   1.402444 A    
C9    N9    1.340256 A    
C15   C20   1.392101 A    
N18   Ni2   1.843592 S    
C10   H10   1.074411 S    
