data_mof_unit_68363.cif
_audit_creation_date              2013-03-05T15:41:22-0500
_audit_creation_method            fapswitch 2.2
_symmetry_space_group_name_H-M    P1
_symmetry_Int_Tables_number       1
_space_group_crystal_system       triclinic
_cell_length_a                    7.912782
_cell_length_b                    8.970927
_cell_length_c                    10.721498
_cell_angle_alpha                 91.680365
_cell_angle_beta                  84.313525
_cell_angle_gamma                 91.589878
_cell_volume                      756.758451707

loop_
_atom_site_label
_atom_site_type_symbol
_atom_site_description
_atom_site_fract_x
_atom_site_fract_y
_atom_site_fract_z
_atom_type_partial_charge
O1    O     O_R   0.389250 0.738570 0.508370 -0.594777
O2    O     O_R   0.678390 0.711620 0.486510 -0.657338
C1    C     C_R   0.541797 0.793734 0.490976 0.940555
O3    O     O_R   0.355430 0.513500 0.696140 -0.627498
O4    O     O_R   0.644580 0.486550 0.674270 -0.631843
C2    C     C_R   0.501284 0.501265 0.742723 0.805581
Zn1   Zn    Zn3+2 0.306940 0.517990 0.514600 0.934014
Zn2   Zn    Zn3+2 0.693060 0.482010 0.485400 0.917252
O5    O     O_R   0.321610 0.288380 0.513490 -0.639811
O6    O     O_R   0.610750 0.261430 0.491630 -0.612339
O7    O     O_R   0.355420 0.513450 0.325730 -0.641625
O8    O     O_R   0.644570 0.486500 0.303860 -0.640369
C3    C     C_R   0.455519 0.207533 0.499631 0.883541
C4    C     C_R   0.502075 0.515291 0.259950 0.836474
C5    C     C_3   0.356813 0.615299 0.939422 -0.131263
H1    H     H_    0.235831 0.565315 0.910044 0.135709
C6    C     C_3   0.343817 0.601527 0.084555 -0.441985
H2    H     H_    0.230619 0.528769 0.112275 0.165166
H3    H     H_    0.344005 0.328220 0.928464 0.176439
H4    H     H_    0.394602 0.295667 0.124566 0.166150
C7    C     C_3   0.478761 0.361595 0.935506 -0.455556
C8    C     C_3   0.682374 0.580847 0.921304 -0.419266
C9    C     C_3   0.506712 0.518026 0.880834 0.119492
H5    H     H_    0.781509 0.498855 0.888238 0.165070
H6    H     H_    0.733660 0.685455 0.879778 0.158222
C10   C     C_3   0.504303 0.524045 0.124553 0.144222
C11   C     C_3   0.500337 0.362049 0.074524 -0.444346
C12   C     C_3   0.674384 0.597426 0.065506 -0.132678
H7    H     H_    0.778032 0.525197 0.090173 0.132185
H8    H     H_    0.570765 0.282920 0.886200 0.186667
H9    H     H_    0.621862 0.308185 0.087819 0.176717
C13   C     C_2   0.556865 0.955554 0.478828 -0.433105
H10   H     H_    0.684760 0.001548 0.460637 0.196014
C14   C     C_2   0.423327 0.049095 0.496777 -0.196083
N1    N     N_2   0.950330 0.457950 0.465890 -0.197800
H11   H     H_    0.015891 0.394861 0.396391 0.183763
N2    N     N_2   0.049670 0.542050 0.534110 -0.193647
H12   H     H_    0.984500 0.595568 0.609362 0.190391
C15   C     C_R   0.239721 0.004077 0.521015 0.207320
C16   C     C_R   0.133662 0.067707 0.621903 -0.082532
C17   C     C_R   0.979424 0.002504 0.661518 -0.195251
C18   C     C_R   0.922118 0.883491 0.593066 -0.142173
C19   C     C_R   0.005167 0.845897 0.474586 -0.096837
C20   C     C_R   0.163432 0.908440 0.437727 -0.136790
H13   H     H_    0.166313 0.166403 0.673335 0.141125
H14   H     H_    0.907495 0.041471 0.746879 0.132037
H15   H     H_    0.814258 0.823680 0.635364 0.152689
H16   H     H_    0.957149 0.760481 0.414021 0.184424
H17   H     H_    0.234302 0.869588 0.351807 0.119001
C21   C     C_R   0.361338 0.775039 0.893954 0.142052
C22   C     C_R   0.226645 0.868050 0.934828 -0.193598
C23   C     C_R   0.229178 0.016233 0.899527 -0.132661
C24   C     C_R   0.366433 0.070407 0.820632 -0.128840
C25   C     C_R   0.499417 0.981415 0.778855 -0.165369
C26   C     C_R   0.491339 0.833105 0.807843 -0.092619
H18   H     H_    0.118366 0.823559 0.990076 0.142175
H19   H     H_    0.122889 0.086768 0.928901 0.124973
H20   H     H_    0.367367 0.178090 0.780506 0.107206
H21   H     H_    0.603167 0.025649 0.716592 0.134747
H22   H     H_    0.583755 0.766588 0.755576 0.095188
H23   H     H_    0.313102 0.705936 0.138047 0.141484
C27   C     C_R   0.719781 0.754539 0.115552 0.138901
C28   C     C_R   0.609833 0.875962 0.120767 -0.147821
C29   C     C_R   0.655002 0.013625 0.172631 -0.154626
C30   C     C_R   0.818550 0.040078 0.205852 -0.108022
C31   C     C_R   0.932848 0.924530 0.194790 -0.166930
C32   C     C_R   0.880833 0.780752 0.158135 -0.175651
H24   H     H_    0.489040 0.869828 0.086197 0.150228
H25   H     H_    0.562018 0.099340 0.186486 0.125792
H26   H     H_    0.856393 0.149435 0.240206 0.132084
H27   H     H_    0.062340 0.946797 0.213696 0.122661
H28   H     H_    0.970692 0.691761 0.156545 0.103336

loop_
_geom_bond_atom_site_label_1
_geom_bond_atom_site_label_2
_geom_bond_distance
_ccdc_geom_bond_type
C20   H17   1.083595 S    
C5    H1    1.115507 S    
O4    Zn2   2.022723 S    
C19   C20   1.383912 A    
O6    C3    1.303254 A    
C17   C18   1.370139 A    
C24   C25   1.370219 A    
N2    H12   1.027591 S    
H4    C11   1.115625 S    
C19   H16   1.075517 S    
C25   C26   1.373482 A    
C10   C12   1.565820 S    
C31   H27   1.076247 S    
C24   H20   1.068489 S    
Zn2   N1    2.042511 S    
Zn2   O8    2.022546 S    
C6    H23   1.103996 S    
C13   H10   1.083920 S    
C5    C9    1.562236 S    
C6    H2    1.114824 S    
Zn1   N2    2.042511 S    
C3    C14   1.436977 S    
C25   H21   1.079762 S    
C8    C12   1.544059 S    
C29   H25   1.075977 S    
C4    C10   1.454417 S    
C30   C31   1.389276 A    
Zn1   O7    2.022722 S    
C13   C14   1.362779 D    
C10   C11   1.534846 S    
C27   C28   1.409229 A    
C17   H14   1.082947 S    
C27   C32   1.407169 A    
C5    C6    1.557549 S    
O3    Zn1   2.022547 S    
O4    C2    1.295928 A    
C6    C10   1.566541 S    
C29   C30   1.388258 A    
Zn2   O6    2.066868 S    
C12   H7    1.115766 S    
H3    C7    1.108710 S    
O8    C4    1.299287 A    
C21   C22   1.399831 A    
O2    C1    1.320975 A    
C18   H15   1.064955 S    
C7    C9    1.538563 S    
C7    C11   1.516817 S    
C1    C13   1.461827 S    
O7    C4    1.296819 A    
C8    H5    1.115188 S    
C23   H19   1.082717 S    
C2    C9    1.488720 S    
C15   C20   1.389615 A    
C11   H9    1.111516 S    
C22   C23   1.391873 A    
C32   H28   1.082363 S    
C31   C32   1.400123 A    
C16   H13   1.068482 S    
O3    C2    1.310698 A    
C22   H18   1.067036 S    
C7    H8    1.112628 S    
C5    C21   1.525489 S    
C15   C16   1.417963 A    
Zn1   O5    2.065916 S    
O5    C3    1.294591 A    
C28   H24   1.058330 S    
C16   C17   1.372687 A    
O1    Zn1   2.066870 S    
N1    N2    1.330686 D    
C30   H26   1.082649 S    
C26   H22   1.062184 S    
C14   C15   1.496709 S    
C8    H6    1.100513 S    
C8    C9    1.581011 S    
O2    Zn2   2.065916 S    
C21   C26   1.411439 A    
C18   C19   1.407456 A    
C23   C24   1.394273 A    
C28   C29   1.391652 A    
O1    C1    1.290103 A    
N1    H11   1.029376 S    
C12   C27   1.539232 S    
