data_mof_unit_58421.cif
_audit_creation_date              2012-12-11T17:36:18-0500
_audit_creation_method            fapswitch 2.2
_symmetry_space_group_name_H-M    P1
_symmetry_Int_Tables_number       1
_space_group_crystal_system       triclinic
_cell_length_a                    25.957723
_cell_length_b                    6.887517
_cell_length_c                    21.58033
_cell_angle_alpha                 90.000262
_cell_angle_beta                  96.073427
_cell_angle_gamma                 89.999744
_cell_volume                      3836.5675555

loop_
_atom_site_label
_atom_site_type_symbol
_atom_type_description
_atom_site_fract_x
_atom_site_fract_y
_atom_site_fract_z
_atom_type_partial_charge
O1    O     O_R   0.208650 0.594520 0.175450 -0.542142
O2    O     O_R   0.791350 0.405480 0.824550 -0.535683
O3    O     O_R   0.291350 0.094520 0.324550 -0.542142
O4    O     O_R   0.708650 0.905480 0.675450 -0.535710
O5    O     O_R   0.192980 0.260780 0.300160 -0.541282
O6    O     O_R   0.807020 0.739220 0.699840 -0.543899
O7    O     O_R   0.307020 0.760780 0.199840 -0.541282
O8    O     O_R   0.692980 0.239220 0.800160 -0.543944
C1    C     C_R   0.178066 0.433515 0.317514 0.704275
C2    C     C_R   0.822133 0.566674 0.682957 0.701501
C3    C     C_R   0.321934 0.933515 0.182486 0.704272
C4    C     C_R   0.677867 0.066675 0.817042 0.701214
O9    O     O_R   0.202550 0.264660 0.174420 -0.537905
O10   O     O_R   0.797450 0.735340 0.825580 -0.542983
O11   O     O_R   0.297450 0.764660 0.325580 -0.537902
O12   O     O_R   0.702550 0.235340 0.674420 -0.542953
O13   O     O_R   0.300990 0.096480 0.197920 -0.508108
O14   O     O_R   0.699010 0.903520 0.802080 -0.509469
O15   O     O_R   0.199010 0.596480 0.302080 -0.508108
O16   O     O_R   0.800990 0.403520 0.697920 -0.509411
C5    C     C_R   0.190943 0.433862 0.151081 0.688557
C6    C     C_R   0.809217 0.565932 0.848744 0.688895
C7    C     C_R   0.309058 0.933862 0.348919 0.688553
C8    C     C_R   0.690784 0.065932 0.651255 0.688748
O17   O     O_3   0.282290 0.427760 0.257860 -0.361652
O18   O     O_3   0.717710 0.572240 0.742140 -0.363203
O19   O     O_3   0.217710 0.927760 0.242140 -0.361657
O20   O     O_3   0.782290 0.072240 0.757860 -0.363243
V1    V     V_3+5 0.244010 0.152080 0.248540 1.454295
V2    V     V_3+5 0.755990 0.847920 0.751460 1.447510
V3    V     V_3+5 0.255990 0.652080 0.251460 1.454298
V4    V     V_3+5 0.744010 0.347920 0.748540 1.447573
C9    C     C_R   0.657107 0.053472 0.591981 -0.034990
C10   C     C_R   0.342544 0.945043 0.408436 -0.040585
C11   C     C_R   0.842894 0.553474 0.908018 -0.034986
C12   C     C_R   0.157458 0.445048 0.091563 -0.040585
C13   C     C_R   0.648962 0.009365 0.480312 -0.163502
C14   C     C_R   0.350584 0.987848 0.520189 -0.163743
C15   C     C_R   0.851040 0.509370 0.019686 -0.163486
C16   C     C_R   0.149420 0.487941 0.979814 -0.163759
C17   C     C_R   0.679763 0.035527 0.536478 -0.164526
C18   C     C_R   0.319791 0.967762 0.463714 -0.163010
C19   C     C_R   0.820238 0.535535 0.963521 -0.164567
C20   C     C_R   0.180212 0.467814 0.036288 -0.162998
C21   C     C_R   0.602868 0.045514 0.591007 -0.235306
C22   C     C_R   0.396855 0.942535 0.409980 -0.227068
C23   C     C_R   0.897134 0.545515 0.908991 -0.235138
C24   C     C_R   0.103147 0.442528 0.090017 -0.227065
C25   C     C_R   0.570367 0.017098 0.534175 0.087823
C26   C     C_R   0.429359 0.967636 0.466985 0.087672
C27   C     C_R   0.929635 0.517122 0.965824 0.087756
C28   C     C_R   0.070644 0.467669 0.033014 0.087667
C29   C     C_R   0.594827 0.998757 0.478663 0.143540
C30   C     C_R   0.404832 0.989367 0.522316 0.142709
C31   C     C_R   0.905175 0.498767 0.021336 0.143585
C32   C     C_R   0.095171 0.489454 0.977686 0.142672
C33   C     C_R   0.514805 0.005094 0.530336 0.062100
C34   C     C_R   0.484986 0.975202 0.471052 0.057711
C35   C     C_R   0.985198 0.505152 0.969664 0.061936
C36   C     C_R   0.015017 0.475228 0.028947 0.057770
C37   C     C_R   0.511765 0.955625 0.417799 -0.196740
C38   C     C_R   0.488058 0.022319 0.583695 -0.197532
C39   C     C_R   0.988237 0.455620 0.082199 -0.196732
C40   C     C_R   0.011946 0.522454 0.916309 -0.197578
C41   C     C_R   0.565358 0.968160 0.421673 -0.199084
C42   C     C_R   0.434372 0.014442 0.579574 -0.199194
C43   C     C_R   0.934644 0.468156 0.078325 -0.199082
C44   C     C_R   0.065632 0.514585 0.920430 -0.199001
H1    H     H_    0.584033 0.953153 0.379296 0.121028
H2    H     H_    0.415673 0.029929 0.621915 0.120957
H3    H     H_    0.915969 0.453134 0.120701 0.121022
H4    H     H_    0.084332 0.530127 0.878091 0.120937
H5    H     H_    0.412191 0.924102 0.365939 0.089248
H6    H     H_    0.587634 0.058647 0.635331 0.082061
H7    H     H_    0.087810 0.424057 0.134056 0.089247
H8    H     H_    0.912367 0.558629 0.864666 0.082038
H9    H     H_    0.277999 0.970724 0.463069 0.110202
H10   H     H_    0.721521 0.039565 0.536769 0.106744
H11   H     H_    0.222003 0.470790 0.036934 0.110202
H12   H     H_    0.778481 0.539576 0.963231 0.106755
H13   H     H_    0.667638 0.995071 0.437933 0.112115
H14   H     H_    0.331842 0.005022 0.562416 0.113119
H15   H     H_    0.832364 0.495072 0.062065 0.112113
H16   H     H_    0.168161 0.505156 0.937589 0.113114
H17   H     H_    0.492406 0.931023 0.371865 0.127633
H18   H     H_    0.507485 0.043070 0.629803 0.120755
H19   H     H_    0.007596 0.431003 0.128131 0.127627
H20   H     H_    0.992520 0.543270 0.870204 0.120770
C45   C     C_R   0.418751 0.796818 0.068209 -0.143054
C46   C     C_R   0.582899 0.197660 0.933838 -0.139680
C47   C     C_R   0.081245 0.296809 0.431784 -0.143058
C48   C     C_R   0.917073 0.697611 0.566124 -0.139644
H21   H     H_    0.428628 0.669009 0.042692 0.123994
H22   H     H_    0.574992 0.321081 0.962485 0.123832
H23   H     H_    0.071368 0.168997 0.457299 0.123995
H24   H     H_    0.924966 0.821004 0.537459 0.123824
C49   C     C_R   0.379779 0.784353 0.108469 -0.256337
C50   C     C_R   0.621904 0.212085 0.893646 -0.224699
C51   C     C_R   0.120219 0.284350 0.391527 -0.256329
C52   C     C_R   0.878070 0.712046 0.606319 -0.224806
H25   H     H_    0.359947 0.647306 0.112157 0.181351
H26   H     H_    0.643518 0.346381 0.892732 0.169796
H27   H     H_    0.140053 0.147305 0.387839 0.181353
H28   H     H_    0.856443 0.846317 0.607217 0.169708
C53   C     C_R   0.365505 0.947618 0.142151 -0.144155
C54   C     C_R   0.633870 0.053517 0.856445 -0.157598
C55   C     C_R   0.134493 0.447617 0.357847 -0.144155
C56   C     C_R   0.866124 0.553515 0.643546 -0.157469
C57   C     C_R   0.392685 0.124733 0.135749 0.422524
C58   C     C_R   0.603796 0.881568 0.858488 0.397964
C59   C     C_R   0.107311 0.624727 0.364248 0.422523
C60   C     C_R   0.896213 0.381603 0.641527 0.398021
C61   C     C_R   0.430279 0.136669 0.093149 -0.229698
C62   C     C_R   0.565603 0.867685 0.899936 -0.216709
C63   C     C_R   0.069714 0.636659 0.406844 -0.229704
C64   C     C_R   0.934403 0.367702 0.600072 -0.217016
H29   H     H_    0.448634 0.274842 0.085664 0.113135
H30   H     H_    0.543999 0.733610 0.902140 0.127068
H31   H     H_    0.051357 0.774828 0.414328 0.113136
H32   H     H_    0.956018 0.233647 0.597883 0.127012
C65   C     C_R   0.443839 0.973564 0.059874 0.076576
C66   C     C_R   0.555006 0.024536 0.937788 0.065823
C67   C     C_R   0.056155 0.473550 0.440117 0.076577
C68   C     C_R   0.944982 0.524515 0.562196 0.065937
C69   C     C_1   0.482971 0.990065 0.016656 -0.040873
C70   C     C_1   0.515721 0.006303 0.980738 -0.040639
C71   C     C_1   0.017019 0.490044 0.483331 -0.040885
C72   C     C_1   0.984268 0.506278 0.519247 -0.040646
O21   O     O_3   0.378547 0.291035 0.166015 -0.570723
C73   C     C_3   0.419754 0.358999 0.208864 0.068562
H33   H     H_    0.415107 0.518642 0.213018 0.144468
H34   H     H_    0.458941 0.335204 0.193580 0.098704
C74   C     C_3   0.416925 0.267986 0.273154 -0.312226
H35   H     H_    0.377488 0.288446 0.287517 0.225863
H36   H     H_    0.424752 0.109738 0.270720 0.155378
C75   C     C_3   0.456131 0.360657 0.322094 -0.830137
H37   H     H_    0.496214 0.333721 0.310560 0.232175
H38   H     H_    0.451853 0.297057 0.368500 0.244270
H39   H     H_    0.449394 0.519649 0.324662 0.225766
O22   O     O_3   0.612161 0.722707 0.821646 -0.566674
C76   C     C_3   0.579887 0.739310 0.764870 0.088517
H40   H     H_    0.595007 0.854974 0.735605 0.097725
H41   H     H_    0.539099 0.774563 0.772752 0.101230
C77   C     C_3   0.579512 0.546010 0.729919 -0.280990
H42   H     H_    0.619689 0.504364 0.722567 0.221743
H43   H     H_    0.563274 0.430928 0.758320 0.183521
C78   C     C_3   0.547236 0.558521 0.666667 -0.845718
H44   H     H_    0.506639 0.599307 0.672544 0.234699
H45   H     H_    0.547088 0.415289 0.643043 0.234375
H46   H     H_    0.564002 0.667770 0.636710 0.242350
O23   O     O_3   0.121447 0.791029 0.333981 -0.570723
C79   C     C_3   0.080240 0.858985 0.291130 0.068549
H47   H     H_    0.084881 0.018631 0.286982 0.144465
H48   H     H_    0.041053 0.835162 0.306409 0.098707
C80   C     C_3   0.083078 0.767992 0.226839 -0.312204
H49   H     H_    0.122514 0.788491 0.212478 0.225866
H50   H     H_    0.075260 0.609738 0.229269 0.155381
C81   C     C_3   0.043868 0.860641 0.177900 -0.830150
H51   H     H_    0.003786 0.833675 0.189432 0.232177
H52   H     H_    0.048150 0.797051 0.131493 0.244274
H53   H     H_    0.050597 0.019638 0.175334 0.225766
O24   O     O_3   0.887858 0.222821 0.678407 -0.566618
C82   C     C_3   0.920324 0.239113 0.735048 0.088196
H54   H     H_    0.905513 0.355454 0.764312 0.097361
H55   H     H_    0.961128 0.273202 0.726935 0.101609
C83   C     C_3   0.920463 0.046151 0.770161 -0.280655
H56   H     H_    0.880262 0.005826 0.777826 0.221697
H57   H     H_    0.936318 0.930294 0.741720 0.183583
C84   C     C_3   0.953043 0.058296 0.833227 -0.846028
H58   H     H_    0.993684 0.097577 0.827026 0.234665
H59   H     H_    0.952957 0.915358 0.856994 0.234458
H60   H     H_    0.936689 0.168498 0.863202 0.242373

loop_
_geom_bond_atom_site_label_1
_geom_bond_atom_site_label_2
_ccdc_geom_bond_type
O17   V3    S    
C51   H27   S    
O1    C5    A    
O19   V1    S    
C9    C21   A    
C84   H58   S    
C16   H16   S    
O3    C7    A    
C82   H54   S    
C10   C18   A    
C48   H24   S    
C11   C23   A    
C58   O22   S    
C25   C33   A    
C33   C38   A    
C5    C12   S    
C42   H2    S    
O7    C3    A    
C6    C11   S    
C38   H18   S    
C35   C40   A    
C26   C30   A    
C36   C39   A    
C40   C44   A    
O9    V1    S    
C78   H45   S    
C23   H8    S    
C14   C18   A    
C24   C28   A    
C75   H39   S    
C54   C58   A    
O4    C8    A    
C25   C29   A    
C44   H4    S    
C80   H50   S    
O1    V3    S    
O13   V1    S    
C31   C43   A    
O2    V4    S    
O3    V1    S    
C28   C36   A    
C81   H53   S    
C65   C69   S    
C2    C56   S    
C1    O15   A    
C52   H28   S    
C15   C31   A    
C78   H44   S    
C2    O16   A    
C16   C32   A    
O2    C6    A    
C74   C75   S    
O23   C79   S    
C10   C22   A    
C11   C19   A    
C58   C62   A    
C43   H3    S    
C57   C61   A    
C68   C72   S    
C13   C29   A    
C34   C37   A    
O11   C7    A    
C69   C70   T    
O15   V3    S    
C35   C36   A    
O12   C8    A    
C47   C67   A    
C14   H14   S    
C80   C81   S    
C83   H57   S    
C84   H59   S    
C24   H7    S    
C13   H13   S    
O10   V2    S    
C77   C78   S    
C46   H22   S    
O5    V1    S    
O17   V1    S    
C39   C43   A    
C52   C56   A    
O7    V3    S    
C38   C42   A    
O19   V3    S    
C26   C34   A    
O20   V4    S    
C82   C83   S    
C63   C67   A    
O22   C76   S    
C77   H43   S    
C76   C77   S    
C17   H10   S    
O18   V4    S    
C77   H42   S    
C15   C19   A    
C19   H12   S    
C32   C44   A    
C47   H23   S    
C45   H21   S    
C64   H32   S    
C45   C49   A    
C21   H6    S    
O8    V4    S    
C81   H51   S    
C66   C70   S    
C73   H34   S    
O5    C1    A    
C37   C41   A    
C67   C71   S    
C14   C30   A    
C79   C80   S    
C21   C25   A    
O8    C4    A    
C7    C10   S    
C78   H46   S    
O9    C5    A    
C3    C53   S    
C62   H30   S    
C37   H17   S    
C18   H9    S    
C61   H29   S    
C75   H38   S    
O6    V2    S    
C48   C68   A    
C79   H48   S    
O18   V2    S    
C63   H31   S    
C60   O24   S    
C57   O21   S    
C83   H56   S    
C84   H60   S    
C12   C20   A    
C73   C74   S    
C27   C35   A    
C71   C72   T    
C60   C64   A    
C29   C41   A    
C48   C52   A    
O24   C82   S    
O16   V4    S    
C46   C66   A    
C53   C57   A    
C3    O13   A    
C64   C68   A    
C39   H19   S    
C55   C59   A    
C20   H11   S    
C75   H37   S    
C59   O23   S    
O6    C2    A    
C23   C27   A    
O11   V3    S    
C30   C42   A    
O12   V4    S    
C51   C55   A    
C22   C26   A    
C8    C9    S    
C50   C54   A    
C9    C17   A    
O10   C6    A    
C76   H41   S    
C73   H33   S    
O21   C73   S    
C49   C53   A    
C50   H26   S    
C76   H40   S    
C4    C54   S    
C81   H52   S    
C33   C34   A    
C74   H35   S    
C45   C65   A    
C41   H1    S    
O20   V2    S    
C46   C50   A    
C12   C24   A    
C27   C31   A    
C13   C17   A    
O4    V2    S    
O14   V2    S    
C15   H15   S    
C62   C66   A    
C56   C60   A    
C16   C20   A    
C61   C65   A    
C79   H47   S    
C83   C84   S    
C4    O14   A    
C80   H49   S    
C74   H36   S    
C1    C55   S    
C82   H55   S    
C59   C63   A    
C47   C51   A    
C40   H20   S    
C22   H5    S    
C49   H25   S    
C28   C32   A    
