data_mof_unit_6679.cif
_audit_creation_date              2012-12-11T16:31:30-0500
_audit_creation_method            fapswitch 2.2
_symmetry_space_group_name_H-M    P1
_symmetry_Int_Tables_number       1
_space_group_crystal_system       triclinic
_cell_length_a                    7.208204
_cell_length_b                    18.603057
_cell_length_c                    20.108983
_cell_angle_alpha                 68.808047
_cell_angle_beta                  91.448571
_cell_angle_gamma                 90.021947
_cell_volume                      2513.23987863

loop_
_atom_site_label
_atom_site_type_symbol
_atom_type_description
_atom_site_fract_x
_atom_site_fract_y
_atom_site_fract_z
_atom_type_partial_charge
O1    O     O_R   0.488990 0.443920 0.942160 -0.533956
O2    O     O_R   0.823840 0.406530 0.087600 -0.556023
O3    O     O_R   0.999650 0.556080 0.057840 -0.538828
C1    C     C_R   0.658874 0.385099 0.115806 0.765082
O4    O     O_R   0.818390 0.434590 0.944530 -0.520256
O5    O     O_R   0.994160 0.584350 0.913750 -0.517358
C2    C     C_R   0.650745 0.421189 0.924129 0.706271
O6    O     O_R   0.494480 0.415650 0.086250 -0.525366
O7    O     O_3   0.662600 0.549100 0.990070 -0.359794
V1    V     V_3+5 0.935320 0.490890 0.001840 1.562247
O8    O     O_R   0.324240 0.593470 0.912400 -0.523087
C3    C     C_R   0.152913 0.614836 0.884214 0.847239
O9    O     O_R   0.329690 0.565410 0.055470 -0.485845
C4    C     C_R   0.164765 0.576566 0.077668 0.815991
V2    V     V_3+5 0.435990 0.509110 0.998160 1.633083
O10   O     O_3   0.158840 0.450900 0.009930 -0.390829
C5    C     C_3   0.031161 0.657149 0.273086 0.332693
C6    C     C_3   0.339066 0.724283 0.240939 0.169190
C7    C     C_3   0.313659 0.763334 0.299308 0.400607
H1    H     H_    0.419094 0.670010 0.264853 0.197741
C8    C     C_1   0.096541 0.871779 0.382070 -0.117275
C9    C     C_3   0.150271 0.709842 0.206484 -0.014688
C10   C     C_3   0.984952 0.706125 0.323173 0.127846
C11   C     C_3   0.102101 0.787146 0.296130 0.050019
C12   C     C_3   0.043960 0.843273 0.212920 0.266974
C13   C     C_3   0.057263 0.793813 0.160494 0.207271
C14   C     C_1   0.087860 0.832546 0.344886 0.045844
C15   C     C_1   0.175475 0.663565 0.158914 0.159108
C16   C     C_1   0.170554 0.623891 0.121968 -0.031859
C17   C     C_R   0.049519 0.769865 0.878276 0.280197
C18   C     C_R   0.961188 0.837127 0.875106 -0.007037
C19   C     C_R   0.002152 0.904057 0.818848 0.430350
C20   C     C_R   0.066618 0.900049 0.755052 0.255094
C21   C     C_R   0.094026 0.826023 0.749590 -0.105376
C22   C     C_R   0.096166 0.759329 0.814745 -0.047339
C23   C     C_R   0.139548 0.817108 0.684404 -0.074022
C24   C     C_R   0.203013 0.743167 0.687766 -0.042850
C25   C     C_R   0.160604 0.676460 0.747787 -0.059723
C26   C     C_R   0.135501 0.684002 0.814927 -0.079397
C27   C     C_R   0.306309 0.731484 0.633210 -0.033067
C28   C     C_R   0.290482 0.661051 0.622918 0.400153
C29   C     C_R   0.181769 0.602799 0.669013 -0.028707
C30   C     C_R   0.134889 0.606363 0.735475 0.305847
C31   C     C_R   0.777799 0.222661 0.140994 0.069730
C32   C     C_R   0.726515 0.154526 0.130157 0.112214
C33   C     C_R   0.591824 0.106308 0.174228 0.168105
C34   C     C_R   0.534284 0.119782 0.235871 0.087776
C35   C     C_R   0.607363 0.183736 0.250249 -0.005334
C36   C     C_R   0.683723 0.243433 0.192337 -0.015815
C37   C     C_R   0.614204 0.190388 0.318911 -0.096260
C38   C     C_R   0.651030 0.266559 0.320575 -0.007369
C39   C     C_R   0.640239 0.332570 0.254129 -0.092757
C40   C     C_R   0.660697 0.320539 0.188121 -0.106469
C41   C     C_R   0.700218 0.281661 0.384126 0.081023
C42   C     C_R   0.727855 0.357720 0.380210 0.032173
C43   C     C_R   0.645727 0.416258 0.323868 0.395102
C44   C     C_R   0.617566 0.407223 0.258457 0.257331
O11   O     O_R   0.770890 0.084490 0.414040 -0.539559
O12   O     O_R   0.445980 0.065450 0.555510 -0.509173
O13   O     O_R   0.270670 0.915620 0.586180 -0.527981
C45   C     C_R   0.611998 0.075495 0.578681 0.735211
O14   O     O_R   0.441480 0.093500 0.412450 -0.547051
O15   O     O_R   0.266140 0.943870 0.442100 -0.539049
C46   C     C_R   0.608278 0.117268 0.385503 0.690236
O16   O     O_R   0.775410 0.056240 0.558120 -0.521864
O17   O     O_3   0.602660 0.950990 0.510100 -0.389682
V3    V     V_3+5 0.329740 0.009100 0.498130 1.505860
O18   O     O_R   0.936120 0.934420 0.444240 -0.539031
C47   C     C_R   0.101945 0.919803 0.425396 0.683785
O19   O     O_R   0.940610 0.906370 0.587310 -0.535671
C48   C     C_R   0.113747 0.882472 0.613335 0.777968
V4    V     V_3+5 0.829110 0.990690 0.501470 1.476749
O20   O     O_3   0.106080 0.049010 0.489880 -0.361416
C49   C     C_3   0.802127 0.231800 0.707794 -0.285540
C50   C     C_3   0.482628 0.288807 0.674549 0.611363
C51   C     C_3   0.488918 0.330563 0.731409 0.597097
H2    H     H_    0.846920 0.261790 0.652157 0.275301
C52   C     C_1   0.652190 0.376671 0.877268 -0.036983
C53   C     C_3   0.594436 0.209248 0.706194 -0.226032
C54   C     C_3   0.830007 0.287480 0.750735 0.338198
C55   C     C_3   0.647572 0.294048 0.789365 -0.261321
C56   C     C_3   0.597819 0.208899 0.836011 0.049261
C57   C     C_3   0.541640 0.162232 0.787207 0.675045
C58   C     C_1   0.660726 0.339890 0.837826 0.254359
C59   C     C_1   0.584125 0.162166 0.659045 0.213098
C60   C     C_1   0.602767 0.122608 0.622680 -0.091708
H3    H     H_    0.942901 0.265546 0.791178 0.239045
H4    H     H_    0.481901 0.209673 0.871253 0.211765
C61   C     C_3   0.000971 0.654932 0.405986 -0.558670
H5    H     H_    0.894287 0.608956 0.421971 0.246813
H6    H     H_    0.125450 0.619074 0.426225 0.254833
H7    H     H_    0.981317 0.690588 0.439362 0.187798
C62   C     C_3   0.862300 0.615013 0.251100 -0.559247
H8    H     H_    0.861286 0.619102 0.194936 0.185292
H9    H     H_    0.865043 0.552037 0.280018 0.274317
H10   H     H_    0.722825 0.633956 0.258121 0.231774
C63   C     C_3   0.782528 0.726477 0.319541 -0.722669
H11   H     H_    0.729283 0.748146 0.266568 0.267105
H12   H     H_    0.697278 0.674753 0.344417 0.234808
H13   H     H_    0.763470 0.768577 0.346113 0.267725
C64   C     C_3   0.171451 0.915986 0.186065 -0.652816
H14   H     H_    0.176775 0.946189 0.224606 0.223766
H15   H     H_    0.312375 0.903965 0.173954 0.284602
H16   H     H_    0.122927 0.959531 0.134223 0.181911
C65   C     C_3   0.112897 0.537859 0.647828 -0.337416
H17   H     H_    0.156699 0.540978 0.594474 0.240564
H18   H     H_    0.163413 0.482963 0.687848 0.310437
H19   H     H_    0.958840 0.539130 0.646426 0.241649
Cl1   Cl    Cl    0.186658 0.728039 0.955612 -0.714002
C66   C     C_3   0.844828 0.839066 0.935366 -0.551580
H20   H     H_    0.708469 0.866346 0.913635 0.247411
H21   H     H_    0.817736 0.779875 0.973112 0.207847
H22   H     H_    0.913477 0.872962 0.963768 0.239014
Cl2   Cl    Cl    0.023501 0.988363 0.837940 -0.464172
Cl3   Cl    Cl    0.131394 0.988625 0.689139 -0.573471
C67   C     C_3   0.464619 0.783450 0.598762 -0.571268
H23   H     H_    0.505592 0.820545 0.629080 0.204276
H24   H     H_    0.591477 0.748958 0.600301 0.220438
H25   H     H_    0.427575 0.817628 0.542248 0.220401
Cl4   Cl    Cl    0.417015 0.643822 0.555826 -0.647731
Cl5   Cl    Cl    0.171713 0.572755 0.322918 -0.623843
Cl6   Cl    Cl    0.017609 0.526630 0.795756 -0.613454
Cl7   Cl    Cl    0.562374 0.496822 0.340397 -0.557827
C68   C     C_3   0.961027 0.259825 0.113345 -0.704726
H26   H     H_    0.015137 0.294028 0.144700 0.216747
H27   H     H_    0.068829 0.214783 0.120402 0.200637
H28   H     H_    0.947033 0.296154 0.055885 0.217561
C69   C     C_3   0.807997 0.134831 0.070364 -0.651145
H29   H     H_    0.692852 0.129413 0.035094 0.263048
H30   H     H_    0.901246 0.179467 0.036109 0.241707
H31   H     H_    0.887392 0.079807 0.092549 0.200777
C70   C     C_3   0.510664 0.040017 0.157222 -0.773363
H32   H     H_    0.365282 0.054423 0.137574 0.216008
H33   H     H_    0.583739 0.024641 0.116573 0.229566
H34   H     H_    0.516810 0.988249 0.206164 0.276349
C71   C     C_3   0.372814 0.075285 0.277512 -0.720718
H35   H     H_    0.268829 0.061654 0.242475 0.195847
H36   H     H_    0.423431 0.020799 0.318986 0.236158
H37   H     H_    0.293178 0.110959 0.300783 0.210327
C72   C     C_3   0.705887 0.221438 0.457005 -0.684696
H38   H     H_    0.570510 0.192465 0.464980 0.189563
H39   H     H_    0.828165 0.183551 0.463064 0.224545
H40   H     H_    0.714372 0.244727 0.500473 0.219179
C73   C     C_3   0.844365 0.378923 0.434026 -0.517058
H41   H     H_    0.940704 0.425824 0.405200 0.240312
H42   H     H_    0.755061 0.400339 0.466815 0.292195
H43   H     H_    0.933557 0.330667 0.468688 0.215866
Cl8   Cl    Cl    0.563231 0.492647 0.186122 -0.629179
Cl9   Cl    Cl    0.907774 0.378409 0.691657 -0.463254
Cl10  Cl    Cl    0.477904 0.775398 0.170874 -0.782422
Cl11  Cl    Cl    0.253673 0.279798 0.644332 -0.517409
Cl12  Cl    Cl    0.574307 0.348639 0.590021 -0.504169
Cl13  Cl    Cl    0.511552 0.433880 0.689517 -0.432786
Cl14  Cl    Cl    0.277916 0.323388 0.778284 -0.571367
Cl15  Cl    Cl    0.619355 0.063517 0.821855 -0.458207
Cl16  Cl    Cl    0.305750 0.144530 0.798147 -0.523777
Cl17  Cl    Cl    0.781339 0.163444 0.899784 -0.617267
C74   C     C_3   0.927315 0.159849 0.734221 -0.406831
H44   H     H_    0.953926 0.142177 0.792015 0.325385
H45   H     H_    0.871112 0.109518 0.724163 0.237553
H46   H     H_    0.052842 0.168293 0.703334 0.285049
C75   C     C_3   0.377846 0.709562 0.376204 -0.641418
H47   H     H_    0.509504 0.724181 0.396784 0.253265
H48   H     H_    0.292052 0.718405 0.417126 0.229471
H49   H     H_    0.392894 0.648327 0.382605 0.254519
Cl18  Cl    Cl    0.462873 0.844485 0.290629 -0.783107
C76   C     C_3   0.871669 0.779641 0.128692 -0.730639
H50   H     H_    0.791996 0.833530 0.099656 0.267625
H51   H     H_    0.793634 0.741187 0.169582 0.261369
H52   H     H_    0.888577 0.748993 0.091022 0.210588
C77   C     C_3   0.150087 0.841229 0.086526 -0.512122
H53   H     H_    0.059415 0.890581 0.054633 0.185052
H54   H     H_    0.280366 0.872024 0.085194 0.248804
H55   H     H_    0.173624 0.804616 0.054517 0.253069
C78   C     C_3   0.853208 0.886442 0.206696 -0.693874
H56   H     H_    0.730955 0.856867 0.199222 0.293420
H57   H     H_    0.833316 0.905697 0.252170 0.238814
H58   H     H_    0.838873 0.938677 0.157623 0.196651

loop_
_geom_bond_atom_site_label_1
_geom_bond_atom_site_label_2
_ccdc_geom_bond_type
C31   C36   A    
C53   C57   S    
C77   H53   S    
C62   H8    S    
C1    C40   S    
C37   C46   S    
C28   C29   A    
O2    C1    A    
C72   H40   S    
C1    O6    A    
C12   C64   S    
C69   H29   S    
C63   H13   S    
C63   H11   S    
C76   H51   S    
C27   C67   S    
C59   C60   T    
C43   C44   A    
C65   H18   S    
C15   C16   T    
C5    C10   S    
C17   C22   A    
C23   C24   A    
C72   H39   S    
C21   C22   A    
C24   C27   A    
C71   H37   S    
C33   C70   S    
C25   C26   A    
C34   C71   S    
C56   H4    S    
C57   Cl15  S    
C32   C69   S    
V2    O10   S    
C51   Cl13  S    
C67   H23   S    
C6    C7    S    
C66   H20   S    
O14   C46   A    
C74   H46   S    
O12   V3    S    
C41   C42   A    
O8    V2    S    
O17   V4    S    
C45   C60   S    
O15   C47   A    
O13   V3    S    
C50   Cl11  S    
O18   C47   A    
C49   H2    S    
C34   C35   A    
C10   C11   S    
C10   C61   S    
O19   C48   A    
V3    O20   S    
C7    Cl18  S    
C61   H6    S    
O7    V1    S    
C6    H1    S    
C23   C48   S    
C35   C37   A    
O17   V3    S    
C8    C14   T    
C62   H9    S    
C9    C15   S    
O9    C4    A    
C74   H45   S    
C70   H33   S    
C73   H43   S    
C65   H19   S    
C64   H14   S    
C55   C56   S    
C76   H52   S    
C75   H48   S    
O11   C46   A    
C54   Cl9   S    
C77   H55   S    
C41   C72   S    
C13   C76   S    
C20   Cl3   S    
O12   C45   A    
C49   C74   S    
C17   Cl1   S    
C38   C39   A    
C43   Cl7   S    
C11   C12   S    
C78   H57   S    
C63   H12   S    
C76   H50   S    
O4    C2    A    
C56   Cl17  S    
C78   H58   S    
V4    O20   S    
C57   Cl16  S    
O13   C48   A    
C12   C13   S    
C32   C33   A    
C31   C68   S    
C8    C47   S    
C7    C75   S    
C22   C26   A    
C50   C51   S    
O15   V3    S    
C24   C25   A    
C45   O16   A    
C75   H49   S    
C77   H54   S    
C12   C78   S    
C78   H56   S    
C66   H22   S    
C50   Cl12  S    
O18   V4    S    
C11   C14   S    
C42   C43   A    
C37   C38   A    
C72   H38   S    
C61   H7    S    
C30   Cl6   S    
O3    C4    A    
C67   H24   S    
C2    C52   S    
O1    V2    S    
O14   V3    S    
C73   H42   S    
C27   C28   A    
C10   C63   S    
C13   C77   S    
C62   H10   S    
C49   C53   S    
O9    V2    S    
C74   H44   S    
C5    C62   S    
C29   C30   A    
C4    C16   S    
O2    V1    S    
C69   H31   S    
C53   C59   S    
C55   C58   S    
C39   C40   A    
C71   H36   S    
C68   H27   S    
C75   H47   S    
C5    Cl5   S    
C33   C34   A    
C35   C36   A    
C42   C73   S    
C6    C9    S    
C18   C19   A    
C31   C32   A    
C54   C55   S    
C69   H30   S    
C51   C55   S    
O5    V1    S    
O19   V4    S    
O8    C3    A    
C54   H3    S    
O16   V4    S    
C65   H17   S    
C5    C9    S    
C67   H25   S    
C73   H41   S    
C38   C41   A    
C19   C20   A    
C3    C26   S    
C7    C11   S    
O7    V2    S    
O4    V1    S    
O3    V1    S    
V1    O10   S    
O5    C3    A    
O11   V4    S    
C17   C18   A    
C70   H34   S    
C36   C40   A    
C51   Cl14  S    
C18   C66   S    
C20   C21   A    
C70   H32   S    
C21   C23   A    
O6    V2    S    
C28   Cl4   S    
C29   C65   S    
C66   H21   S    
C39   C44   A    
C52   C58   T    
C25   C30   A    
C64   H15   S    
C56   C57   S    
C9    C13   S    
C44   Cl8   S    
C68   H28   S    
C71   H35   S    
O1    C2    A    
C49   C54   S    
C64   H16   S    
C19   Cl2   S    
C61   H5    S    
C6    Cl10  S    
C50   C53   S    
C68   H26   S    
