data_mof_unit_15313.cif
_audit_creation_date              2012-12-10T18:20:35-0500
_audit_creation_method            fapswitch 2.2
_symmetry_space_group_name_H-M    P1
_symmetry_Int_Tables_number       1
_space_group_crystal_system       triclinic
_cell_length_a                    14.024754
_cell_length_b                    13.623408
_cell_length_c                    14.956214
_cell_angle_alpha                 90.23666
_cell_angle_beta                  90.458989
_cell_angle_gamma                 82.996849
_cell_volume                      2836.1835567

loop_
_atom_site_label
_atom_site_type_symbol
_atom_type_description
_atom_site_fract_x
_atom_site_fract_y
_atom_site_fract_z
_atom_type_partial_charge
C1    C     C_R   0.499145 0.504484 0.327109 0.886419
C2    C     C_R   0.500923 0.495321 0.672846 0.887364
C3    C     C_R   0.503475 0.495006 0.953166 -0.013423
C4    C     C_R   0.500236 0.501229 0.046743 -0.013924
C5    C     C_R   0.457303 0.421596 0.907838 0.086565
C6    C     C_R   0.546419 0.574691 0.091979 0.084674
C7    C     C_R   0.603202 0.631715 0.949947 0.170097
C8    C     C_R   0.401667 0.363578 0.049974 0.171833
C9    C     C_R   0.598696 0.637068 0.042630 -0.276328
C10   C     C_R   0.406444 0.358032 0.957276 -0.275648
C11   C     C_R   0.802828 0.458904 0.569754 -0.049863
C12   C     C_R   0.196175 0.544161 0.432238 -0.051236
C13   C     C_R   0.792528 0.541367 0.430893 -0.042405
C14   C     C_R   0.208391 0.456562 0.568528 -0.039850
C15   C     C_R   0.893589 0.540431 0.427419 -0.005630
C16   C     C_R   0.107385 0.455315 0.572071 -0.030567
C17   C     C_R   0.949521 0.500121 0.500959 -0.007232
C18   C     C_R   0.050448 0.500332 0.501089 -0.007798
C19   C     C_R   0.904093 0.458484 0.573578 -0.031705
C20   C     C_R   0.094746 0.547522 0.430985 -0.004397
C21   C     C_R   0.939078 0.579826 0.353068 0.130410
C22   C     C_R   0.062624 0.411816 0.644825 0.142991
C23   C     C_R   0.517140 0.314111 0.500395 0.895442
C24   C     C_R   0.482855 0.685890 0.499606 0.895581
C25   C     C_R   0.037467 0.596457 0.361491 0.125017
C26   C     C_R   0.960123 0.417362 0.647398 0.135560
C27   C     C_1   0.469744 0.789634 0.497805 -0.185290
C28   C     C_1   0.530224 0.210370 0.502299 -0.184983
C29   C     C_2   0.458750 0.981241 0.495499 -0.167933
C30   C     C_2   0.541144 0.018772 0.504813 -0.167355
C31   C     C_1   0.538598 0.122601 0.503829 0.002944
C32   C     C_1   0.461325 0.877406 0.496380 0.003540
C33   C     C_R   0.461785 0.414673 0.813791 0.129324
C34   C     C_R   0.540524 0.582939 0.185849 0.131490
C35   C     C_R   0.503107 0.488872 0.768114 -0.107565
C36   C     C_R   0.497533 0.510042 0.231754 -0.108987
C37   C     C_R   0.549248 0.559306 0.812426 -0.304133
C38   C     C_R   0.452124 0.438935 0.187563 -0.304929
C39   C     C_R   0.553029 0.562066 0.904877 0.102525
C40   C     C_R   0.450322 0.434478 0.095056 0.101375
H1    H     H_    0.638154 0.690266 0.075515 0.159221
H2    H     H_    0.367937 0.304024 0.924443 0.157555
H3    H     H_    0.764074 0.426159 0.621391 0.155357
H4    H     H_    0.233981 0.575855 0.379172 0.151476
H5    H     H_    0.746090 0.575731 0.379146 0.145839
H6    H     H_    0.255819 0.424126 0.620233 0.148086
N1    N     N_R   0.750030 0.500040 0.500070 -0.109675
N2    N     N_R   0.249970 0.499960 0.499930 -0.109768
O1    O     O_R   0.580280 0.500020 0.367860 -0.634760
O2    O     O_R   0.419720 0.499980 0.632140 -0.634937
O3    O     O_R   0.419730 0.500030 0.367840 -0.623561
O4    O     O_R   0.580270 0.499970 0.632160 -0.624559
O5    O     O_R   0.591830 0.359650 0.500030 -0.605605
O6    O     O_R   0.408170 0.640350 0.499970 -0.606276
O7    O     O_R   0.431280 0.359660 0.500010 -0.619019
O8    O     O_R   0.568720 0.640340 0.499990 -0.618076
Zn1   Zn    Zn3+2 0.607200 0.499990 0.500020 0.935227
Zn2   Zn    Zn3+2 0.392800 0.500010 0.499980 0.935173
H7    H     H_    0.609407 0.972355 0.512990 0.158796
H8    H     H_    0.390487 0.027655 0.487308 0.158336
C41   C     C_3   0.429011 0.326500 0.763073 -0.433348
C42   C     C_3   0.497821 0.232218 0.779288 -0.877740
H9    H     H_    0.570986 0.242669 0.756130 0.262607
H10   H     H_    0.501621 0.211998 0.851087 0.262325
H11   H     H_    0.472790 0.170095 0.740950 0.253233
H12   H     H_    0.354536 0.315555 0.780950 0.202254
H13   H     H_    0.426202 0.336893 0.689885 0.220356
C43   C     C_3   0.573821 0.671214 0.236036 -0.427634
C44   C     C_3   0.506935 0.766319 0.217564 -0.879742
H14   H     H_    0.504991 0.785471 0.145537 0.262288
H15   H     H_    0.432935 0.757692 0.239553 0.262367
H16   H     H_    0.532336 0.828420 0.255654 0.253031
H17   H     H_    0.574788 0.662242 0.309392 0.220110
H18   H     H_    0.649095 0.680196 0.219218 0.194368
H19   H     H_    0.581026 0.612856 0.772775 0.170456
H20   H     H_    0.419435 0.386196 0.227385 0.170999
C45   C     C_3   0.663611 0.700644 0.902361 -0.413446
C46   C     C_3   0.757597 0.644765 0.868426 -0.863933
H21   H     H_    0.800275 0.609882 0.925336 0.258184
H22   H     H_    0.744048 0.586455 0.819593 0.257594
H23   H     H_    0.800397 0.697218 0.835020 0.249111
H24   H     H_    0.622483 0.740227 0.846914 0.197302
H25   H     H_    0.682525 0.759794 0.948329 0.200474
C47   C     C_3   0.342485 0.293505 0.097519 -0.418913
C48   C     C_3   0.246577 0.347356 0.129065 -0.855826
H26   H     H_    0.257344 0.407619 0.176854 0.260611
H27   H     H_    0.204109 0.379431 0.070868 0.258792
H28   H     H_    0.204944 0.294191 0.162932 0.247980
H29   H     H_    0.326378 0.232742 0.052060 0.201110
H30   H     H_    0.383376 0.256035 0.154156 0.197850
C49   C     C_3   0.883969 0.596959 0.264362 -0.442824
C50   C     C_3   0.856322 0.500354 0.224652 -0.862454
H31   H     H_    0.921916 0.447422 0.213389 0.261953
H32   H     H_    0.807080 0.464981 0.268285 0.264246
H33   H     H_    0.819337 0.515831 0.159340 0.248892
H34   H     H_    0.819414 0.651675 0.273431 0.189082
H35   H     H_    0.925619 0.626491 0.210902 0.208079
C51   C     C_3   0.124227 0.358536 0.718898 -0.428302
C52   C     C_3   0.153641 0.431084 0.789325 -0.888393
H36   H     H_    0.199501 0.483199 0.759853 0.264924
H37   H     H_    0.089224 0.474428 0.818697 0.259396
H38   H     H_    0.194745 0.389593 0.843818 0.247868
H39   H     H_    0.087328 0.301695 0.752386 0.218943
H40   H     H_    0.188636 0.314002 0.690893 0.186288
C53   C     C_3   0.079913 0.672148 0.302885 -0.436729
C54   C     C_3   0.105893 0.760250 0.358079 -0.861678
H41   H     H_    0.041107 0.796643 0.392663 0.261404
H42   H     H_    0.162415 0.738147 0.408722 0.261224
H43   H     H_    0.133044 0.815058 0.313050 0.247446
H44   H     H_    0.143401 0.636563 0.266056 0.198680
H45   H     H_    0.030173 0.706373 0.251508 0.206987
C55   C     C_3   0.910187 0.383124 0.730105 -0.418143
C56   C     C_3   0.886505 0.277043 0.719496 -0.878526
H46   H     H_    0.838494 0.270167 0.661093 0.258611
H47   H     H_    0.953045 0.225118 0.710133 0.254589
H48   H     H_    0.849730 0.255222 0.780454 0.253409
H49   H     H_    0.953495 0.388680 0.791709 0.218034
H50   H     H_    0.844021 0.433607 0.744993 0.193374

loop_
_geom_bond_atom_site_label_1
_geom_bond_atom_site_label_2
_ccdc_geom_bond_type
C2    C35   S    
C55   H50   S    
C53   H44   S    
C20   C25   A    
C22   C51   S    
C10   H2    S    
C11   N1    A    
C24   C27   S    
C12   N2    A    
C6    C9    A    
C25   C53   S    
C14   H6    S    
C38   H20   S    
C48   H26   S    
C11   C19   A    
C42   H9    S    
C35   C37   A    
C29   C32   S    
O6    Zn2   S    
C55   H49   S    
C8    C10   A    
C46   H22   S    
C54   H41   S    
C45   H25   S    
C43   H18   S    
C51   H39   S    
O1    Zn1   S    
O8    Zn1   S    
C15   C17   A    
C44   H15   S    
C19   C26   A    
C42   H10   S    
C2    O2    A    
C33   C35   A    
C49   H34   S    
C41   H12   S    
C4    C40   A    
C43   C44   S    
C5    C33   A    
C11   H3    S    
C18   C20   A    
C7    C45   S    
C56   H48   S    
C37   H19   S    
C3    C39   A    
C44   H14   S    
C47   H30   S    
C55   C56   S    
C23   O5    A    
C48   H27   S    
O2    Zn2   S    
C47   C48   S    
C4    C6    A    
C34   C43   S    
C49   C50   S    
C13   N1    A    
O5    Zn1   S    
C46   H21   S    
C14   N2    A    
C43   H17   S    
C45   C46   S    
C50   H33   S    
C6    C34   A    
C44   H16   S    
C29   C30   D    
N1    Zn1   S    
C41   H13   S    
C52   H36   S    
C29   H8    S    
C30   H7    S    
C12   C20   A    
C50   H32   S    
C17   C18   A    
O3    Zn2   S    
C23   C28   S    
C49   H35   S    
C23   O7    A    
C1    O3    A    
C2    O4    A    
C33   C41   S    
C52   H37   S    
C13   C15   A    
C14   C16   A    
C47   H29   S    
C3    C4    A    
C26   C55   S    
C13   H5    S    
C56   H46   S    
C21   C49   S    
C48   H28   S    
C7    C9    A    
C21   C25   A    
C16   C22   A    
C42   H11   S    
C27   C32   T    
C8    C47   S    
C28   C31   T    
C3    C5    A    
N2    Zn2   S    
C24   O8    A    
C53   C54   S    
C9    H1    S    
C36   C38   A    
C5    C10   A    
C37   C39   A    
C38   C40   A    
C46   H23   S    
C30   C31   S    
C54   H42   S    
C45   H24   S    
C51   H40   S    
C1    O1    A    
C50   H31   S    
C17   C19   A    
C34   C36   A    
C53   H45   S    
C41   C42   S    
O4    Zn1   S    
C15   C21   A    
C52   H38   S    
C16   C18   A    
C51   C52   S    
C22   C26   A    
O7    Zn2   S    
C7    C39   A    
C12   H4    S    
C8    C40   A    
C24   O6    A    
C1    C36   S    
C56   H47   S    
C54   H43   S    
