data_mof_unit_13384.cif
_audit_creation_date              2013-03-05T16:41:03-0500
_audit_creation_method            fapswitch 2.2
_symmetry_space_group_name_H-M    P1
_symmetry_Int_Tables_number       1
_space_group_crystal_system       triclinic
_cell_length_a                    18.705104
_cell_length_b                    18.645861
_cell_length_c                    18.67801
_cell_angle_alpha                 109.103729
_cell_angle_beta                  109.295458
_cell_angle_gamma                 109.183031
_cell_volume                      5065.56601962

loop_
_atom_site_label
_atom_site_type_symbol
_atom_site_description
_atom_site_fract_x
_atom_site_fract_y
_atom_site_fract_z
_atom_type_partial_charge
O1    O     O_R   0.408360 0.551710 0.460090 -0.606865
O2    O     O_R   0.408400 0.448280 0.356670 -0.626939
C1    C     C_R   0.380176 0.500739 0.380193 0.876884
O3    O     O_R   0.591600 0.643340 0.551710 -0.594771
O4    O     O_R   0.591630 0.539900 0.448290 -0.631252
C2    C     C_R   0.621894 0.619925 0.501784 0.875204
Zn1   Zn    Zn3+2 0.499980 0.569060 0.569060 0.981425
Zn2   Zn    Zn3+2 0.500020 0.430940 0.430940 0.938631
O5    O     O_R   0.591600 0.551720 0.643330 -0.613927
O6    O     O_R   0.591640 0.448290 0.539910 -0.629813
O7    O     O_R   0.408370 0.460100 0.551710 -0.612584
O8    O     O_R   0.408400 0.356660 0.448290 -0.630238
C3    C     C_R   0.618313 0.497961 0.619994 0.872887
C4    C     C_R   0.378800 0.380155 0.499255 0.874966
H1    H     H_    0.814806 0.785193 0.892904 0.142946
C5    C     C_R   0.794870 0.847421 0.813083 0.189661
C6    C     C_R   0.781482 0.840108 0.730953 -0.010903
C7    C     C_R   0.776139 0.766753 0.668253 0.077987
C8    C     C_R   0.786157 0.703973 0.689415 -0.193588
H2    H     H_    0.784053 0.648802 0.643270 0.116626
C9    C     C_R   0.800159 0.712168 0.770238 -0.186993
H3    H     H_    0.808927 0.664223 0.786499 0.157422
C10   C     C_R   0.804455 0.782607 0.831448 -0.148521
C11   C     C_R   0.827296 0.814506 0.576765 -0.193369
H4    H     H_    0.885891 0.867192 0.636467 0.141599
C12   C     C_R   0.814072 0.809562 0.496675 -0.082676
C13   C     C_R   0.736295 0.743530 0.418652 -0.008723
C14   C     C_R   0.676310 0.679919 0.422848 -0.281133
H5    H     H_    0.617270 0.627122 0.363587 0.152806
C15   C     C_R   0.689245 0.685673 0.502800 -0.079983
C16   C     C_R   0.763327 0.755276 0.581325 0.079865
C17   C     C_R   0.634002 0.734451 0.284861 -0.172865
H6    H     H_    0.590257 0.734985 0.310973 0.117435
C18   C     C_R   0.611068 0.729418 0.203422 -0.138366
H7    H     H_    0.550218 0.725957 0.167308 0.118793
C19   C     C_R   0.666727 0.729091 0.168706 -0.124646
H8    H     H_    0.648877 0.725140 0.105639 0.123026
C20   C     C_R   0.745615 0.734284 0.215631 -0.121801
H9    H     H_    0.789093 0.734617 0.189096 0.137824
C21   C     C_R   0.768735 0.739580 0.297148 -0.088036
H10   H     H_    0.830389 0.745220 0.333294 0.108398
C22   C     C_R   0.713336 0.739707 0.332680 0.132909
H11   H     H_    0.576785 0.894299 0.580448 0.178050
C23   C     C_R   0.439944 0.804563 0.515326 -0.248892
H12   H     H_    0.427944 0.848201 0.558495 0.135777
C24   C     C_R   0.371193 0.722422 0.446968 0.248559
C25   C     C_R   0.388077 0.665821 0.391709 0.096627
C26   C     C_R   0.472899 0.692867 0.405133 -0.231298
H13   H     H_    0.486634 0.650378 0.362964 0.116860
C27   C     C_R   0.540429 0.774669 0.473053 -0.084872
H14   H     H_    0.605351 0.793992 0.483018 0.179322
C28   C     C_R   0.524160 0.830690 0.527949 -0.103582
C29   C     C_R   0.254475 0.574292 0.250439 -0.197039
H15   H     H_    0.259154 0.634130 0.251234 0.155199
C30   C     C_R   0.184454 0.494007 0.182137 -0.070394
C31   C     C_R   0.176576 0.415073 0.180118 -0.008743
C32   C     C_R   0.243598 0.420080 0.246207 -0.272154
H16   H     H_    0.241218 0.360779 0.245132 0.156670
C33   C     C_R   0.313294 0.500711 0.314573 -0.085184
C34   C     C_R   0.317468 0.578804 0.318954 0.035851
C35   C     C_R   0.062937 0.265986 0.134024 -0.163213
H17   H     H_    0.085085 0.283011 0.201574 0.106347
C36   C     C_R   0.995323 0.182097 0.069837 -0.125997
H18   H     H_    0.966113 0.135829 0.088278 0.133005
C37   C     C_R   0.965952 0.157802 0.982092 -0.125839
H19   H     H_    0.913863 0.092799 0.932426 0.145811
C38   C     C_R   0.004169 0.217390 0.958481 -0.133885
H20   H     H_    0.981718 0.198241 0.890457 0.143453
C39   C     C_R   0.071581 0.301465 0.022589 -0.098703
H21   H     H_    0.100344 0.346607 0.003288 0.099247
C40   C     C_R   0.101695 0.327037 0.111128 0.127893
H22   H     H_    0.194491 0.596541 0.523376 0.153631
C41   C     C_R   0.249206 0.539548 0.592564 -0.228741
H23   H     H_    0.273990 0.593297 0.655769 0.128651
C42   C     C_R   0.261239 0.468210 0.586533 -0.077493
H24   H     H_    0.295177 0.467129 0.645343 0.144537
C43   C     C_R   0.229378 0.398406 0.504895 0.134398
C44   C     C_R   0.184788 0.400261 0.429148 -0.287402
H25   H     H_    0.159491 0.345831 0.366117 0.113418
C45   C     C_R   0.171375 0.471371 0.434846 0.073303
C46   C     C_R   0.204252 0.541179 0.517212 -0.090302
C47   C     C_R   0.175400 0.254845 0.496274 -0.181475
H26   H     H_    0.119021 0.259323 0.496357 0.162757
C48   C     C_R   0.185503 0.184138 0.497040 -0.066583
C49   C     C_R   0.259425 0.178400 0.499878 -0.016260
C50   C     C_R   0.321194 0.242987 0.498447 -0.237227
H27   H     H_    0.377476 0.238377 0.498533 0.153537
C51   C     C_R   0.311853 0.314431 0.498977 -0.072163
C52   C     C_R   0.239426 0.321741 0.499449 -0.006838
C53   C     C_R   0.333819 0.123529 0.587723 -0.118838
H28   H     H_    0.368756 0.187628 0.643953 0.128097
C54   C     C_R   0.346596 0.056428 0.596397 -0.155054
H29   H     H_    0.392419 0.069193 0.658712 0.124269
C55   C     C_R   0.299525 0.972675 0.524910 -0.118356
H30   H     H_    0.309307 0.920813 0.531978 0.117814
C56   C     C_R   0.239520 0.955916 0.444685 -0.122658
H31   H     H_    0.202360 0.890664 0.389859 0.132542
C57   C     C_R   0.227184 0.023227 0.435612 -0.155217
H32   H     H_    0.180381 0.009897 0.373525 0.104934
C58   C     C_R   0.274704 0.107514 0.507126 0.131049
C59   C     C_R   0.532567 0.575031 0.819631 -0.267271
H33   H     H_    0.530617 0.635340 0.843303 0.123591
C60   C     C_R   0.600949 0.574746 0.805037 -0.150001
H34   H     H_    0.651079 0.634928 0.818248 0.151416
C61   C     C_R   0.604809 0.497536 0.773357 0.083818
C62   C     C_R   0.540742 0.420146 0.759531 0.188159
C63   C     C_R   0.472627 0.421439 0.775391 -0.184922
H35   H     H_    0.423670 0.362234 0.765061 0.173507
C64   C     C_R   0.467899 0.498592 0.804889 0.060498
C65   C     C_R   0.745023 0.499731 0.822431 -0.230692
H36   H     H_    0.742141 0.501533 0.880057 0.155978
C66   C     C_R   0.814618 0.498036 0.811090 -0.101256
C67   C     C_R   0.819626 0.495548 0.736759 -0.014151
C68   C     C_R   0.752679 0.493533 0.673803 -0.271399
H37   H     H_    0.755090 0.491219 0.615872 0.156891
C69   C     C_R   0.683699 0.496594 0.685797 -0.087782
C70   C     C_R   0.679411 0.499919 0.760621 0.036923
C71   C     C_R   0.942661 0.559749 0.711303 -0.141546
H38   H     H_    0.930483 0.613604 0.716498 0.122683
C72   C     C_R   0.008904 0.556556 0.693623 -0.135448
H39   H     H_    0.047886 0.608034 0.685989 0.124954
C73   C     C_R   0.024136 0.486450 0.684795 -0.126729
H40   H     H_    0.075016 0.483658 0.670462 0.133205
C74   C     C_R   0.973113 0.419483 0.693607 -0.133921
H41   H     H_    0.984175 0.364631 0.685128 0.152341
C75   C     C_R   0.907462 0.422975 0.712430 -0.123994
H42   H     H_    0.867758 0.370315 0.718274 0.101984
C76   C     C_R   0.892030 0.493415 0.721715 0.140835
O9    O     O_R   0.051730 0.908360 0.460060 -0.626494
O10   O     O_R   0.948280 0.908380 0.356650 -0.625837
C77   C     C_R   0.997745 0.877254 0.380553 0.862317
O11   O     O_R   0.960110 0.908350 0.551690 -0.628148
O12   O     O_R   0.856660 0.908370 0.448270 -0.619331
C78   C     C_R   0.880002 0.877757 0.498166 0.845723
Zn3   Zn    Zn3+2 0.069070 0.999960 0.569030 0.963184
Zn4   Zn    Zn3+2 0.930930 0.999990 0.430930 0.968625
O13   O     O_R   0.051720 0.091580 0.643310 -0.621064
O14   O     O_R   0.948270 0.091600 0.539890 -0.614268
O15   O     O_R   0.143340 0.091590 0.551680 -0.584807
O16   O     O_R   0.039890 0.091610 0.448270 -0.638816
C79   C     C_R   0.000039 0.120546 0.619701 0.926429
C80   C     C_R   0.119856 0.119083 0.498658 0.941258
O17   O     O_R   0.051730 0.460050 0.908360 -0.615124
O18   O     O_R   0.948290 0.356630 0.908390 -0.627188
C81   C     C_R   0.003111 0.380326 0.882546 0.871327
O19   O     O_R   0.143340 0.551690 0.091580 -0.625183
O20   O     O_R   0.039900 0.448270 0.091610 -0.606400
C82   C     C_R   0.119543 0.496787 0.117456 0.868617
Zn5   Zn    Zn3+2 0.069070 0.569030 0.999960 0.970302
Zn6   Zn    Zn3+2 0.930930 0.430930 0.000000 0.966626
O21   O     O_R   0.051710 0.643320 0.091560 -0.613426
O22   O     O_R   0.948270 0.539900 0.091590 -0.622057
O23   O     O_R   0.960100 0.551680 0.908340 -0.615081
O24   O     O_R   0.856660 0.448270 0.908370 -0.620974
C83   C     C_R   0.998823 0.620429 0.119010 0.870026
C84   C     C_R   0.880334 0.498694 0.878216 0.864216
H43   H     H_    0.938748 0.655241 0.554842 0.117803
C85   C     C_R   0.028675 0.733964 0.528209 -0.135336
H44   H     H_    0.082085 0.768303 0.593998 0.112460
C86   C     C_R   0.040592 0.753448 0.465404 -0.065378
H45   H     H_    0.103938 0.802017 0.483112 0.128631
C87   C     C_R   0.971156 0.710241 0.380234 0.093775
C88   C     C_R   0.891507 0.643151 0.357585 -0.190035
H46   H     H_    0.838080 0.606920 0.291524 0.135965
C89   C     C_R   0.879621 0.624204 0.420656 -0.111787
H47   H     H_    0.817423 0.573975 0.403283 0.136642
C90   C     C_R   0.947996 0.669988 0.506071 -0.103843
C91   C     C_R   0.979516 0.668115 0.244968 -0.226928
H48   H     H_    0.966182 0.605443 0.241330 0.184375
C92   C     C_R   0.998420 0.687217 0.184773 -0.096479
C93   C     C_R   0.021087 0.770603 0.192007 0.013863
C94   C     C_R   0.016671 0.830204 0.255567 -0.265624
H49   H     H_    0.031428 0.893676 0.260796 0.144644
C95   C     C_R   0.998665 0.811093 0.315761 -0.077280
C96   C     C_R   0.983370 0.730911 0.313412 -0.022451
C97   C     C_R   0.146464 0.867864 0.188461 -0.158679
H50   H     H_    0.183952 0.896769 0.258192 0.131337
C98   C     C_R   0.186850 0.895100 0.144397 -0.206794
H51   H     H_    0.254415 0.945026 0.180218 0.145251
C99   C     C_R   0.141165 0.856561 0.054130 -0.136892
H52   H     H_    0.175390 0.876752 0.021639 0.130476
C100  C     C_R   0.053303 0.791507 0.006791 0.294571
C101  C     C_R   0.012552 0.764714 0.051908 -0.185894
H53   H     H_    0.945468 0.713467 0.016308 0.099646
C102  C     C_R   0.059471 0.801830 0.142823 0.113561
H54   H     H_    0.393319 0.606651 0.072721 0.108845
C103  C     C_R   0.279548 0.553196 0.950583 -0.132844
H55   H     H_    0.301453 0.612169 0.946081 0.104596
C104  C     C_R   0.199463 0.480147 0.884938 -0.019686
H56   H     H_    0.159957 0.483129 0.829776 0.120059
C105  C     C_R   0.170162 0.403819 0.891030 0.105438
C106  C     C_R   0.224044 0.400189 0.961294 -0.219191
H57   H     H_    0.204610 0.340461 0.964681 0.126434
C107  C     C_R   0.303903 0.473467 0.027033 -0.095729
H58   H     H_    0.344707 0.470690 0.081642 0.131534
C108  C     C_R   0.331442 0.550049 0.021887 -0.093548
C109  C     C_R   0.083147 0.262008 0.753138 -0.093632
C110  C     C_R   0.001840 0.189335 0.685257 -0.110901
C111  C     C_R   0.923074 0.182537 0.681524 -0.031046
C112  C     C_R   0.926700 0.245069 0.749524 -0.274584
H59   H     H_    0.866608 0.240189 0.747728 0.162567
C113  C     C_R   0.006153 0.315575 0.817956 -0.091540
C114  C     C_R   0.085409 0.325793 0.820578 -0.096374
C115  C     C_R   0.779451 0.137624 0.561508 -0.149034
H60   H     H_    0.798683 0.205615 0.582203 0.128407
C116  C     C_R   0.698409 0.073746 0.488826 -0.142425
H61   H     H_    0.655422 0.092486 0.454440 0.133980
C117  C     C_R   0.673435 0.985771 0.459812 -0.155563
H62   H     H_    0.611237 0.936224 0.402818 0.129546
C118  C     C_R   0.729025 0.961753 0.504183 -0.045476
H63   H     H_    0.710454 0.893893 0.480681 0.142362
C119  C     C_R   0.809183 0.025276 0.578191 -0.050520
H64   H     H_    0.851143 0.005561 0.612444 0.110375
C120  C     C_R   0.835963 0.113851 0.606290 0.105133
N1    N     N_2   0.286189 0.695549 0.436448 -0.281185
H65   H     H_    0.284624 0.704926 0.493364 0.220874
C121  C     C_3   0.235763 0.725559 0.389023 -0.749686
H66   H     H_    0.175122 0.668522 0.331134 0.277978
H67   H     H_    0.271952 0.765481 0.366889 0.218266
H68   H     H_    0.217433 0.765261 0.430532 0.213998
N2    N     N_2   0.795836 0.918765 0.874499 -0.331703
H69   H     H_    0.746798 0.931830 0.848706 0.215831
C122  C     C_3   0.819272 0.932550 0.961810 -0.836929
H70   H     H_    0.823105 0.994403 0.001221 0.237718
H71   H     H_    0.884031 0.937876 0.993285 0.251369
H72   H     H_    0.769161 0.878668 0.960336 0.239662
C123  C     C_2   0.121233 0.470889 0.354575 0.392651
H73   H     H_    0.096621 0.416831 0.291606 0.064934
O25   O     O_2   0.105825 0.530245 0.357633 -0.579923
C124  C     C_2   0.774527 0.910373 0.713267 0.304057
H74   H     H_    0.806320 0.976172 0.766409 0.070792
O26   O     O_2   0.731556 0.895535 0.639780 -0.619712
C125  C     C_2   0.397014 0.501097 0.822347 0.363127
H75   H     H_    0.394465 0.561313 0.844686 0.039684
O27   O     O_2   0.340708 0.436252 0.812185 -0.573298
N3    N     N_2   0.547801 0.342848 0.736074 -0.310036
H76   H     H_    0.514968 0.298743 0.751032 0.211239
C126  C     C_3   0.544434 0.303661 0.653117 -0.765726
H77   H     H_    0.495288 0.233530 0.614676 0.224618
H78   H     H_    0.608641 0.309356 0.664534 0.259632
H79   H     H_    0.527180 0.335191 0.614006 0.230694
N4    N     N_2   0.007451 0.748940 0.914097 -0.303732
H80   H     H_    0.945394 0.698363 0.885187 0.222335
C127  C     C_3   0.015063 0.804223 0.874528 -0.819086
H81   H     H_    0.972839 0.763982 0.802973 0.240746
H82   H     H_    0.082436 0.838272 0.887049 0.236198
H83   H     H_    0.994864 0.852452 0.899548 0.252935
C128  C     C_2   0.165691 0.274817 0.752076 0.468956
H84   H     H_    0.224596 0.301093 0.811882 0.103466
O28   O     O_2   0.169288 0.259437 0.684998 -0.566149

loop_
_geom_bond_atom_site_label_1
_geom_bond_atom_site_label_2
_geom_bond_distance
_ccdc_geom_bond_type
C91   C96   1.383574 A    
C107  C108  1.397417 A    
C30   C31   1.416619 A    
C36   C37   1.395865 A    
C42   H24   1.082616 S    
C75   H42   1.082627 S    
O12   C78   1.275961 A    
C103  C108  1.397731 A    
C111  C120  1.485680 S    
C41   C42   1.395749 A    
C41   H23   1.082382 S    
C122  H70   1.110060 S    
C83   C92   1.439003 S    
C79   C110  1.435934 S    
Zn4   O16   2.022538 S    
H43   C90   1.082669 S    
C98   H51   1.082490 S    
C32   H16   1.085141 S    
C122  H72   1.111175 S    
C97   C102  1.403601 A    
C67   C76   1.481303 S    
C49   C50   1.383122 A    
C127  H81   1.108853 S    
C121  H68   1.110603 S    
Zn1   O7    2.020682 S    
C106  C107  1.397967 A    
C88   C89   1.398536 A    
C126  H79   1.110611 S    
C43   C52   1.477545 S    
C12   C13   1.415432 A    
C59   H33   1.083296 S    
C47   C52   1.384398 A    
C62   N3    1.427129 S    
H54   C108  1.081674 S    
C14   H5    1.085520 S    
C8    C9    1.390074 A    
C11   C12   1.399157 A    
C18   H7    1.081907 S    
O2    C1    1.280581 A    
C39   H21   1.075691 S    
C101  C102  1.406931 A    
C15   C16   1.408791 A    
O15   C80   1.276454 A    
C44   C45   1.405767 A    
H11   C28   1.082022 S    
C32   C33   1.394842 A    
C62   C63   1.405902 A    
N1    C121  1.451400 S    
C59   C64   1.400135 A    
C57   H32   1.081839 S    
C115  C120  1.407051 A    
N3    H76   1.031219 S    
C39   C40   1.403987 A    
C7    C8    1.399894 A    
C24   C25   1.414316 A    
C41   C46   1.396953 A    
C104  C105  1.404792 A    
O5    C3    1.277316 A    
C95   C96   1.409499 A    
Zn5   O23   2.021598 S    
C65   C66   1.394781 A    
O1    Zn1   2.020817 S    
C25   C34   1.478504 S    
C100  C101  1.410875 A    
C88   H46   1.083225 S    
C53   C54   1.397273 A    
C71   C76   1.404980 A    
O17   C81   1.273550 A    
O20   C82   1.274331 A    
C128  O28   1.220530 D    
C5    C6    1.421723 A    
C37   C38   1.395391 A    
C56   C57   1.400323 A    
C112  H59   1.085694 S    
O12   Zn4   2.013237 S    
C27   C28   1.396110 A    
C63   H35   1.083493 S    
C97   H50   1.080338 S    
C110  C111  1.412534 A    
O21   C83   1.274609 A    
C117  C118  1.395736 A    
C125  H75   1.085658 S    
O24   C84   1.278712 A    
H22   C46   1.082659 S    
C43   C44   1.403434 A    
C51   C52   1.408002 A    
C35   C40   1.409098 A    
H1    C10   1.080821 S    
C107  H58   1.082411 S    
C111  C112  1.378026 A    
C89   C90   1.397238 A    
O9    Zn3   2.022170 S    
C9    H3    1.076800 S    
C71   H38   1.082036 S    
C85   C86   1.398689 A    
C63   C64   1.406393 A    
C61   C70   1.480324 S    
C5    N2    1.434394 S    
C124  H74   1.085092 S    
C105  C114  1.487937 S    
O3    Zn1   2.015245 S    
C100  N4    1.426491 S    
C65   C70   1.381372 A    
C53   C58   1.402398 A    
C66   C67   1.408931 A    
C29   C34   1.378772 A    
C94   C95   1.392157 A    
C85   C90   1.397528 A    
C68   H37   1.085202 S    
O19   C82   1.283082 A    
C29   C30   1.393232 A    
C20   H9    1.082655 S    
C126  H78   1.109630 S    
C113  C114  1.413080 A    
C93   C102  1.486525 S    
C50   C51   1.396678 A    
C38   H20   1.081672 S    
C25   C26   1.401078 A    
O20   Zn6   2.021597 S    
C11   H4    1.085110 S    
Zn4   O14   2.022134 S    
O18   Zn6   2.015881 S    
O1    C1    1.276958 A    
C116  H61   1.082305 S    
C117  H62   1.082449 S    
C87   C96   1.484559 S    
C23   C24   1.403656 A    
C27   H14   1.076251 S    
C121  H66   1.109408 S    
C29   H15   1.084820 S    
O14   C79   1.275581 A    
C104  H56   1.082613 S    
C65   H36   1.085545 S    
C38   C39   1.398470 A    
C77   C95   1.427311 S    
C17   C18   1.398395 A    
C55   C56   1.397955 A    
C101  H53   1.083728 S    
N2    H69   1.031716 S    
C12   C78   1.435992 S    
O19   Zn5   2.012254 S    
C42   C43   1.401768 A    
N4    C127  1.449421 S    
C123  H73   1.082789 S    
O22   C83   1.286290 A    
C48   C80   1.431711 S    
Zn2   O8    2.015248 S    
C31   C40   1.492821 S    
C56   H31   1.081841 S    
C54   C55   1.396917 A    
C6    C7    1.427103 A    
C55   H30   1.081610 S    
C60   C61   1.402457 A    
C119  H64   1.082679 S    
C48   C49   1.406636 A    
O23   C84   1.277274 A    
C124  O26   1.217692 D    
C26   C27   1.392716 A    
C125  O27   1.219829 D    
C93   C94   1.383033 A    
C118  C119  1.397601 A    
Zn2   O6    2.020820 S    
C21   H10   1.075224 S    
C123  O25   1.220789 D    
C115  C116  1.398054 A    
C24   N1    1.422442 S    
C5    C10   1.408345 A    
C47   C48   1.395847 A    
C9    C10   1.387662 A    
Zn6   O24   2.012379 S    
C85   H44   1.082277 S    
Zn6   O22   2.021176 S    
O3    C2    1.275374 A    
C121  H67   1.112871 S    
C31   C32   1.388913 A    
C73   C74   1.397228 A    
C94   H49   1.085455 S    
C81   C113  1.432977 S    
C13   C14   1.384287 A    
C128  H84   1.084190 S    
C72   C73   1.397080 A    
C74   C75   1.399539 A    
C67   C68   1.385399 A    
C59   C60   1.394396 A    
C105  C106  1.404127 A    
Zn3   O13   2.014729 S    
C127  H82   1.108229 S    
O13   C79   1.279826 A    
C126  H77   1.108959 S    
C91   H48   1.085204 S    
C75   C76   1.404141 A    
C99   C100  1.407719 A    
C2    C15   1.429828 S    
C50   H27   1.083572 S    
N1    H65   1.031403 S    
C35   C36   1.397824 A    
O10   Zn4   2.014601 S    
C23   H12   1.082945 S    
O8    C4    1.280377 A    
C45   C46   1.406124 A    
O6    C3    1.280799 A    
C35   H17   1.081788 S    
O4    Zn2   2.020679 S    
C68   C69   1.396179 A    
C6    C124  1.486432 S    
C122  H71   1.111249 S    
O16   C80   1.279071 A    
C87   C88   1.405621 A    
C61   C62   1.414278 A    
Zn3   O15   2.013487 S    
C109  C128  1.490758 S    
C57   C58   1.402657 A    
C1    C33   1.432873 S    
C127  H83   1.111182 S    
O18   C81   1.284025 A    
C91   C92   1.399328 A    
C106  H57   1.082437 S    
C8    H2    1.083177 S    
Zn5   O21   2.015668 S    
O10   C77   1.281297 A    
C11   C16   1.385332 A    
C4    C51   1.432844 S    
C14   C15   1.392640 A    
N2    C122  1.448037 S    
C66   C84   1.429896 S    
C17   H6    1.083246 S    
C19   C20   1.396711 A    
C20   C21   1.397614 A    
C44   H25   1.083559 S    
C13   C22   1.489047 S    
C23   C28   1.396226 A    
C53   H28   1.081695 S    
O4    C2    1.280816 A    
C19   H8    1.082424 S    
O11   Zn3   2.022449 S    
C26   H13   1.083083 S    
C30   C82   1.431557 S    
N4    H80   1.030232 S    
C21   C22   1.403341 A    
C54   H29   1.082269 S    
O7    C4    1.277468 A    
C18   C19   1.397169 A    
N3    C126  1.450136 S    
C69   C70   1.408574 A    
C109  C114  1.397878 A    
C116  C117  1.396398 A    
C37   H19   1.081456 S    
C45   C123  1.477840 S    
C109  C110  1.415431 A    
C86   H45   1.083168 S    
C71   C72   1.397818 A    
C103  C104  1.398110 A    
C3    C69   1.433414 S    
C119  C120  1.403280 A    
O17   Zn5   2.021390 S    
C36   H18   1.081917 S    
Zn1   O5    2.013072 S    
C89   H47   1.082357 S    
C33   C34   1.405735 A    
C115  H60   1.083360 S    
O11   C78   1.282624 A    
C118  H63   1.077577 S    
C92   C93   1.416623 A    
O2    Zn2   2.013071 S    
C60   H34   1.083377 S    
C49   C58   1.478767 S    
C17   C22   1.407356 A    
C72   H39   1.082455 S    
C74   H41   1.081040 S    
C103  H55   1.082249 S    
C7    C16   1.490354 S    
C47   H26   1.085340 S    
C73   H40   1.082571 S    
C98   C99   1.393006 A    
C112  C113  1.389778 A    
C99   H52   1.080638 S    
C86   C87   1.405211 A    
C97   C98   1.392232 A    
O9    C77   1.273453 A    
C64   C125  1.477506 S    
