data_mof_unit_25114.cif
_audit_creation_date              2012-12-10T20:37:33-0500
_audit_creation_method            fapswitch 2.2
_symmetry_space_group_name_H-M    P1
_symmetry_Int_Tables_number       1
_space_group_crystal_system       triclinic
_cell_length_a                    15.712912
_cell_length_b                    10.623213
_cell_length_c                    9.906351
_cell_angle_alpha                 91.026139
_cell_angle_beta                  89.748484
_cell_angle_gamma                 90.040547
_cell_volume                      1653.30262448

loop_
_atom_site_label
_atom_site_type_symbol
_atom_type_description
_atom_site_fract_x
_atom_site_fract_y
_atom_site_fract_z
_atom_type_partial_charge
Br1   Br    Br    0.701389 0.857591 0.730837 -0.502265
Br2   Br    Br    0.928283 0.223700 0.587098 -0.538656
C1    C     C_R   0.499768 0.260471 0.499214 0.878358
C2    C     C_R   0.500934 0.128517 0.496702 -0.073619
C3    C     C_R   0.440562 0.063215 0.419716 -0.248429
C4    C     C_R   0.338013 0.499651 0.500246 0.887850
C5    C     C_R   0.440533 0.933330 0.419902 -0.200799
C6    C     C_R   0.498997 0.871229 0.501091 -0.121206
C7    C     C_R   0.563503 0.936522 0.567274 0.111590
C8    C     C_3   0.589855 0.933498 0.711789 0.097149
C9    C     C_3   0.591919 0.076425 0.708967 -0.506633
C10   C     C_R   0.425659 0.505930 0.070514 0.185828
C11   C     C_R   0.574205 0.502740 0.071396 -0.122048
C12   C     C_3   0.082856 0.498935 0.501085 0.116784
C13   C     C_R   0.574234 0.501474 0.927783 -0.121975
C14   C     C_R   0.425803 0.513392 0.928927 0.179067
C15   C     C_3   0.348112 0.434513 0.913429 -0.490384
C16   C     C_R   0.499159 0.739438 0.500953 0.896651
C17   C     C_3   0.352237 0.414501 0.065484 -0.166933
C18   C     C_R   0.661988 0.500258 0.499780 0.929844
C19   C     C_3   0.971576 0.386845 0.535802 0.331130
C20   C     C_3   0.028382 0.411492 0.411631 -0.221254
C21   C     C_1   0.249088 0.498917 0.500881 -0.198962
C22   C     C_1   0.750917 0.500672 0.499352 -0.137011
C23   C     C_3   0.971526 0.587836 0.589708 -0.215302
C24   C     C_3   0.027529 0.473047 0.625645 -0.215751
C25   C     C_3   0.373017 0.277873 0.107300 -0.336700
C26   C     C_3   0.441192 0.208417 0.020894 -0.337428
C27   C     C_3   0.474966 0.091666 0.089778 -0.863439
C28   C     C_3   0.063783 0.740443 0.425671 -0.447547
C29   C     C_3   0.992216 0.833922 0.396756 -0.318128
C30   C     C_3   0.028067 0.961592 0.356914 -0.802490
C31   C     C_3   0.917102 0.500436 0.499997 0.111637
C32   C     C_3   0.028166 0.612384 0.465384 0.162341
C33   C     C_3   0.972413 0.526205 0.375282 -0.227641
C34   C     C_1   0.173773 0.498544 0.501221 -0.065200
C35   C     C_1   0.826234 0.500801 0.499468 0.009255
C36   C     C_R   0.564699 0.065226 0.564815 0.078168
H1    H     H_    0.053402 0.338788 0.340017 0.158438
H2    H     H_    0.946387 0.660149 0.661670 0.171517
H3    H     H_    0.051901 0.450329 0.727364 0.161909
H4    H     H_    0.391893 0.112303 0.364452 0.147797
H5    H     H_    0.392866 0.881819 0.362546 0.150775
H6    H     H_    0.539849 0.895178 0.779463 0.139537
H7    H     H_    0.513390 0.119748 0.179007 0.289304
H8    H     H_    0.421651 0.029597 0.120501 0.258197
H9    H     H_    0.516844 0.038087 0.018838 0.254216
H10   H     H_    0.413117 0.177010 0.923339 0.208967
H11   H     H_    0.495989 0.270608 0.999683 0.241739
H12   H     H_    0.542781 0.121257 0.774857 0.187332
H13   H     H_    0.392501 0.281421 0.214155 0.236224
H14   H     H_    0.313224 0.222045 0.102861 0.180200
H15   H     H_    0.066830 0.002482 0.440364 0.271869
H16   H     H_    0.068231 0.951617 0.264787 0.244311
H17   H     H_    0.974931 0.027018 0.335482 0.277882
H18   H     H_    0.951908 0.796748 0.313140 0.225134
H19   H     H_    0.951566 0.846829 0.488087 0.252653
H20   H     H_    0.103975 0.777451 0.509476 0.208563
H21   H     H_    0.104404 0.727537 0.334352 0.202600
H22   H     H_    0.656650 0.117749 0.718762 0.250633
H23   H     H_    0.634179 0.502910 0.124358 0.166910
H24   H     H_    0.634250 0.499982 0.874111 0.178671
H25   H     H_    0.292554 0.492393 0.883745 0.182161
H26   H     H_    0.357907 0.351044 0.846631 0.215297
H27   H     H_    0.295561 0.453267 0.119493 0.157845
H28   H     H_    0.948036 0.548580 0.273469 0.152802
N1    N     N_R   0.499430 0.499140 0.142800 -0.110416
N2    N     N_R   0.499430 0.499180 0.857150 -0.112142
O1    O     O_R   0.500010 0.316790 0.614690 -0.624946
O2    O     O_R   0.500000 0.316760 0.385350 -0.628867
O3    O     O_R   0.376780 0.500010 0.614650 -0.616566
O4    O     O_R   0.376770 0.499970 0.385310 -0.633586
O5    O     O_R   0.500000 0.683240 0.614650 -0.610993
O6    O     O_R   0.499990 0.683210 0.385310 -0.608513
O7    O     O_R   0.623230 0.500030 0.614690 -0.603987
O8    O     O_R   0.623220 0.499990 0.385350 -0.623504
Zn1   Zn    Zn3+2 0.500010 0.500020 0.653130 0.955963
Zn2   Zn    Zn3+2 0.499990 0.499980 0.346870 0.948222

loop_
_geom_bond_atom_site_label_1
_geom_bond_atom_site_label_2
_ccdc_geom_bond_type
C3    H4    S    
O2    Zn2   S    
O1    Zn1   S    
C19   C24   S    
C5    C6    A    
C4    O4    A    
C20   C33   S    
C27   H9    S    
C26   C27   S    
C1    O1    A    
O8    Zn2   S    
C23   H2    S    
C12   C34   S    
C28   C29   S    
C19   C31   S    
C13   N2    A    
C18   O8    A    
C32   C33   S    
O4    Zn2   S    
C31   C33   S    
C10   C14   A    
C14   C15   S    
C14   N2    A    
C5    H5    S    
C29   H18   S    
C17   C25   S    
C7    C8    S    
C30   H17   S    
C23   C32   S    
C16   O6    A    
C19   C20   S    
N1    Zn2   S    
C30   H16   S    
C25   H13   S    
C4    O3    A    
C10   N1    A    
C28   C32   S    
C8    H6    S    
C18   C22   S    
C1    O2    A    
C3    C5    A    
C6    C7    A    
C33   H28   S    
C23   C24   S    
C31   C35   S    
C18   O7    A    
C27   H7    S    
C9    C36   S    
C26   H11   S    
C29   C30   S    
C28   H21   S    
Br2   C19   S    
C22   C35   T    
C12   C24   S    
O7    Zn1   S    
C2    C36   A    
C16   O5    A    
C11   C13   A    
C9    H22   S    
C30   H15   S    
O3    Zn1   S    
C25   H14   S    
C11   N1    A    
N2    Zn1   S    
C26   H10   S    
C20   H1    S    
Br1   C8    S    
C2    C3    A    
C12   C32   S    
C27   H8    S    
C29   H19   S    
C15   H26   S    
C9    H12   S    
C15   H25   S    
C12   C20   S    
C4    C21   S    
C28   H20   S    
C10   C17   S    
C7    C36   A    
C15   C17   S    
C13   H24   S    
C17   H27   S    
C6    C16   S    
C8    C9    S    
C11   H23   S    
C21   C34   T    
O6    Zn2   S    
C25   C26   S    
O5    Zn1   S    
C1    C2    S    
C24   H3    S    
C23   C31   S    
