data_mof_unit_35825.cif
_audit_creation_date              2012-10-26T19:57:23-0400
_audit_creation_method            fapswitch 2.2
_symmetry_space_group_name_H-M    P1
_symmetry_Int_Tables_number       1
_space_group_crystal_system       triclinic
_cell_length_a                    13.016066
_cell_length_b                    10.907467
_cell_length_c                    9.748491
_cell_angle_alpha                 89.4804
_cell_angle_beta                  96.610174
_cell_angle_gamma                 90.239903
_cell_volume                      1374.75190818

loop_
_atom_site_label
_atom_site_type_symbol
_atom_type_description
_atom_site_fract_x
_atom_site_fract_y
_atom_site_fract_z
_atom_type_partial_charge
C1    C     C_R   0.497053 0.265396 0.500311 0.570347
C2    C     C_2   0.483422 0.133604 0.501894 -0.129986
C3    C     C_2   0.421240 0.527797 0.913361 -0.000457
C4    C     C_R   0.300727 0.501272 0.473829 0.543420
C5    C     C_2   0.431470 0.554095 0.066360 -0.044889
C6    C     C_R   0.497457 0.734730 0.498444 0.542360
C7    C     C_R   0.699484 0.496013 0.525671 0.572077
C8    C     C_R   0.812862 0.495264 0.538314 0.015072
C9    C     C_R   0.187976 0.505683 0.457973 -0.016003
C10   C     C_R   0.024930 0.517044 0.310008 0.016123
C11   C     C_R   0.132702 0.507524 0.326303 -0.123955
C12   C     C_R   0.028075 0.514733 0.561257 0.021247
C13   C     C_R   0.135529 0.515305 0.574797 -0.133516
C14   C     C_3   0.603723 0.532992 0.909488 -0.052586
C15   C     C_3   0.623109 0.672600 0.901496 -0.264617
C16   C     C_3   0.668839 0.724471 0.040250 -0.469790
C17   C     C_3   0.971889 0.559736 0.170676 -0.248087
C18   C     C_3   0.024824 0.674161 0.116272 -0.316603
C19   C     C_3   0.955684 0.740241 0.002145 -0.454117
C20   C     C_3   0.399354 0.877913 0.256564 -0.226352
C21   C     C_3   0.332678 0.967769 0.162286 -0.312195
C22   C     C_3   0.264598 0.899483 0.049626 -0.461647
C23   C     C_R   0.971714 0.503955 0.428715 0.066917
C24   C     C_R   0.865545 0.476153 0.420966 0.067292
C25   C     C_R   0.869308 0.518775 0.666608 -0.157549
C26   C     C_R   0.976560 0.522471 0.679080 -0.143225
C27   C     C_2   0.459381 0.935717 0.384030 -0.025634
C28   C     C_2   0.499251 0.867819 0.494752 -0.109589
C29   C     C_2   0.478820 0.068787 0.385571 -0.138123
Cu1   Cu    Cu3+1 0.500020 0.500020 0.638640 0.921368
Cu2   Cu    Cu3+1 0.499980 0.499980 0.361360 0.937566
H1    H     H_    0.470624 0.090946 0.599545 0.101024
H2    H     H_    0.487463 0.114706 0.288362 0.154685
H3    H     H_    0.612088 0.717056 0.116626 0.186327
H4    H     H_    0.739545 0.673540 0.080097 0.155867
H5    H     H_    0.688823 0.822676 0.027666 0.141069
H6    H     H_    0.677095 0.692017 0.823501 0.156218
H7    H     H_    0.550027 0.722626 0.869407 0.183269
H8    H     H_    0.627645 0.497096 0.012936 0.129054
H9    H     H_    0.662440 0.482487 0.861094 0.156049
H10   H     H_    0.922898 0.674679 0.922435 0.151286
H11   H     H_    0.891859 0.787374 0.046314 0.158620
H12   H     H_    0.345471 0.539233 0.856063 0.115407
H13   H     H_    0.001633 0.810449 0.952613 0.149479
H14   H     H_    0.045604 0.739803 0.201759 0.174035
H15   H     H_    0.096892 0.646503 0.073972 0.141859
H16   H     H_    0.972524 0.484518 0.094621 0.161934
H17   H     H_    0.890666 0.584419 0.180342 0.172267
H18   H     H_    0.313099 0.845602 0.985540 0.144012
H19   H     H_    0.210800 0.836683 0.096415 0.144721
H20   H     H_    0.218307 0.966314 0.981972 0.154253
H21   H     H_    0.282308 0.021211 0.224331 0.176621
H22   H     H_    0.382907 0.032097 0.111120 0.159317
H23   H     H_    0.379141 0.619288 0.104595 0.120223
H24   H     H_    0.454902 0.833089 0.194652 0.160113
H25   H     H_    0.346253 0.806993 0.291673 0.159085
H26   H     H_    0.521622 0.414444 0.120108 0.234913
H27   H     H_    0.830692 0.530901 0.758106 0.117139
H28   H     H_    0.019242 0.533825 0.780405 0.108561
H29   H     H_    0.173812 0.508383 0.235836 0.125880
H30   H     H_    0.178083 0.520437 0.676968 0.116799
H31   H     H_    0.540292 0.910535 0.585208 0.086005
I1    I     I_    0.799282 0.357709 0.257601 -0.452712
N1    N     N_2   0.498860 0.498660 0.846770 -0.237597
N2    N     N_2   0.498840 0.498630 0.152900 -0.353397
O1    O     O_R   0.500020 0.321960 0.617050 -0.486467
O2    O     O_R   0.499980 0.321920 0.382890 -0.489569
O3    O     O_R   0.349010 0.500000 0.598060 -0.509784
O4    O     O_R   0.348980 0.499950 0.363910 -0.510259
O5    O     O_R   0.500020 0.678080 0.617110 -0.512613
O6    O     O_R   0.499980 0.678040 0.382950 -0.501806
O7    O     O_R   0.651020 0.500050 0.636090 -0.531529
O8    O     O_R   0.650990 0.500000 0.401940 -0.455225

loop_
_geom_bond_atom_site_label_1
_geom_bond_atom_site_label_2
_ccdc_geom_bond_type
Cu1   O7    S    
C23   C24   A    
C17   H17   S    
C15   H7    S    
C1    O2    A    
C20   C27   S    
Cu1   N1    S    
C10   C23   A    
C27   C29   S    
C17   H16   S    
C26   H28   S    
C1    C2    S    
C7    O7    A    
C19   H11   S    
C22   H19   S    
C19   H13   S    
C20   H25   S    
C14   N1    S    
C3    C5    S    
Cu2   O6    S    
C17   C18   S    
C25   C26   A    
C19   H10   S    
C7    C8    S    
C7    O8    A    
C3    N1    D    
C16   H5    S    
Cu2   O2    S    
C8    C25   A    
C9    C11   A    
C12   C23   A    
C3    H12   S    
Cu1   O1    S    
C22   H18   S    
C15   C16   S    
C21   H22   S    
C2    H1    S    
C4    O4    A    
C8    C24   A    
C1    O1    A    
C24   I1    S    
C2    C29   D    
C16   H4    S    
Cu1   Cu2   S    
C14   H8    S    
Cu1   O3    S    
Cu2   O8    S    
C20   H24   S    
C10   C11   A    
C10   C17   S    
C14   H9    S    
C12   C13   A    
C18   H14   S    
C18   H15   S    
C5    H23   S    
Cu2   O4    S    
C13   H30   S    
C20   C21   S    
Cu1   O5    S    
C5    N2    D    
C18   C19   S    
C25   H27   S    
C12   C26   A    
C27   C28   D    
C6    O5    A    
Cu2   N2    S    
C14   C15   S    
C15   H6    S    
C9    C13   A    
C16   H3    S    
C4    C9    S    
C21   C22   S    
C4    O3    A    
C21   H21   S    
C6    C28   S    
C11   H29   S    
C29   H2    S    
H26   N2    S    
C22   H20   S    
C6    O6    A    
C28   H31   S    
