data_mof_unit_31172.cif
_audit_creation_date              2012-12-10T18:06:43-0500
_audit_creation_method            fapswitch 2.2
_symmetry_space_group_name_H-M    P1
_symmetry_Int_Tables_number       1
_space_group_crystal_system       triclinic
_cell_length_a                    12.634088
_cell_length_b                    13.008908
_cell_length_c                    15.429184
_cell_angle_alpha                 83.496445
_cell_angle_beta                  98.439111
_cell_angle_gamma                 98.495619
_cell_volume                      2469.99770717

loop_
_atom_site_label
_atom_site_type_symbol
_atom_type_description
_atom_site_fract_x
_atom_site_fract_y
_atom_site_fract_z
_atom_type_partial_charge
C1    C     C_R   0.441916 0.307784 0.508483 0.855861
C2    C     C_R   0.418904 0.440162 0.105470 0.096629
C3    C     C_R   0.311008 0.454227 0.071553 0.170325
C4    C     C_R   0.487940 0.411641 0.050601 0.063910
C5    C     C_R   0.455106 0.418452 0.958969 0.070772
C6    C     C_R   0.345422 0.426649 0.927047 -0.219636
C7    C     C_R   0.273907 0.442013 0.983274 -0.221643
C8    C     C_R   0.589688 0.379658 0.083796 -0.216082
C9    C     C_R   0.662784 0.368948 0.027398 -0.203352
C10   C     C_R   0.638067 0.393841 0.937237 0.161025
C11   C     C_R   0.534107 0.419726 0.902579 0.090758
C12   C     C_R   0.434714 0.509039 0.336427 0.853118
C13   C     C_R   0.716738 0.395980 0.881416 -0.188166
C14   C     C_R   0.694233 0.427406 0.791992 -0.181139
C15   C     C_R   0.514871 0.454545 0.813609 -0.242921
C16   C     C_R   0.620842 0.940290 0.352275 -0.170365
C17   C     C_R   0.585991 0.802649 0.467281 -0.081603
C18   C     C_R   0.339977 0.152369 0.579974 -0.150914
C19   C     C_R   0.319885 0.044617 0.597672 -0.124235
C20   C     C_R   0.374647 0.980738 0.558632 -0.146548
C21   C     C_R   0.449395 0.024480 0.500547 0.096850
C22   C     C_R   0.451096 0.130319 0.468973 0.092831
C23   C     C_R   0.557067 0.692019 0.488851 0.895573
C24   C     C_R   0.518241 0.965449 0.469144 0.039479
C25   C     C_R   0.564126 0.003698 0.390957 0.146186
C26   C     C_R   0.551787 0.104161 0.352225 -0.216110
C27   C     C_R   0.498201 0.167916 0.392030 -0.195437
C28   C     C_R   0.544558 0.870207 0.513088 0.065467
C29   C     C_R   0.627178 0.838026 0.388193 -0.223490
C30   C     C_R   0.405850 0.195842 0.515781 -0.101346
C31   C     C_R   0.143663 0.669073 0.600413 -0.305167
C32   C     C_R   0.756507 0.384520 0.391419 -0.020633
C33   C     C_R   0.850100 0.375761 0.357307 0.131842
C34   C     C_R   0.563076 0.484429 0.663978 0.874102
C35   C     C_R   0.946919 0.430387 0.392481 -0.179705
C36   C     C_R   0.950982 0.487086 0.465885 -0.009936
C37   C     C_R   0.853196 0.503001 0.491445 0.218946
C38   C     C_R   0.048211 0.532555 0.511585 -0.030784
C39   C     C_R   0.046681 0.614533 0.564138 0.162795
C40   C     C_R   0.948301 0.636843 0.582810 -0.254913
C41   C     C_R   0.852869 0.577266 0.550753 -0.190817
C42   C     C_R   0.146032 0.493787 0.513196 0.217945
C43   C     C_R   0.240167 0.638742 0.586335 -0.018534
C44   C     C_R   0.390920 0.495104 0.244779 -0.060173
C45   C     C_R   0.593222 0.457871 0.758096 -0.053140
C46   C     C_R   0.242841 0.483362 0.125883 -0.187385
C47   C     C_R   0.282511 0.503270 0.212410 -0.167903
C48   C     C_R   0.457718 0.463932 0.191178 -0.270952
H1    H     H_    0.190844 0.449656 0.956645 0.151229
H2    H     H_    0.795937 0.374815 0.907129 0.145362
H3    H     H_    0.659542 0.785429 0.352450 0.168848
H4    H     H_    0.585756 0.134334 0.292385 0.165494
H5    H     H_    0.654118 0.967558 0.291622 0.161594
H6    H     H_    0.305978 0.201557 0.617678 0.175489
H7    H     H_    0.356519 0.897248 0.572783 0.156485
H8    H     H_    0.490992 0.245781 0.360648 0.153953
H9    H     H_    0.316055 0.682503 0.610928 0.168474
H10   H     H_    0.439724 0.482888 0.786954 0.167598
H11   H     H_    0.945504 0.696694 0.625605 0.164768
H12   H     H_    0.144797 0.734414 0.638461 0.156080
H13   H     H_    0.679832 0.345219 0.363360 0.144912
H14   H     H_    0.018299 0.428703 0.361897 0.183895
H15   H     H_    0.780215 0.592416 0.571755 0.213953
H16   H     H_    0.755632 0.428084 0.749695 0.167026
H17   H     H_    0.740787 0.346095 0.054703 0.180552
H18   H     H_    0.228729 0.525302 0.253587 0.167100
H19   H     H_    0.541758 0.462307 0.216204 0.165273
H20   H     H_    0.312635 0.419781 0.858960 0.153476
H21   H     H_    0.613809 0.360945 0.153196 0.162855
N1    N     N_R   0.239390 0.551900 0.544730 -0.116218
N2    N     N_R   0.759950 0.448600 0.455730 -0.141264
O1    O     O_R   0.374950 0.371210 0.521360 -0.577701
O2    O     O_R   0.542050 0.338030 0.492790 -0.607231
O3    O     O_R   0.368720 0.526070 0.390200 -0.600130
O4    O     O_R   0.535820 0.492890 0.361630 -0.629115
O5    O     O_R   0.457950 0.661970 0.507210 -0.598652
O6    O     O_R   0.625050 0.628790 0.478640 -0.629128
O7    O     O_R   0.464180 0.507110 0.638370 -0.605459
O8    O     O_R   0.631280 0.473930 0.609800 -0.631396
Zn1   Zn    Zn3+2 0.388420 0.522150 0.519080 0.973110
Zn2   Zn    Zn3+2 0.611580 0.477850 0.480920 0.934721
I1    I     I_    0.553123 0.833368 0.653255 -0.412193
H22   H     H_    0.265482 0.010767 0.644463 0.151983
I2    I     I_    0.142030 0.330100 0.504690 -0.354736
I3    I     I_    0.845483 0.281894 0.253752 -0.449058
H23   H     H_    0.159632 0.492468 0.101014 0.146665

loop_
_geom_bond_atom_site_label_1
_geom_bond_atom_site_label_2
_ccdc_geom_bond_type
C12   O3    A    
C17   C29   A    
C19   C20   A    
C23   O5    A    
C4    C8    A    
C8    H21   S    
C17   C23   S    
C31   C43   A    
C36   C37   A    
C32   H13   S    
C38   C42   A    
C3    C7    A    
C5    C6    A    
O7    Zn1   S    
C42   N1    A    
C18   C19   A    
C33   I3    S    
C16   H5    S    
C11   C15   A    
C35   C36   A    
C8    C9    A    
C18   C30   A    
C32   N2    A    
C9    C10   A    
C47   H18   S    
C44   C47   A    
C6    H20   S    
C40   H11   S    
O3    Zn1   S    
C13   C14   A    
C20   H7    S    
C19   H22   S    
O2    Zn2   S    
C14   C45   A    
C1    O1    A    
C28   I1    S    
C24   C28   A    
C42   I2    S    
C24   C25   A    
C7    H1    S    
C39   C40   A    
O8    Zn2   S    
C43   H9    S    
C27   H8    S    
O4    Zn2   S    
C2    C48   A    
C25   C26   A    
N1    Zn1   S    
C31   H12   S    
C2    C4    A    
C26   H4    S    
C34   O8    A    
O6    Zn2   S    
C14   H16   S    
C26   C27   A    
C34   C45   S    
C23   O6    A    
C40   C41   A    
C43   N1    A    
C22   C27   A    
C37   N2    A    
C15   H10   S    
C12   O4    A    
C41   H15   S    
C29   H3    S    
C16   C25   A    
C46   C47   A    
C22   C30   A    
C17   C28   A    
O5    Zn1   S    
C4    C5    A    
C10   C13   A    
C5    C11   A    
C6    C7    A    
C3    C46   A    
C1    O2    A    
C32   C33   A    
C36   C38   A    
C2    C3    A    
C16   C29   A    
O1    Zn1   S    
C34   O7    A    
C38   C39   A    
C1    C30   S    
C33   C35   A    
C31   C39   A    
C35   H14   S    
C48   H19   S    
C37   C41   A    
C9    H17   S    
C10   C11   A    
C18   H6    S    
C13   H2    S    
C20   C21   A    
C12   C44   S    
C21   C24   A    
C15   C45   A    
N2    Zn2   S    
C21   C22   A    
C44   C48   A    
C46   H23   S    
