data_mof_unit_6515.cif
_audit_creation_date              2012-12-10T18:21:25-0500
_audit_creation_method            fapswitch 2.2
_symmetry_space_group_name_H-M    P1
_symmetry_Int_Tables_number       1
_space_group_crystal_system       triclinic
_cell_length_a                    14.906246
_cell_length_b                    14.009233
_cell_length_c                    10.64881
_cell_angle_alpha                 90.152689
_cell_angle_beta                  88.882035
_cell_angle_gamma                 90.034316
_cell_volume                      2223.30699933

loop_
_atom_site_label
_atom_site_type_symbol
_atom_type_description
_atom_site_fract_x
_atom_site_fract_y
_atom_site_fract_z
_atom_type_partial_charge
C1    C     C_R   0.326792 0.499798 0.500764 0.889761
C2    C     C_R   0.043704 0.452899 0.726479 0.377760
C3    C     C_R   0.091914 0.472453 0.614096 -0.068220
C4    C     C_R   0.499063 0.499742 0.257669 0.844151
C5    C     C_R   0.046359 0.502792 0.506021 0.017154
C6    C     C_R   0.094378 0.532024 0.396720 0.174976
C7    C     C_R   0.048965 0.561450 0.289845 -0.219891
C8    C     C_R   0.955845 0.561352 0.290334 -0.206286
C9    C     C_R   0.185027 0.466799 0.608261 -0.190698
C10   C     C_R   0.231354 0.499108 0.501722 -0.060579
C11   C     C_R   0.187229 0.532039 0.396672 -0.258440
C12   C     C_3   0.589524 0.526191 0.924524 -0.447601
C13   C     C_R   0.552706 0.798245 0.415261 -0.064316
C14   C     C_R   0.553765 0.201556 0.416500 -0.081509
C15   C     C_R   0.447865 0.797959 0.585993 -0.000074
C16   C     C_R   0.445937 0.202435 0.583324 -0.012049
C17   C     C_R   0.446217 0.898955 0.588974 -0.147148
C18   C     C_R   0.444022 0.101621 0.585928 -0.149866
C19   C     C_R   0.673013 0.499851 0.499993 0.957948
C20   C     C_R   0.499772 0.949507 0.501282 0.004718
C21   C     C_R   0.499836 0.050661 0.501240 0.002500
C22   C     C_R   0.554091 0.898843 0.414097 0.075422
C23   C     C_R   0.815158 0.532974 0.398305 -0.357506
C24   C     C_R   0.554874 0.100972 0.414927 0.077291
C25   C     C_R   0.393133 0.950036 0.677666 0.365801
C26   C     C_R   0.386861 0.051164 0.669476 0.358259
C27   C     C_R   0.609107 0.049844 0.328929 -0.212465
C28   C     C_R   0.608570 0.949660 0.328344 -0.211776
C29   C     C_R   0.497276 0.499902 0.742446 0.863211
C30   C     C_3   0.423114 0.568243 0.077226 -0.425129
C31   C     C_3   0.474768 0.397036 0.073680 -0.416530
C32   C     C_3   0.427238 0.575390 0.933341 -0.147362
C33   C     C_3   0.472568 0.396432 0.930416 -0.141667
C34   C     C_R   0.768134 0.499315 0.502950 -0.152747
C35   C     C_3   0.589675 0.530460 0.068626 -0.439852
C36   C     C_3   0.496903 0.498981 0.121798 0.150454
C37   C     C_3   0.494397 0.499003 0.879158 0.069867
C38   C     C_3   0.098838 0.338989 0.858854 0.086096
C39   C     C_3   0.015759 0.294295 0.922627 -0.324617
C40   C     C_3   0.034712 0.193235 0.968015 -0.992622
C41   C     C_3   0.377861 0.916702 0.889139 0.106596
C42   C     C_3   0.472844 0.875885 0.904628 -0.407926
C43   C     C_3   0.498766 0.872366 0.042509 -0.952037
C44   C     C_3   0.238808 0.090426 0.702413 0.111475
C45   C     C_R   0.810987 0.465657 0.609717 0.452190
C46   C     C_3   0.219078 0.162651 0.598351 -0.387424
C47   C     C_3   0.121607 0.156564 0.557678 -0.967321
C48   C     C_1   0.336260 0.571666 0.881884 0.151852
C49   C     C_1   0.386570 0.357642 0.886531 0.192075
C50   C     C_3   0.778576 0.331080 0.728752 0.110231
C51   C     C_3   0.702521 0.268551 0.679992 -0.335189
C52   C     C_3   0.711308 0.165418 0.723743 -0.991830
C53   C     C_3   0.878168 0.557994 0.878273 0.134433
C54   C     C_3   0.956732 0.618237 0.925569 -0.350126
C55   C     C_3   0.924454 0.714615 0.975916 -0.992739
C56   C     C_R   0.904402 0.477121 0.616545 -0.216431
C57   C     C_R   0.952891 0.503625 0.506681 -0.061195
C58   C     C_R   0.907825 0.532361 0.397636 0.187683
C59   C     C_R   0.950516 0.464955 0.729932 0.374652
H1    H     H_    0.432720 0.640932 0.117338 0.177740
H2    H     H_    0.404326 0.243673 0.647409 0.182586
H3    H     H_    0.651687 0.087329 0.261790 0.136299
H4    H     H_    0.650825 0.911918 0.260844 0.139404
H5    H     H_    0.356372 0.542346 0.111964 0.160308
H6    H     H_    0.409674 0.372679 0.116094 0.177809
H7    H     H_    0.453828 0.647079 0.908860 0.147339
H8    H     H_    0.525572 0.346134 0.896165 0.141305
H9    H     H_    0.605007 0.604599 0.099552 0.179158
H10   H     H_    0.643403 0.483100 0.104355 0.161175
H11   H     H_    0.610848 0.596636 0.885907 0.184025
H12   H     H_    0.527015 0.345623 0.104201 0.170725
H13   H     H_    0.639600 0.472549 0.890975 0.213625
H14   H     H_    0.779259 0.557186 0.316532 0.142791
H15   H     H_    0.155531 0.331064 0.923790 0.194728
H16   H     H_    0.117508 0.299467 0.771462 0.126826
H17   H     H_    0.994291 0.338949 0.004265 0.257991
H18   H     H_    0.960190 0.290458 0.855059 0.217966
H19   H     H_    0.052126 0.146253 0.887099 0.259395
H20   H     H_    0.973885 0.164109 0.016063 0.270197
H21   H     H_    0.090685 0.193355 0.035373 0.273328
H22   H     H_    0.331771 0.880493 0.957036 0.171019
H23   H     H_    0.222102 0.439826 0.686919 0.181303
H24   H     H_    0.376772 0.993652 0.914742 0.177653
H25   H     H_    0.476254 0.802964 0.864453 0.225096
H26   H     H_    0.522303 0.921119 0.852774 0.214191
H27   H     H_    0.497066 0.945198 0.083995 0.274886
H28   H     H_    0.567741 0.843332 0.050117 0.258411
H29   H     H_    0.452026 0.825372 0.096366 0.262026
H30   H     H_    0.192389 0.104499 0.783033 0.164915
H31   H     H_    0.223949 0.016489 0.669779 0.161439
H32   H     H_    0.233142 0.236062 0.632396 0.234006
H33   H     H_    0.263179 0.148318 0.515175 0.223901
H34   H     H_    0.225380 0.555913 0.314721 0.128593
H35   H     H_    0.107972 0.085328 0.516154 0.270164
H36   H     H_    0.108804 0.212089 0.485983 0.274066
H37   H     H_    0.075080 0.168392 0.638897 0.255625
H38   H     H_    0.783435 0.320324 0.831742 0.181348
H39   H     H_    0.843318 0.306114 0.685762 0.111811
H40   H     H_    0.636915 0.297146 0.713888 0.251958
H41   H     H_    0.704487 0.269184 0.575771 0.234376
H42   H     H_    0.776249 0.134805 0.690308 0.269509
H43   H     H_    0.655859 0.122101 0.684907 0.277812
H44   H     H_    0.707230 0.161772 0.827888 0.262432
H45   H     H_    0.085448 0.584149 0.206083 0.152513
H46   H     H_    0.827165 0.551465 0.955287 0.155912
H47   H     H_    0.844431 0.595275 0.799889 0.141028
H48   H     H_    0.991500 0.578991 0.000853 0.245963
H49   H     H_    0.005768 0.631134 0.847544 0.233447
H50   H     H_    0.893051 0.756293 0.899839 0.270551
H51   H     H_    0.982418 0.755560 0.011823 0.277731
H52   H     H_    0.874754 0.704724 0.053847 0.256585
H53   H     H_    0.921122 0.583791 0.207203 0.149066
H54   H     H_    0.593727 0.758101 0.348784 0.127658
H55   H     H_    0.595687 0.241549 0.351218 0.125822
H56   H     H_    0.407260 0.756950 0.651709 0.174694
N1    N     N_R   0.500070 0.750030 0.500050 -0.116270
N2    N     N_R   0.500070 0.249970 0.500050 -0.118874
N3    N     N_1   0.264364 0.570658 0.843150 -0.175181
N4    N     N_1   0.319748 0.326424 0.851533 -0.239033
O1    O     O_R   0.367860 0.580280 0.500020 -0.610563
O2    O     O_3   0.343882 0.899848 0.767517 -0.657114
O3    O     O_3   0.327353 0.101348 0.746346 -0.656052
O4    O     O_3   0.759474 0.429183 0.708741 -0.657957
O5    O     O_3   0.906114 0.464338 0.845552 -0.635316
O6    O     O_R   0.367860 0.419720 0.500020 -0.625171
O7    O     O_R   0.500000 0.580270 0.314790 -0.634032
O8    O     O_R   0.500000 0.419730 0.314790 -0.632273
O9    O     O_R   0.632160 0.580270 0.499960 -0.620817
O10   O     O_R   0.632160 0.419730 0.499960 -0.629228
O11   O     O_R   0.500030 0.580270 0.685200 -0.634596
O12   O     O_R   0.500030 0.419730 0.685200 -0.639714
O13   O     O_3   0.087728 0.438009 0.838129 -0.625394
Zn1   Zn    Zn3+2 0.500020 0.607200 0.499990 0.942151
Zn2   Zn    Zn3+2 0.500020 0.392800 0.499990 0.927824

loop_
_geom_bond_atom_site_label_1
_geom_bond_atom_site_label_2
_ccdc_geom_bond_type
O6    Zn2   S    
C19   O10   A    
C23   C58   A    
C4    C36   S    
C52   H44   S    
C54   H49   S    
C30   H5    S    
C18   C21   A    
C41   C42   S    
C35   C36   S    
C18   C26   A    
O8    Zn2   S    
O12   Zn2   S    
C7    C8    A    
C49   N4    T    
C53   C54   S    
C45   O4    S    
C52   H43   S    
C14   C24   A    
C54   H48   S    
C43   H29   S    
C39   H18   S    
C1    O6    A    
C8    H53   S    
C5    C6    A    
C46   H33   S    
C40   H21   S    
C33   C49   S    
C41   H24   S    
C19   O9    A    
C51   H41   S    
C17   C20   A    
C56   C57   A    
C15   C17   A    
O1    Zn1   S    
C41   O2    S    
C12   C37   S    
C8    C58   A    
C46   C47   S    
C53   H47   S    
O7    Zn1   S    
C50   H38   S    
C30   H1    S    
C2    O13   S    
C47   H37   S    
C24   C27   A    
C9    C10   A    
C9    H23   S    
C11   H34   S    
C31   H12   S    
C12   H13   S    
C22   C28   A    
C55   H50   S    
C32   C48   S    
C23   H14   S    
N2    Zn2   S    
C44   C46   S    
C38   H16   S    
C51   H40   S    
C38   C39   S    
C52   H42   S    
C50   H39   S    
C50   O4    S    
C51   C52   S    
C42   H25   S    
C45   C56   A    
C6    C11   A    
C42   H26   S    
C2    C59   A    
C48   N3    T    
N1    Zn1   S    
C25   C26   A    
C32   C37   S    
C19   C34   S    
C33   C37   S    
C1    O1    A    
C38   O13   S    
C30   C36   S    
C3    C9    A    
C27   H3    S    
C29   O11   A    
C14   N2    A    
C41   H22   S    
C31   C33   S    
C50   C51   S    
C40   H20   S    
C34   C45   A    
C39   H17   S    
C12   C35   S    
C20   C22   A    
C7    H45   S    
C55   H51   S    
C40   H19   S    
O11   Zn1   S    
C42   C43   S    
C39   C40   S    
C44   H31   S    
C33   H8    S    
C32   H7    S    
C38   H15   S    
C59   O5    S    
C31   H6    S    
C12   H11   S    
C54   C55   S    
C23   C34   A    
C4    O8    A    
C55   H52   S    
C15   N1    A    
C43   H27   S    
C1    C10   S    
C3    C5    A    
C53   O5    S    
C6    C7    A    
C46   H32   S    
C4    O7    A    
C56   C59   A    
C5    C57   A    
C17   C25   A    
C2    C3    A    
C43   H28   S    
C14   H55   S    
C16   N2    A    
C30   C32   S    
C57   C58   A    
C29   O12   A    
C35   H9    S    
C44   O3    S    
C47   H35   S    
C13   C22   A    
C15   H56   S    
C13   N1    A    
C10   C11   A    
O10   Zn2   S    
C28   H4    S    
C53   H46   S    
C20   C21   A    
C35   H10   S    
C16   C18   A    
C16   H2    S    
C21   C24   A    
C29   C37   S    
C27   C28   A    
C47   H36   S    
C31   C36   S    
C26   O3    S    
O9    Zn1   S    
C25   O2    S    
C13   H54   S    
C44   H30   S    
