data_mof_unit_5894.cif
_audit_creation_date              2012-12-11T15:29:36-0500
_audit_creation_method            fapswitch 2.2
_symmetry_space_group_name_H-M    P1
_symmetry_Int_Tables_number       1
_space_group_crystal_system       triclinic
_cell_length_a                    13.495608
_cell_length_b                    13.505466
_cell_length_c                    27.578843
_cell_angle_alpha                 90.498163
_cell_angle_beta                  89.99274
_cell_angle_gamma                 59.981342
_cell_volume                      4352.15947392

loop_
_atom_site_label
_atom_site_type_symbol
_atom_type_description
_atom_site_fract_x
_atom_site_fract_y
_atom_site_fract_z
_atom_type_partial_charge
C1    C     C_R   0.620314 0.101135 0.569904 0.546115
C2    C     C_1   0.631269 0.731695 0.615910 -0.016229
C3    C     C_3   0.699246 0.560841 0.767012 -0.101665
C4    C     C_3   0.679593 0.654338 0.804357 0.052775
C5    C     C_3   0.590094 0.648545 0.740036 -0.099204
C6    C     C_3   0.663650 0.682930 0.709938 0.052675
C7    C     C_3   0.570658 0.741577 0.778109 -0.101881
C8    C     C_3   0.644016 0.776437 0.747273 -0.102948
C9    C     C_1   0.688381 0.633528 0.856557 -0.058753
C10   C     C_1   0.649707 0.704360 0.657801 -0.058936
C11   C     C_3   0.091045 0.132825 0.737363 -0.101887
C12   C     C_R   0.599741 0.779272 0.568453 0.546167
C13   C     C_3   0.183098 0.059419 0.775312 -0.100299
C14   C     C_1   0.097604 0.200183 0.900247 -0.015647
C15   C     C_1   0.229712 0.137623 0.617099 -0.016367
C16   C     C_3   0.055429 0.241285 0.768786 -0.101567
C17   C     C_3   0.147913 0.167709 0.805882 0.052768
C18   C     C_3   0.143953 0.262297 0.742009 -0.099082
C19   C     C_3   0.179172 0.154124 0.711356 0.052574
C20   C     C_3   0.235966 0.188984 0.779806 -0.101669
C21   C     C_3   0.271686 0.080505 0.748429 -0.102955
C22   C     C_1   0.125387 0.180997 0.858177 -0.058414
C23   C     C_R   0.277815 0.121622 0.569391 0.545602
C24   C     C_1   0.201768 0.146469 0.659111 -0.058989
C25   C     C_3   0.629101 0.276574 0.738831 -0.101782
C26   C     C_3   0.555080 0.258239 0.776783 -0.099958
C27   C     C_1   0.691623 0.206845 0.901345 -0.015247
C28   C     C_1   0.635569 0.133136 0.617833 -0.016450
C29   C     C_3   0.737122 0.203986 0.769802 -0.101603
C30   C     C_3   0.662942 0.185381 0.806922 0.052837
C31   C     C_3   0.758714 0.094235 0.742519 -0.099288
C32   C     C_3   0.650943 0.166971 0.712315 0.052515
C33   C     C_3   0.684776 0.075847 0.780354 -0.101825
C34   C     C_R   0.621957 0.100470 0.431635 0.540416
C35   C     C_3   0.576729 0.148369 0.749411 -0.102984
C36   C     C_1   0.674637 0.195971 0.859256 -0.058186
C37   C     C_1   0.643923 0.152048 0.659973 -0.059058
C38   C     C_R   0.630934 0.740227 0.379763 0.015124
C39   C     C_R   0.690661 0.782174 0.353081 -0.155185
C40   C     C_R   0.694330 0.776101 0.302827 0.020824
C41   C     C_R   0.645027 0.718209 0.279169 0.041280
C42   C     C_R   0.590002 0.671530 0.305949 -0.153547
C43   C     C_R   0.581283 0.684124 0.356037 -0.137621
C44   C     C_R   0.563195 0.728014 0.197888 -0.106151
C45   C     C_R   0.600607 0.779536 0.429707 0.543694
C46   C     C_R   0.578653 0.695662 0.149309 -0.127598
C47   C     C_R   0.784732 0.607192 0.159106 -0.117910
C48   C     C_R   0.769319 0.637266 0.207661 -0.069765
C49   C     C_R   0.658804 0.696215 0.227251 0.083221
C50   C     C_R   0.689766 0.632096 0.130166 0.023688
C51   C     C_R   0.226630 0.136981 0.383229 0.023917
C52   C     C_R   0.250279 0.040688 0.354880 -0.125316
C53   C     C_R   0.227004 0.051983 0.305652 -0.118874
C54   C     C_R   0.177399 0.160007 0.284222 0.037501
C55   C     C_R   0.146009 0.257361 0.313236 -0.120451
C56   C     C_R   0.279309 0.119977 0.430924 0.541465
C57   C     C_R   0.171290 0.245824 0.362450 -0.128102
C58   C     C_R   0.177599 0.249267 0.205544 -0.116691
C59   C     C_R   0.149414 0.267465 0.156669 -0.128638
C60   C     C_R   0.094860 0.121436 0.158549 -0.126072
C61   C     C_R   0.121216 0.104648 0.207428 -0.123376
C62   C     C_R   0.159473 0.170825 0.231635 0.037531
C63   C     C_R   0.104037 0.206420 0.133321 0.022554
C64   C     C_R   0.641575 0.141647 0.385745 0.022062
C65   C     C_R   0.547851 0.230070 0.361537 -0.124180
C66   C     C_R   0.557792 0.252190 0.313341 -0.115662
C67   C     C_3   0.772680 0.595623 0.736124 -0.101665
C68   C     C_R   0.662212 0.187942 0.288844 0.043288
C69   C     C_R   0.758778 0.107025 0.314377 -0.121391
C70   C     C_R   0.748277 0.083179 0.362470 -0.137028
C71   C     C_R   0.733454 0.101562 0.207289 -0.094634
C72   C     C_R   0.741773 0.111408 0.157642 -0.114705
C73   C     C_R   0.613995 0.316352 0.164293 -0.128318
C74   C     C_R   0.605886 0.306432 0.214070 -0.125022
C75   C     C_R   0.667836 0.199192 0.236111 0.033911
C76   C     C_R   0.685281 0.219308 0.136045 0.020513
C77   C     C_R   0.049823 0.234890 0.947958 0.546072
C78   C     C_3   0.753275 0.688697 0.774331 -0.100160
C79   C     C_R   0.711991 0.561807 0.946404 0.546150
C80   C     C_R   0.722614 0.224153 0.949083 0.546776
C81   C     C_R   0.047872 0.243600 0.086319 0.540865
C82   C     C_R   0.708970 0.572379 0.084081 0.540675
C83   C     C_R   0.720219 0.233541 0.087692 0.541704
C84   C     C_1   0.697372 0.607345 0.898600 -0.015575
Cr1   Cr    Cr6+3 0.417550 0.169090 0.500530 1.020564
Cr2   Cr    Cr6+3 0.669180 0.913420 0.499920 1.019328
Cr3   Cr    Cr6+3 0.413260 0.917540 0.499520 1.021664
Cr4   Cr    Cr6+3 0.909770 0.175810 0.018240 1.022141
Cr5   Cr    Cr6+3 0.913300 0.427650 0.016090 1.024095
Cr6   Cr    Cr6+3 0.657770 0.431010 0.016900 1.022380
H1    H     H_    0.819965 0.705643 0.789071 0.104356
H2    H     H_    0.295777 0.211641 0.797679 0.103478
H3    H     H_    0.127391 0.345850 0.727788 0.104238
H4    H     H_    0.966107 0.307782 0.777740 0.099241
H5    H     H_    0.471264 0.325314 0.791461 0.104498
H6    H     H_    0.606705 0.358837 0.721305 0.102708
H7    H     H_    0.510465 0.125408 0.740421 0.100504
H8    H     H_    0.707238 0.993524 0.797842 0.103575
H9    H     H_    0.842600 0.027129 0.727902 0.104221
H10   H     H_    0.803467 0.226853 0.778760 0.099317
H11   H     H_    0.726006 0.829305 0.371031 0.129074
H12   H     H_    0.855437 0.535421 0.718366 0.103139
H13   H     H_    0.477476 0.774064 0.212991 0.105278
H14   H     H_    0.504565 0.715129 0.127409 0.125112
H15   H     H_    0.843656 0.611396 0.230388 0.105924
H16   H     H_    0.871362 0.556789 0.145313 0.131255
H17   H     H_    0.553145 0.625958 0.287916 0.105732
H18   H     H_    0.533560 0.652871 0.376046 0.125923
H19   H     H_    0.294384 0.955419 0.369869 0.136529
H20   H     H_    0.210456 0.298775 0.223238 0.105896
H21   H     H_    0.157977 0.332878 0.137855 0.127256
H22   H     H_    0.621230 0.865462 0.738518 0.100753
H23   H     H_    0.252796 0.975491 0.284048 0.102628
H24   H     H_    0.106000 0.043982 0.226726 0.099697
H25   H     H_    0.059747 0.073178 0.141528 0.132989
H26   H     H_    0.104460 0.342009 0.297671 0.101079
H27   H     H_    0.152126 0.321158 0.383751 0.123261
H28   H     H_    0.464320 0.276815 0.378599 0.132884
H29   H     H_    0.780579 0.017704 0.223200 0.151974
H30   H     H_    0.797360 0.035352 0.136580 0.135588
H31   H     H_    0.481822 0.314605 0.294587 0.101674
H32   H     H_    0.555167 0.383268 0.235475 0.099155
H33   H     H_    0.487840 0.801774 0.795830 0.103352
H34   H     H_    0.570885 0.400914 0.148613 0.133448
H35   H     H_    0.841284 0.058852 0.296614 0.096921
H36   H     H_    0.821990 0.015483 0.380582 0.121966
H37   H     H_    0.523358 0.631571 0.725367 0.104320
H38   H     H_    0.721944 0.471839 0.775760 0.098810
H39   H     H_    0.199618 0.975951 0.789608 0.104283
H40   H     H_    0.031231 0.110240 0.719446 0.103053
H41   H     H_    0.361023 0.014100 0.739442 0.100537
O1    O     O_R   0.301780 0.195490 0.553940 -0.507433
O2    O     O_R   0.658840 0.818280 0.449970 -0.506724
O3    O     O_R   0.503160 0.801780 0.445740 -0.519264
O4    O     O_R   0.319320 0.022190 0.450230 -0.505330
O5    O     O_3   0.499990 0.000010 0.499990 -0.245480
O6    O     O_R   0.819250 0.149410 0.965240 -0.506099
O7    O     O_R   0.006940 0.180310 0.968270 -0.494432
O8    O     O_R   0.028420 0.332670 0.963010 -0.506104
O9    O     O_R   0.810130 0.520390 0.966030 -0.493852
O10   O     O_R   0.636050 0.541380 0.962520 -0.507076
O11   O     O_R   0.666480 0.323610 0.968170 -0.493864
O12   O     O_R   0.522450 0.158840 0.550250 -0.494212
O13   O     O_R   0.817280 0.156800 0.072180 -0.521509
O14   O     O_R   0.005110 0.187160 0.067410 -0.505260
O15   O     O_R   0.026450 0.340060 0.069950 -0.521622
O16   O     O_R   0.808300 0.527240 0.065170 -0.503856
O17   O     O_R   0.634070 0.548770 0.069460 -0.522724
O18   O     O_R   0.664650 0.330470 0.067300 -0.503060
O19   O     O_3   0.826940 0.344820 0.017080 -0.246444
O20   O     O_R   0.694460 0.003360 0.553820 -0.506652
O21   O     O_R   0.657750 0.819520 0.549120 -0.493620
O22   O     O_R   0.501990 0.803120 0.552700 -0.506864
O23   O     O_R   0.318230 0.023430 0.549370 -0.493793
O24   O     O_R   0.302950 0.194150 0.446980 -0.520283
O25   O     O_R   0.523540 0.157600 0.451100 -0.504332
O26   O     O_R   0.695630 0.002030 0.446860 -0.525413
C85   C     C_2   0.743608 0.837742 0.276973 0.200040
H42   H     H_    0.799043 0.861395 0.296182 0.085628
O27   O     O_2   0.719393 0.867126 0.234894 -0.516920

loop_
_geom_bond_atom_site_label_1
_geom_bond_atom_site_label_2
_ccdc_geom_bond_type
C44   C49   A    
C58   C62   A    
C66   C68   A    
C41   C42   A    
C73   C74   A    
C12   O21   A    
C12   O22   A    
Cr6   O19   S    
C2    C12   S    
Cr1   O12   S    
C82   O16   A    
C7    C8    S    
C53   C54   A    
C68   C75   S    
C34   O25   A    
C20   H2    S    
C11   C19   S    
C45   O3    A    
C60   H25   S    
C63   C81   S    
C60   C63   A    
C5    C6    S    
C52   H19   S    
C40   C85   S    
C19   C21   S    
C51   C56   S    
Cr6   O18   S    
Cr1   O1    S    
C79   C84   S    
C45   O2    A    
C55   H26   S    
C80   O6    A    
C17   C20   S    
C18   C19   S    
C33   H8    S    
Cr1   O24   S    
C14   C77   S    
C21   H41   S    
C38   C45   S    
Cr6   O17   S    
C85   O27   D    
C47   C48   A    
C44   C46   A    
C16   C17   S    
Cr5   O8    S    
Cr1   O5    S    
C1    C28   S    
C59   H21   S    
C65   H28   S    
Cr3   O22   S    
C51   C57   A    
C31   H9    S    
C42   H17   S    
C30   C33   S    
C72   C76   A    
C81   O14   A    
C47   H16   S    
C25   C32   S    
C15   C23   S    
C79   O9    A    
C31   C33   S    
C69   H35   S    
C48   H15   S    
C8    C78   S    
Cr3   O3    S    
C5    H37   S    
C69   C70   A    
C67   C78   S    
C56   O24   A    
C76   C83   S    
C41   C49   S    
C44   H13   S    
C53   H23   S    
C39   H11   S    
C47   C50   A    
C25   C29   S    
Cr5   O15   S    
C66   H31   S    
C74   C75   A    
C51   C52   A    
C32   C35   S    
Cr3   O4    S    
C38   C39   A    
C77   O7    A    
C27   C80   S    
C39   C40   A    
C5    C7    S    
C3    H38   S    
C68   C69   A    
C6    C8    S    
C54   C62   S    
C4    C7    S    
C58   C59   A    
C46   H14   S    
C60   C61   A    
Cr1   O25   S    
C4    C78   S    
C29   C30   S    
C1    O12   A    
Cr2   O21   S    
C11   C16   S    
Cr2   O2    S    
C31   C32   S    
Cr4   O14   S    
C73   H34   S    
C72   H30   S    
C34   C64   S    
Cr3   O23   S    
C13   C21   S    
C15   C24   T    
C32   C37   S    
Cr4   O7    S    
Cr6   O11   S    
Cr2   O5    S    
C40   C41   A    
C74   H32   S    
C26   C30   S    
C64   C70   A    
C55   C57   A    
Cr2   O20   S    
C85   H42   S    
C27   C36   T    
C73   C76   A    
C59   C63   A    
C42   C43   A    
C3    C4    S    
C2    C10   T    
C11   H40   S    
C56   O4    A    
C52   C53   A    
C50   C82   S    
C57   H27   S    
C26   H5    S    
Cr5   O16   S    
C54   C55   A    
Cr5   O19   S    
C80   O11   A    
C29   H10   S    
C58   H20   S    
Cr4   O19   S    
Cr3   O5    S    
C3    C67   S    
C77   O8    A    
C7    H33   S    
C3    C5    S    
C6    C10   S    
C82   O17   A    
C71   H29   S    
C78   H1    S    
C46   C50   A    
C16   H4    S    
C17   C22   S    
C30   C36   S    
C64   C65   A    
C14   C22   T    
C8    H22   S    
C19   C24   S    
C25   C26   S    
C38   C43   A    
C29   C31   S    
C6    C67   S    
C83   O13   A    
C71   C75   A    
C11   C13   S    
C70   H36   S    
C79   O10   A    
C28   C37   T    
C48   C49   A    
C33   C35   S    
C23   O1    A    
C1    O20   A    
C18   C20   S    
C43   H18   S    
C65   C66   A    
C61   C62   A    
Cr2   O26   S    
Cr4   O6    S    
Cr6   O10   S    
C9    C84   T    
C13   C17   S    
C34   O26   A    
C26   C35   S    
C71   C72   A    
C20   C21   S    
C25   H6    S    
C16   C18   S    
C81   O15   A    
C23   O23   A    
C61   H24   S    
C18   H3    S    
C13   H39   S    
Cr5   O9    S    
C4    C9    S    
C35   H7    S    
Cr4   O13   S    
C67   H12   S    
C83   O18   A    
