data_mof_unit_60756.cif
_audit_creation_date              2012-12-10T19:16:51-0500
_audit_creation_method            fapswitch 2.2
_symmetry_space_group_name_H-M    P1
_symmetry_Int_Tables_number       1
_space_group_crystal_system       triclinic
_cell_length_a                    25.927755
_cell_length_b                    34.501136
_cell_length_c                    34.494749
_cell_angle_alpha                 90.11922
_cell_angle_beta                  89.999222
_cell_angle_gamma                 90.000384
_cell_volume                      30856.7625324

loop_
_atom_site_label
_atom_site_type_symbol
_atom_type_description
_atom_site_fract_x
_atom_site_fract_y
_atom_site_fract_z
_atom_type_partial_charge
C1    C     C_R   0.390083 0.249382 0.499357 0.873766
C2    C     C_R   0.890109 0.250589 0.499380 0.883421
C3    C     C_3   0.529307 0.746582 0.069940 -0.422525
C4    C     C_3   0.970692 0.253255 0.569984 -0.426300
C5    C     C_3   0.970690 0.746587 0.569939 -0.422372
C6    C     C_3   0.029305 0.253255 0.569984 -0.426320
C7    C     C_3   0.029307 0.746587 0.569939 -0.422577
C8    C     C_3   0.970692 0.753246 0.069984 -0.426249
C9    C     C_3   0.970691 0.246586 0.069939 -0.422607
C10   C     C_3   0.029305 0.753246 0.069984 -0.426247
C11   C     C_3   0.029307 0.246586 0.069939 -0.422565
C12   C     C_3   0.470692 0.753262 0.569983 -0.426282
C13   C     C_R   0.109917 0.749382 0.499357 0.873780
C14   C     C_3   0.470691 0.246591 0.569939 -0.422552
C15   C     C_3   0.529305 0.753262 0.569983 -0.426242
C16   C     C_3   0.529307 0.246591 0.569939 -0.422571
C17   C     C_R   0.297894 0.040629 0.498197 0.428646
C18   C     C_R   0.249562 0.959950 0.534518 0.429888
C19   C     C_R   0.702048 0.040628 0.498337 0.428571
C20   C     C_R   0.750660 0.959965 0.534428 0.429992
C21   C     C_R   0.797868 0.040608 0.998447 0.428521
C22   C     C_R   0.749266 0.959933 0.034523 0.429998
C23   C     C_R   0.202129 0.040608 0.998449 0.428527
C24   C     C_R   0.109891 0.250589 0.499380 0.883404
C25   C     C_R   0.250735 0.959932 0.034527 0.430009
C26   C     C_R   0.797873 0.540604 0.498505 0.428481
C27   C     C_R   0.749149 0.459928 0.534525 0.430029
C28   C     C_R   0.202126 0.540608 0.498444 0.428533
C29   C     C_R   0.250731 0.459934 0.534522 0.430007
C30   C     C_R   0.297874 0.540609 0.998439 0.428536
C31   C     C_R   0.249273 0.459934 0.034522 0.430004
C32   C     C_R   0.702124 0.540609 0.998438 0.428525
C33   C     C_R   0.750727 0.459936 0.034517 0.430007
C34   C     C_R   0.299357 0.081557 0.498740 0.071560
C35   C     C_R   0.390083 0.749382 0.999357 0.873801
C36   C     C_R   0.249429 0.919055 0.536113 0.020540
C37   C     C_R   0.700600 0.081556 0.498908 0.071527
C38   C     C_R   0.750798 0.919073 0.536047 0.020369
C39   C     C_R   0.799347 0.081535 0.998974 0.071585
C40   C     C_R   0.749167 0.919038 0.036112 0.020549
C41   C     C_R   0.200651 0.081535 0.998975 0.071577
C42   C     C_R   0.250838 0.919037 0.036115 0.020565
C43   C     C_R   0.799351 0.581531 0.499024 0.071574
C44   C     C_R   0.749054 0.419033 0.536110 0.020457
C45   C     C_R   0.200649 0.581536 0.498971 0.071574
C46   C     C_R   0.390109 0.250589 0.999380 0.883421
C47   C     C_R   0.250835 0.419039 0.536112 0.020501
C48   C     C_R   0.299351 0.581537 0.998967 0.071555
C49   C     C_R   0.249169 0.419040 0.036111 0.020499
C50   C     C_R   0.700647 0.581536 0.998969 0.071534
C51   C     C_R   0.750832 0.419041 0.036109 0.020442
C52   C     C_R   0.252164 0.102378 0.498168 -0.123182
C53   C     C_R   0.248693 0.897696 0.500950 -0.123534
C54   C     C_R   0.747791 0.102372 0.498131 -0.123427
C55   C     C_R   0.751260 0.897693 0.500899 -0.123325
C56   C     C_R   0.752173 0.102369 0.998169 -0.123415
C57   C     C_R   0.609917 0.749382 0.999357 0.873811
C58   C     C_R   0.748688 0.897688 0.000946 -0.123260
C59   C     C_R   0.247826 0.102369 0.998169 -0.123431
C60   C     C_R   0.251314 0.897688 0.000947 -0.123310
C61   C     C_R   0.752177 0.602367 0.498167 -0.123472
C62   C     C_R   0.748689 0.397685 0.500943 -0.123185
C63   C     C_R   0.247825 0.602369 0.498168 -0.123421
C64   C     C_R   0.251312 0.397688 0.500945 -0.123308
C65   C     C_R   0.252175 0.602370 0.998167 -0.123442
C66   C     C_R   0.248689 0.397688 0.000945 -0.123306
C67   C     C_R   0.747824 0.602369 0.998166 -0.123481
C68   C     C_R   0.609891 0.250589 0.999380 0.883401
C69   C     C_R   0.751310 0.397688 0.000943 -0.123304
C70   C     C_R   0.250460 0.355158 0.500411 0.846805
C71   C     C_R   0.249341 0.644856 0.499515 0.860323
C72   C     C_R   0.749542 0.355157 0.500409 0.846740
C73   C     C_R   0.750660 0.644856 0.499515 0.860102
C74   C     C_R   0.750460 0.355158 0.000410 0.846780
C75   C     C_R   0.749341 0.644857 0.999515 0.860355
C76   C     C_R   0.249540 0.355158 0.000411 0.846792
C77   C     C_R   0.250659 0.644857 0.999515 0.860349
C78   C     C_R   0.750450 0.855160 0.500402 0.846931
C79   C     C_R   0.207643 0.265109 0.832051 -0.152565
C80   C     C_R   0.749337 0.144857 0.499511 0.860364
C81   C     C_R   0.249538 0.855161 0.500413 0.846888
C82   C     C_R   0.250653 0.144860 0.499518 0.860231
C83   C     C_R   0.250460 0.855158 0.000411 0.846812
C84   C     C_R   0.249341 0.144856 0.999515 0.860332
C85   C     C_R   0.749540 0.855158 0.000411 0.846758
C86   C     C_R   0.750659 0.144857 0.999515 0.860309
C87   C     C_R   0.205182 0.082579 0.495538 -0.237754
C88   C     C_R   0.246269 0.917006 0.465354 -0.240682
C89   C     C_R   0.794734 0.082561 0.495247 -0.237867
C90   C     C_R   0.209088 0.733212 0.831860 -0.150905
C91   C     C_R   0.753380 0.916978 0.465280 -0.240742
C92   C     C_R   0.705216 0.082574 0.995312 -0.237930
C93   C     C_R   0.746507 0.916999 0.965346 -0.240854
C94   C     C_R   0.294784 0.082574 0.995315 -0.237907
C95   C     C_R   0.253489 0.916999 0.965345 -0.240751
C96   C     C_R   0.705222 0.582572 0.495259 -0.238052
C97   C     C_R   0.746625 0.416996 0.465338 -0.240715
C98   C     C_R   0.294782 0.582574 0.495312 -0.237912
C99   C     C_R   0.253487 0.416998 0.465342 -0.240715
C100  C     C_R   0.205217 0.582573 0.995315 -0.237871
C101  C     C_R   0.792352 0.265115 0.832050 -0.152572
C102  C     C_R   0.246510 0.416998 0.965342 -0.240719
C103  C     C_R   0.794781 0.582574 0.995308 -0.238035
C104  C     C_R   0.753485 0.416997 0.965339 -0.240692
C105  C     C_R   0.203853 0.042365 0.494959 0.435121
C106  C     C_R   0.246284 0.957222 0.463844 0.436445
C107  C     C_R   0.796043 0.042348 0.494622 0.435021
C108  C     C_R   0.753337 0.957194 0.463744 0.436604
C109  C     C_R   0.703877 0.042361 0.994733 0.435101
C110  C     C_R   0.746521 0.957214 0.963841 0.436486
C111  C     C_R   0.296122 0.042361 0.994737 0.435090
C112  C     C_R   0.390109 0.750589 0.499380 0.883424
C113  C     C_R   0.791091 0.733125 0.831974 -0.164046
C114  C     C_R   0.253474 0.957215 0.963841 0.436479
C115  C     C_R   0.703884 0.542358 0.494678 0.435099
C116  C     C_R   0.746641 0.457211 0.463834 0.436497
C117  C     C_R   0.296119 0.542361 0.494731 0.435086
C118  C     C_R   0.253471 0.457214 0.463836 0.436486
C119  C     C_R   0.203880 0.542360 0.994734 0.435083
C120  C     C_R   0.246527 0.457214 0.963836 0.436484
C121  C     C_R   0.796117 0.542361 0.994725 0.435047
C122  C     C_R   0.753468 0.457213 0.963831 0.436489
C123  C     C_R   0.250057 0.021300 0.496660 -0.044037
C124  C     C_R   0.707605 0.265052 0.332054 -0.152581
C125  C     C_R   0.248318 0.978773 0.498327 -0.035022
C126  C     C_R   0.749856 0.021291 0.496545 -0.043950
C127  C     C_R   0.751598 0.978765 0.498221 -0.035034
C128  C     C_R   0.750047 0.021288 0.996675 -0.043906
C129  C     C_R   0.748284 0.978761 0.998331 -0.035006
C130  C     C_R   0.249950 0.021287 0.996678 -0.043925
C131  C     C_R   0.251713 0.978760 0.998334 -0.035052
C132  C     C_R   0.750053 0.521284 0.496677 -0.043914
C133  C     C_R   0.748285 0.478757 0.498331 -0.035072
C134  C     C_R   0.249947 0.521288 0.496671 -0.043932
C135  C     C_R   0.709134 0.733144 0.331857 -0.150792
C136  C     C_R   0.251710 0.478761 0.498328 -0.035055
C137  C     C_R   0.250053 0.521288 0.996671 -0.043935
C138  C     C_R   0.248291 0.478761 0.998328 -0.035050
C139  C     C_R   0.749944 0.521288 0.996665 -0.043915
C140  C     C_R   0.751706 0.478761 0.998323 -0.035019
C141  C     C_R   0.250049 0.249918 0.394816 0.834421
C142  C     C_R   0.249952 0.749918 0.394815 0.834486
C143  C     C_R   0.749951 0.249918 0.394817 0.834397
C144  C     C_R   0.750048 0.749918 0.394815 0.834456
C145  C     C_R   0.750048 0.249918 0.894816 0.834443
C146  C     C_R   0.292360 0.265105 0.332051 -0.152571
C147  C     C_R   0.749966 0.749924 0.894817 0.834861
C148  C     C_R   0.249952 0.249918 0.894816 0.834433
C149  C     C_R   0.250049 0.749918 0.894816 0.834399
C150  C     C_R   0.249929 0.249963 0.605076 0.921668
C151  C     C_R   0.250070 0.749963 0.605076 0.921602
C152  C     C_R   0.750070 0.249963 0.605076 0.921706
C153  C     C_R   0.749933 0.749968 0.605072 0.922767
C154  C     C_R   0.749929 0.249963 0.105077 0.921543
C155  C     C_R   0.750070 0.749964 0.105075 0.921829
C156  C     C_R   0.250070 0.249963 0.105076 0.921681
C157  C     C_R   0.290850 0.733122 0.331856 -0.150788
C158  C     C_R   0.249930 0.749964 0.105075 0.921864
C159  C     C_R   0.238997 0.214602 0.707854 -0.196655
C160  C     C_R   0.241252 0.783251 0.708757 -0.191383
C161  C     C_R   0.761003 0.214606 0.707855 -0.196661
C162  C     C_R   0.759665 0.783803 0.708504 -0.185629
C163  C     C_R   0.739079 0.214581 0.207855 -0.196680
C164  C     C_R   0.741099 0.783239 0.208749 -0.191276
C165  C     C_R   0.260995 0.214600 0.207854 -0.196655
C166  C     C_R   0.258930 0.783236 0.208748 -0.191271
C167  C     C_R   0.739683 0.715167 0.708082 -0.196719
C168  C     C_R   0.708483 0.765887 0.831934 -0.152549
C169  C     C_R   0.741171 0.283247 0.708752 -0.191302
C170  C     C_R   0.260942 0.714584 0.707854 -0.196639
C171  C     C_R   0.258820 0.283246 0.708753 -0.191309
C172  C     C_R   0.238900 0.714625 0.207852 -0.196613
C173  C     C_R   0.241191 0.283246 0.208754 -0.191314
C174  C     C_R   0.761072 0.714619 0.207853 -0.196622
C175  C     C_R   0.758724 0.283254 0.208758 -0.191341
C176  C     C_R   0.239632 0.214732 0.667443 0.340548
C177  C     C_R   0.241131 0.783917 0.668397 0.347390
C178  C     C_R   0.760369 0.214735 0.667444 0.340530
C179  C     C_R   0.709107 0.233185 0.831859 -0.150822
C180  C     C_R   0.759478 0.784229 0.668149 0.346513
C181  C     C_R   0.739716 0.214713 0.167444 0.340582
C182  C     C_R   0.740981 0.783901 0.168389 0.347286
C183  C     C_R   0.260358 0.214729 0.167443 0.340539
C184  C     C_R   0.259046 0.783897 0.168387 0.347263
C185  C     C_R   0.739992 0.715070 0.667667 0.338366
C186  C     C_R   0.741053 0.283909 0.668391 0.347349
C187  C     C_R   0.260304 0.714715 0.667443 0.340566
C188  C     C_R   0.258938 0.283909 0.668393 0.347348
C189  C     C_R   0.239535 0.714752 0.167441 0.340487
C190  C     C_R   0.292383 0.765075 0.832052 -0.152568
C191  C     C_R   0.241071 0.283909 0.168393 0.347353
C192  C     C_R   0.760437 0.714746 0.167441 0.340500
C193  C     C_R   0.758844 0.283920 0.168398 0.347423
C194  C     C_R   0.249439 0.249553 0.647432 -0.194422
C195  C     C_R   0.250562 0.749550 0.647433 -0.194512
C196  C     C_R   0.750557 0.249554 0.647432 -0.194418
C197  C     C_R   0.749704 0.749772 0.647425 -0.195483
C198  C     C_R   0.749436 0.249550 0.147434 -0.194521
C199  C     C_R   0.750556 0.749555 0.147430 -0.194379
C200  C     C_R   0.250560 0.249552 0.147432 -0.194440
C201  C     C_R   0.290893 0.233185 0.831858 -0.150820
C202  C     C_R   0.249443 0.749556 0.147430 -0.194338
C203  C     C_R   0.248710 0.248749 0.728472 -0.028702
C204  C     C_R   0.251297 0.748741 0.728473 -0.028663
C205  C     C_R   0.751286 0.248752 0.728471 -0.028702
C206  C     C_R   0.749592 0.749441 0.728453 -0.041065
C207  C     C_R   0.748703 0.248741 0.228474 -0.028695
C208  C     C_R   0.751284 0.748755 0.228469 -0.028702
C209  C     C_R   0.251292 0.248747 0.228472 -0.028700
C210  C     C_R   0.248717 0.748756 0.228468 -0.028702
C211  C     C_R   0.206579 0.264585 0.791532 0.150487
C212  C     C_R   0.207692 0.765181 0.332047 -0.152533
C213  C     C_R   0.208896 0.732758 0.791331 0.150047
C214  C     C_R   0.793414 0.264593 0.791531 0.150488
C215  C     C_R   0.791952 0.733122 0.791485 0.153260
C216  C     C_R   0.706538 0.264523 0.291536 0.150490
C217  C     C_R   0.708940 0.732693 0.291328 0.149937
C218  C     C_R   0.293424 0.264581 0.291532 0.150486
C219  C     C_R   0.291045 0.732671 0.291327 0.149930
C220  C     C_R   0.707835 0.765660 0.791413 0.148343
C221  C     C_R   0.708912 0.232735 0.791330 0.149950
C222  C     C_R   0.293450 0.764546 0.791534 0.150448
C223  C     C_R   0.609917 0.249381 0.499357 0.873760
C224  C     C_R   0.209106 0.233189 0.331859 -0.150816
C225  C     C_R   0.291087 0.232734 0.791329 0.149947
C226  C     C_R   0.206631 0.764662 0.291528 0.150474
C227  C     C_R   0.208912 0.232737 0.291330 0.149950
C228  C     C_R   0.793386 0.764639 0.291528 0.150480
C229  C     C_R   0.791119 0.232780 0.291331 0.149968
C230  C     C_3   0.160226 0.280751 0.770668 -0.803443
C231  C     C_3   0.162936 0.716173 0.770237 -0.801843
C232  C     C_3   0.839764 0.280764 0.770665 -0.803457
C233  C     C_3   0.838742 0.716100 0.771736 -0.813216
C234  C     C_3   0.660144 0.280627 0.270673 -0.803431
C235  C     C_R   0.792324 0.765158 0.332047 -0.152534
C236  C     C_3   0.663036 0.716021 0.270234 -0.801499
C237  C     C_3   0.339780 0.280743 0.270667 -0.803442
C238  C     C_3   0.336931 0.715973 0.270232 -0.801505
C239  C     C_3   0.661814 0.782293 0.770473 -0.803549
C240  C     C_3   0.662978 0.216111 0.770236 -0.801562
C241  C     C_3   0.339829 0.780675 0.770669 -0.803331
C242  C     C_3   0.337023 0.216114 0.770233 -0.801534
C243  C     C_3   0.160329 0.780910 0.270663 -0.803413
C244  C     C_3   0.162974 0.216120 0.270235 -0.801554
C245  C     C_3   0.839705 0.780860 0.270662 -0.803400
C246  C     C_R   0.790926 0.233233 0.331859 -0.150838
C247  C     C_3   0.837093 0.216220 0.270234 -0.801564
C248  C     C_3   0.350306 0.103080 0.498896 -0.698548
C249  C     C_3   0.248224 0.898093 0.574585 -0.602526
C250  C     C_3   0.649655 0.103076 0.499309 -0.698013
C251  C     C_3   0.752314 0.898127 0.574515 -0.602631
C252  C     C_3   0.850306 0.103035 0.999357 -0.698028
C253  C     C_3   0.747750 0.898060 0.074569 -0.602867
C254  C     C_3   0.149691 0.103035 0.999355 -0.698043
C255  C     C_3   0.252266 0.898059 0.074574 -0.602878
C256  C     C_3   0.850313 0.603027 0.499447 -0.697877
C257  C     C_R   0.249536 0.249465 0.852296 -0.106718
C258  C     C_3   0.747527 0.398050 0.574562 -0.602849
C259  C     C_3   0.149690 0.603036 0.499353 -0.698027
C260  C     C_3   0.252262 0.398062 0.574571 -0.602761
C261  C     C_3   0.350310 0.603038 0.999344 -0.698048
C262  C     C_3   0.247745 0.398063 0.074571 -0.602753
C263  C     C_3   0.649689 0.603037 0.999352 -0.698069
C264  C     C_3   0.752258 0.398066 0.074569 -0.602660
C265  C     C_R   0.250466 0.749463 0.852297 -0.106700
C266  C     C_R   0.750462 0.249467 0.852296 -0.106724
C267  C     C_R   0.749843 0.749660 0.852298 -0.103956
C268  C     C_R   0.749534 0.249463 0.352298 -0.106696
C269  C     C_R   0.750462 0.749468 0.352295 -0.106731
C270  C     C_R   0.250464 0.249465 0.352296 -0.106720
C271  C     C_R   0.609891 0.750589 0.499380 0.883337
C272  C     C_R   0.249538 0.749467 0.352294 -0.106744
C273  C     C_R   0.248653 0.248474 0.771021 0.109090
C274  C     C_R   0.251354 0.748465 0.771023 0.109088
C275  C     C_R   0.751343 0.248478 0.771021 0.109094
C276  C     C_R   0.749905 0.749367 0.770976 0.119823
C277  C     C_R   0.748647 0.248465 0.271023 0.109095
C278  C     C_R   0.751343 0.748481 0.271019 0.109077
C279  C     C_R   0.251349 0.248473 0.271021 0.109094
C280  C     C_R   0.248658 0.748482 0.271018 0.109082
C281  C     C_R   0.026480 0.266300 0.528788 0.094825
C282  C     C_R   0.890083 0.249382 0.999356 0.873752
C283  C     C_R   0.026481 0.733598 0.528673 0.085243
C284  C     C_R   0.973519 0.266300 0.528788 0.094831
C285  C     C_R   0.973517 0.733599 0.528673 0.085170
C286  C     C_R   0.526480 0.266301 0.028788 0.094846
C287  C     C_R   0.526481 0.733596 0.028672 0.085250
C288  C     C_R   0.473519 0.266301 0.028788 0.094831
C289  C     C_R   0.473517 0.733597 0.028672 0.085235
C290  C     C_R   0.526480 0.766304 0.528786 0.094772
C291  C     C_R   0.526481 0.233600 0.528674 0.085261
C292  C     C_R   0.473519 0.766304 0.528786 0.094784
C293  C     C_R   0.890109 0.750589 0.999380 0.883438
C294  C     C_R   0.473517 0.233600 0.528674 0.085283
C295  C     C_R   0.026480 0.766297 0.028790 0.094745
C296  C     C_R   0.026481 0.233597 0.028673 0.085263
C297  C     C_R   0.973519 0.766296 0.028790 0.094743
C298  C     C_R   0.973517 0.233598 0.028673 0.085284
C299  C     C_R   0.054147 0.253911 0.496462 -0.240161
C300  C     C_R   0.054161 0.745997 0.496405 -0.237451
C301  C     C_R   0.945853 0.253910 0.496462 -0.240162
C302  C     C_R   0.945839 0.745998 0.496405 -0.237496
C303  C     C_R   0.554147 0.253911 0.996462 -0.240165
C304  C     C_R   0.109917 0.249381 0.999357 0.873773
C305  C     C_R   0.554161 0.745998 0.996405 -0.237526
C306  C     C_R   0.445853 0.253910 0.996462 -0.240170
C307  C     C_R   0.445839 0.745998 0.996405 -0.237457
C308  C     C_R   0.554147 0.753911 0.496461 -0.240129
C309  C     C_R   0.554161 0.245997 0.496405 -0.237467
C310  C     C_R   0.445853 0.753911 0.496461 -0.240160
C311  C     C_R   0.445839 0.245998 0.496405 -0.237470
C312  C     C_R   0.054147 0.753911 0.996462 -0.240102
C313  C     C_R   0.054161 0.245997 0.996405 -0.237477
C314  C     C_R   0.945853 0.753911 0.996462 -0.240105
C315  C     C_R   0.109891 0.750589 0.999380 0.883440
C316  C     C_R   0.945839 0.245998 0.996405 -0.237473
C317  C     C_R   0.027221 0.247625 0.461245 0.330757
C318  C     C_R   0.027227 0.752214 0.461202 0.328966
C319  C     C_R   0.972780 0.247625 0.461245 0.330749
C320  C     C_R   0.972775 0.752215 0.461202 0.328952
C321  C     C_R   0.527221 0.247624 0.961245 0.330750
C322  C     C_R   0.527226 0.752217 0.961203 0.328891
C323  C     C_R   0.472780 0.247624 0.961245 0.330746
C324  C     C_R   0.472774 0.752217 0.961203 0.328913
C325  C     C_R   0.527221 0.747623 0.461245 0.330745
C326  C     C_R   0.890083 0.749382 0.499357 0.873934
C327  C     C_R   0.527227 0.252212 0.461202 0.328971
C328  C     C_R   0.472780 0.747623 0.461245 0.330738
C329  C     C_R   0.472775 0.252212 0.461202 0.328965
C330  C     C_R   0.027221 0.747629 0.961244 0.330755
C331  C     C_R   0.027227 0.252214 0.961202 0.328959
C332  C     C_R   0.972780 0.747629 0.961244 0.330712
C333  C     C_R   0.972775 0.252214 0.961202 0.328957
C334  C     C_3   0.470692 0.253257 0.069984 -0.426308
C335  C     C_3   0.470690 0.746583 0.069940 -0.422513
C336  C     C_3   0.529305 0.253257 0.069984 -0.426344
Cl1   Cl    Cl    0.143422 0.019063 0.493071 -0.475878
Cl2   Cl    Cl    0.745555 0.479901 0.418131 -0.494175
Cl3   Cl    Cl    0.356532 0.519067 0.492538 -0.475856
Cl4   Cl    Cl    0.254705 0.479901 0.418134 -0.494149
Cl5   Cl    Cl    0.143467 0.519066 0.992546 -0.475861
Cl6   Cl    Cl    0.245288 0.479901 0.918133 -0.494140
Cl7   Cl    Cl    0.856529 0.519066 0.992531 -0.475953
Cl8   Cl    Cl    0.754703 0.479898 0.918128 -0.494429
Cl9   Cl    Cl    0.226210 0.171042 0.642880 -0.547740
Cl10  Cl    Cl    0.226780 0.827982 0.645205 -0.619881
Cl11  Cl    Cl    0.773796 0.171045 0.642881 -0.547761
Cl12  Cl    Cl    0.244700 0.979906 0.418145 -0.494078
Cl13  Cl    Cl    0.773947 0.828106 0.644656 -0.620616
Cl14  Cl    Cl    0.726403 0.171003 0.142882 -0.547626
Cl15  Cl    Cl    0.726458 0.827928 0.145184 -0.619945
Cl16  Cl    Cl    0.273768 0.171037 0.142879 -0.547741
Cl17  Cl    Cl    0.273603 0.827917 0.145181 -0.619979
Cl18  Cl    Cl    0.726381 0.671255 0.643391 -0.546234
Cl19  Cl    Cl    0.726613 0.327953 0.645190 -0.619951
Cl20  Cl    Cl    0.273643 0.671010 0.642879 -0.547631
Cl21  Cl    Cl    0.273371 0.327956 0.645193 -0.619935
Cl22  Cl    Cl    0.225991 0.671084 0.142876 -0.547865
Cl23  Cl    Cl    0.856441 0.019034 0.492406 -0.475857
Cl24  Cl    Cl    0.226650 0.327959 0.145195 -0.619939
Cl25  Cl    Cl    0.773947 0.671072 0.142877 -0.547814
Cl26  Cl    Cl    0.773168 0.327990 0.145205 -0.619897
Cl27  Cl    Cl    0.060520 0.240030 0.417075 -0.494863
Cl28  Cl    Cl    0.060530 0.759706 0.417050 -0.500502
Cl29  Cl    Cl    0.939483 0.240029 0.417075 -0.494917
Cl30  Cl    Cl    0.939474 0.759708 0.417050 -0.500513
Cl31  Cl    Cl    0.560520 0.240028 0.917075 -0.494864
Cl32  Cl    Cl    0.560528 0.759714 0.917052 -0.499825
Cl33  Cl    Cl    0.439483 0.240028 0.917075 -0.494863
Cl34  Cl    Cl    0.754524 0.979851 0.418026 -0.494071
Cl35  Cl    Cl    0.439473 0.759712 0.917051 -0.500497
Cl36  Cl    Cl    0.560519 0.740024 0.417075 -0.494809
Cl37  Cl    Cl    0.560530 0.259701 0.417049 -0.500626
Cl38  Cl    Cl    0.439483 0.740024 0.417075 -0.494782
Cl39  Cl    Cl    0.439473 0.259703 0.417050 -0.500593
Cl40  Cl    Cl    0.060520 0.740038 0.917074 -0.495250
Cl41  Cl    Cl    0.060530 0.259706 0.917050 -0.500584
Cl42  Cl    Cl    0.939482 0.740042 0.917073 -0.495382
Cl43  Cl    Cl    0.939473 0.259708 0.917050 -0.500578
Cl44  Cl    Cl    0.355309 0.012819 0.500314 -0.519783
Cl45  Cl    Cl    0.643464 0.019068 0.992539 -0.475862
Cl46  Cl    Cl    0.252097 0.988335 0.577376 -0.506039
Cl47  Cl    Cl    0.644654 0.012825 0.500746 -0.519812
Cl48  Cl    Cl    0.748517 0.988376 0.577281 -0.506123
Cl49  Cl    Cl    0.855243 0.012785 0.000876 -0.519949
Cl50  Cl    Cl    0.751428 0.988316 0.077391 -0.505923
Cl51  Cl    Cl    0.144752 0.012785 0.000878 -0.519927
Cl52  Cl    Cl    0.248570 0.988313 0.077398 -0.505938
Cl53  Cl    Cl    0.855246 0.512781 0.501016 -0.519854
Cl54  Cl    Cl    0.751165 0.488309 0.577400 -0.505860
Cl55  Cl    Cl    0.144749 0.512786 0.500870 -0.519869
Cl56  Cl    Cl    0.745282 0.979903 0.918140 -0.494378
Cl57  Cl    Cl    0.248565 0.488316 0.577392 -0.505921
Cl58  Cl    Cl    0.355252 0.512788 0.000861 -0.519864
Cl59  Cl    Cl    0.251443 0.488317 0.077391 -0.505955
Cl60  Cl    Cl    0.644746 0.512787 0.000864 -0.519867
Cl61  Cl    Cl    0.748561 0.488319 0.077386 -0.505928
Cl62  Cl    Cl    0.356535 0.019068 0.992545 -0.475845
Cl63  Cl    Cl    0.254708 0.979904 0.918139 -0.494194
Cl64  Cl    Cl    0.643472 0.519066 0.492410 -0.475858
H1    H     H_    0.230935 0.187942 0.723260 0.195083
H2    H     H_    0.733212 0.309584 0.724850 0.195635
H3    H     H_    0.328226 0.305978 0.252771 0.249990
H4    H     H_    0.370086 0.290564 0.291220 0.256506
H5    H     H_    0.324857 0.690523 0.252732 0.250545
H6    H     H_    0.353845 0.738234 0.250812 0.251541
H7    H     H_    0.367481 0.706316 0.290617 0.255947
H8    H     H_    0.673787 0.807596 0.752833 0.249972
H9    H     H_    0.644654 0.759913 0.751221 0.251628
H10   H     H_    0.631458 0.792158 0.790965 0.256250
H11   H     H_    0.646130 0.238398 0.750816 0.251535
H12   H     H_    0.674978 0.190641 0.752737 0.250536
H13   H     H_    0.268954 0.687914 0.723258 0.195094
H14   H     H_    0.632400 0.206505 0.790622 0.255968
H15   H     H_    0.356822 0.758018 0.751659 0.251324
H16   H     H_    0.328309 0.805920 0.752775 0.249953
H17   H     H_    0.370149 0.790473 0.791223 0.256534
H18   H     H_    0.325026 0.190642 0.752736 0.250546
H19   H     H_    0.353868 0.238403 0.750812 0.251531
H20   H     H_    0.367604 0.206511 0.790618 0.255966
H21   H     H_    0.171966 0.806125 0.252769 0.249987
H22   H     H_    0.143235 0.758297 0.251652 0.251305
H23   H     H_    0.130053 0.790785 0.291216 0.256484
H24   H     H_    0.266774 0.309583 0.724851 0.195637
H25   H     H_    0.146134 0.238409 0.250813 0.251527
H26   H     H_    0.174967 0.190646 0.252739 0.250544
H27   H     H_    0.132391 0.206521 0.290621 0.255971
H28   H     H_    0.856777 0.758238 0.251652 0.251300
H29   H     H_    0.828092 0.806081 0.252767 0.249989
H30   H     H_    0.869990 0.790721 0.291214 0.256489
H31   H     H_    0.825154 0.190730 0.252740 0.250539
H32   H     H_    0.853883 0.238530 0.250811 0.251521
H33   H     H_    0.867698 0.206659 0.290619 0.255984
H34   H     H_    0.356480 0.116876 0.527613 0.259998
H35   H     H_    0.230759 0.687979 0.223259 0.195081
H36   H     H_    0.383956 0.084290 0.492879 0.277749
H37   H     H_    0.350202 0.125699 0.476032 0.207256
H38   H     H_    0.216777 0.876253 0.574324 0.234273
H39   H     H_    0.285716 0.883455 0.579681 0.262688
H40   H     H_    0.240685 0.917326 0.599653 0.284450
H41   H     H_    0.643683 0.116819 0.528075 0.260151
H42   H     H_    0.649589 0.125733 0.476484 0.207305
H43   H     H_    0.615966 0.084294 0.493391 0.277581
H44   H     H_    0.783833 0.876349 0.574131 0.234570
H45   H     H_    0.759941 0.917375 0.599554 0.284587
H46   H     H_    0.233243 0.309584 0.224853 0.195636
H47   H     H_    0.714904 0.883418 0.579747 0.262861
H48   H     H_    0.856283 0.116805 0.028110 0.260167
H49   H     H_    0.883982 0.084234 0.993460 0.277578
H50   H     H_    0.850393 0.125670 0.976510 0.207314
H51   H     H_    0.716294 0.876229 0.074210 0.234013
H52   H     H_    0.785205 0.883403 0.079764 0.262791
H53   H     H_    0.740108 0.917284 0.099624 0.284558
H54   H     H_    0.143711 0.116805 0.028107 0.260148
H55   H     H_    0.149607 0.125669 0.976507 0.207321
H56   H     H_    0.116015 0.084234 0.993458 0.277581
H57   H     H_    0.769191 0.687969 0.223259 0.195086
H58   H     H_    0.283722 0.876227 0.074208 0.234014
H59   H     H_    0.259918 0.917283 0.099627 0.284553
H60   H     H_    0.214811 0.883403 0.079775 0.262776
H61   H     H_    0.856265 0.616781 0.528210 0.260155
H62   H     H_    0.883989 0.584226 0.493556 0.277538
H63   H     H_    0.850429 0.625673 0.476612 0.207353
H64   H     H_    0.716071 0.376220 0.574152 0.233776
H65   H     H_    0.784966 0.383391 0.579810 0.262960
H66   H     H_    0.739821 0.417272 0.599607 0.284617
H67   H     H_    0.143711 0.616805 0.528106 0.260154
H68   H     H_    0.766609 0.309603 0.224858 0.195642
H69   H     H_    0.149606 0.625671 0.476506 0.207321
H70   H     H_    0.116014 0.584236 0.493455 0.277582
H71   H     H_    0.283718 0.376231 0.574207 0.233935
H72   H     H_    0.259913 0.417287 0.599624 0.284561
H73   H     H_    0.214807 0.383407 0.579772 0.262868
H74   H     H_    0.356292 0.616807 0.028097 0.260123
H75   H     H_    0.383986 0.584239 0.993444 0.277592
H76   H     H_    0.350391 0.625673 0.976497 0.207332
H77   H     H_    0.216289 0.376232 0.074209 0.233933
H78   H     H_    0.285201 0.383408 0.079770 0.262874
H79   H     H_    0.169173 0.098528 0.494735 0.206163
H80   H     H_    0.240096 0.417288 0.099624 0.284559
H81   H     H_    0.643711 0.616806 0.028106 0.260144
H82   H     H_    0.649605 0.625673 0.976506 0.207309
H83   H     H_    0.616012 0.584238 0.993454 0.277592
H84   H     H_    0.783714 0.376235 0.074206 0.233870
H85   H     H_    0.759908 0.417292 0.099621 0.284567
H86   H     H_    0.714802 0.383411 0.079769 0.262945
H87   H     H_    0.245280 0.900661 0.438491 0.201647
H88   H     H_    0.830741 0.098499 0.494279 0.206400
H89   H     H_    0.233349 0.809597 0.724857 0.195615
H90   H     H_    0.754154 0.900612 0.438426 0.201404
H91   H     H_    0.669222 0.098526 0.994328 0.206382
H92   H     H_    0.745717 0.900654 0.938482 0.201376
H93   H     H_    0.330779 0.098526 0.994331 0.206385
H94   H     H_    0.254276 0.900655 0.938479 0.201459
H95   H     H_    0.669228 0.598523 0.494233 0.206424
H96   H     H_    0.745926 0.400650 0.438472 0.201385
H97   H     H_    0.330778 0.598525 0.494329 0.206382
H98   H     H_    0.254275 0.400653 0.438477 0.201466
H99   H     H_    0.169222 0.598525 0.994335 0.206393
H100  H     H_    0.769069 0.187948 0.723261 0.195076
H101  H     H_    0.245720 0.400652 0.938477 0.201468
H102  H     H_    0.830776 0.598525 0.994326 0.206401
H103  H     H_    0.754274 0.400651 0.938475 0.201463
H104  H     H_    0.175416 0.277368 0.847891 0.200902
H105  H     H_    0.176529 0.721319 0.847547 0.200443
H106  H     H_    0.824578 0.277378 0.847888 0.200896
H107  H     H_    0.823346 0.720736 0.847658 0.206684
H108  H     H_    0.675351 0.277272 0.347895 0.200917
H109  H     H_    0.676616 0.721189 0.347544 0.200440
H110  H     H_    0.324589 0.277363 0.347890 0.200901
H111  H     H_    0.767849 0.810214 0.724416 0.196413
H112  H     H_    0.323356 0.721149 0.347541 0.200433
H113  H     H_    0.676309 0.778347 0.847680 0.200513
H114  H     H_    0.676568 0.221264 0.847546 0.200447
H115  H     H_    0.324626 0.777311 0.847892 0.200915
H116  H     H_    0.323435 0.221268 0.847544 0.200446
H117  H     H_    0.175499 0.777493 0.347885 0.200882
H118  H     H_    0.176562 0.221273 0.347546 0.200452
H119  H     H_    0.824530 0.777454 0.347885 0.200888
H120  H     H_    0.823495 0.221358 0.347546 0.200455
H121  H     H_    0.453811 0.275804 0.089238 0.225629
H122  H     H_    0.731085 0.187909 0.223260 0.195093
H123  H     H_    0.453809 0.724007 0.089066 0.223891
H124  H     H_    0.546186 0.275804 0.089238 0.225637
H125  H     H_    0.546187 0.724006 0.089066 0.223891
H126  H     H_    0.953811 0.275801 0.589238 0.225631
H127  H     H_    0.953809 0.724012 0.589067 0.223820
H128  H     H_    0.046186 0.275802 0.589238 0.225628
H129  H     H_    0.046186 0.724012 0.589067 0.223881
H130  H     H_    0.953811 0.775790 0.089241 0.225606
H131  H     H_    0.953809 0.224011 0.089067 0.223906
H132  H     H_    0.046186 0.775791 0.089241 0.225604
H133  H     H_    0.733087 0.809567 0.224847 0.195637
H134  H     H_    0.046187 0.224010 0.089067 0.223900
H135  H     H_    0.453811 0.775811 0.589236 0.225613
H136  H     H_    0.453809 0.224018 0.589069 0.223919
H137  H     H_    0.546186 0.775811 0.589236 0.225613
H138  H     H_    0.546187 0.224017 0.589068 0.223905
H139  H     H_    0.453634 0.223840 0.073025 0.208454
H140  H     H_    0.453632 0.775995 0.073144 0.207622
H141  H     H_    0.546363 0.223841 0.073025 0.208434
H142  H     H_    0.546367 0.775994 0.073144 0.207613
H143  H     H_    0.953634 0.223838 0.573025 0.208462
H144  H     H_    0.269050 0.187939 0.223259 0.195084
H145  H     H_    0.953632 0.775999 0.573142 0.207734
H146  H     H_    0.046363 0.223839 0.573025 0.208454
H147  H     H_    0.046366 0.775998 0.573142 0.207601
H148  H     H_    0.953633 0.723829 0.073021 0.208499
H149  H     H_    0.953632 0.275998 0.073142 0.207547
H150  H     H_    0.046363 0.723829 0.073021 0.208503
H151  H     H_    0.046367 0.275997 0.073142 0.207570
H152  H     H_    0.453633 0.723846 0.573027 0.208453
H153  H     H_    0.453632 0.276004 0.573141 0.207575
H154  H     H_    0.546363 0.723846 0.573027 0.208453
H155  H     H_    0.266964 0.809560 0.224845 0.195628
H156  H     H_    0.546367 0.276002 0.573141 0.207576
H157  H     H_    0.171785 0.305985 0.752772 0.249989
H158  H     H_    0.143201 0.258108 0.751659 0.251294
H159  H     H_    0.129922 0.290575 0.791222 0.256504
H160  H     H_    0.146125 0.738473 0.750813 0.251476
H161  H     H_    0.174897 0.690688 0.752743 0.250591
H162  H     H_    0.132338 0.706597 0.790623 0.255929
H163  H     H_    0.856792 0.258124 0.751654 0.251297
H164  H     H_    0.828200 0.305998 0.752770 0.249990
H165  H     H_    0.870067 0.290591 0.791218 0.256500
H166  H     H_    0.731854 0.688585 0.723691 0.200906
H167  H     H_    0.841516 0.684763 0.778691 0.256734
H168  H     H_    0.838106 0.719236 0.739791 0.250860
H169  H     H_    0.874012 0.730901 0.782474 0.259254
H170  H     H_    0.671641 0.305877 0.252777 0.249986
H171  H     H_    0.643172 0.257961 0.251664 0.251291
H172  H     H_    0.629817 0.290410 0.291227 0.256523
H173  H     H_    0.646144 0.738292 0.250816 0.251539
H174  H     H_    0.675084 0.690565 0.252733 0.250544
H175  H     H_    0.632476 0.706380 0.290620 0.255953
H176  H     H_    0.356802 0.258099 0.251657 0.251293
O1    O     O_3   0.250000 0.250000 0.500010 -0.521542
O2    O     O_R   0.365800 0.772730 0.522760 -0.640898
O3    O     O_R   0.134190 0.227260 0.477280 -0.590163
O4    O     O_R   0.365810 0.772740 0.977280 -0.587335
O5    O     O_R   0.365810 0.227260 0.977280 -0.590165
O6    O     O_R   0.634190 0.772740 0.977280 -0.587301
O7    O     O_R   0.634190 0.227260 0.977280 -0.590168
O8    O     O_R   0.634200 0.227270 0.522760 -0.650448
O9    O     O_R   0.634200 0.772730 0.522760 -0.640940
O10   O     O_R   0.865800 0.227270 0.022760 -0.650437
O11   O     O_R   0.865800 0.772730 0.022760 -0.640902
O12   O     O_R   0.134200 0.227270 0.022760 -0.650443
O13   O     O_R   0.134200 0.772730 0.022760 -0.640899
O14   O     O_R   0.865800 0.727270 0.522760 -0.650424
O15   O     O_R   0.865800 0.272730 0.522760 -0.640871
O16   O     O_R   0.134200 0.727270 0.522760 -0.650443
O17   O     O_3   0.250000 0.750000 0.500010 -0.521490
O18   O     O_R   0.134200 0.272730 0.522760 -0.640880
O19   O     O_R   0.365800 0.727270 0.022760 -0.650443
O20   O     O_R   0.365800 0.272730 0.022760 -0.640878
O21   O     O_R   0.634200 0.727270 0.022760 -0.650440
O22   O     O_R   0.634200 0.272730 0.022760 -0.640875
O23   O     O_R   0.280370 0.336740 0.477280 -0.629579
O24   O     O_R   0.280370 0.663260 0.477280 -0.635864
O25   O     O_R   0.719630 0.336740 0.477280 -0.629544
O26   O     O_R   0.719630 0.663260 0.477280 -0.635834
O27   O     O_R   0.780370 0.336740 0.977280 -0.629594
O28   O     O_3   0.750000 0.250000 0.500010 -0.521529
O29   O     O_R   0.780370 0.663260 0.977280 -0.635958
O30   O     O_R   0.219630 0.336740 0.977280 -0.629583
O31   O     O_R   0.219630 0.663260 0.977280 -0.635831
O32   O     O_R   0.780370 0.836740 0.477280 -0.629539
O33   O     O_R   0.780370 0.163260 0.477280 -0.635864
O34   O     O_R   0.219630 0.836740 0.477280 -0.629651
O35   O     O_R   0.219630 0.163260 0.477280 -0.635779
O36   O     O_R   0.280370 0.836740 0.977280 -0.629571
O37   O     O_R   0.280370 0.163260 0.977280 -0.635849
O38   O     O_R   0.719630 0.836740 0.977280 -0.629645
O39   O     O_3   0.750000 0.750000 0.500010 -0.521508
O40   O     O_R   0.719630 0.163260 0.977280 -0.635860
O41   O     O_R   0.280370 0.272750 0.413290 -0.625857
O42   O     O_R   0.280370 0.727250 0.413290 -0.624851
O43   O     O_R   0.719630 0.272750 0.413290 -0.625833
O44   O     O_R   0.719630 0.727250 0.413290 -0.624831
O45   O     O_R   0.780370 0.272750 0.913290 -0.625857
O46   O     O_R   0.780370 0.727250 0.913290 -0.625183
O47   O     O_R   0.219630 0.272750 0.913290 -0.625854
O48   O     O_R   0.219630 0.727250 0.913290 -0.624820
O49   O     O_R   0.780370 0.772750 0.413290 -0.625896
O50   O     O_3   0.750000 0.250000 0.000010 -0.521517
O51   O     O_R   0.780370 0.227250 0.413290 -0.624821
O52   O     O_R   0.219630 0.772750 0.413290 -0.625885
O53   O     O_R   0.219630 0.227250 0.413290 -0.624826
O54   O     O_R   0.280370 0.772750 0.913290 -0.625856
O55   O     O_R   0.280370 0.227250 0.913290 -0.624832
O56   O     O_R   0.719630 0.772750 0.913290 -0.626066
O57   O     O_R   0.719630 0.227250 0.913290 -0.624830
O58   O     O_R   0.280360 0.227270 0.586740 -0.607182
O59   O     O_R   0.280360 0.772730 0.586740 -0.616408
O60   O     O_R   0.719640 0.227270 0.586740 -0.607207
O61   O     O_3   0.750000 0.750000 0.000010 -0.521455
O62   O     O_R   0.719640 0.772730 0.586740 -0.616433
O63   O     O_R   0.780360 0.227270 0.086740 -0.607163
O64   O     O_R   0.780360 0.772730 0.086740 -0.616484
O65   O     O_R   0.219640 0.227270 0.086740 -0.607203
O66   O     O_R   0.219640 0.772730 0.086740 -0.616513
O67   O     O_R   0.780360 0.727270 0.586740 -0.607504
O68   O     O_R   0.780360 0.272730 0.586740 -0.616428
O69   O     O_R   0.219640 0.727270 0.586740 -0.607174
O70   O     O_R   0.219640 0.272730 0.586740 -0.616444
O71   O     O_R   0.280360 0.727270 0.086740 -0.607252
O72   O     O_3   0.250000 0.250000 0.000010 -0.521513
O73   O     O_R   0.280360 0.272730 0.086740 -0.616427
O74   O     O_R   0.719640 0.727270 0.086740 -0.607238
O75   O     O_R   0.719640 0.272730 0.086740 -0.616367
O76   O     O_R   0.219650 0.336740 0.522750 -0.632081
O77   O     O_R   0.219650 0.663260 0.522750 -0.622045
O78   O     O_R   0.780350 0.336740 0.522750 -0.632040
O79   O     O_R   0.780350 0.663260 0.522750 -0.622315
O80   O     O_R   0.719650 0.336740 0.022750 -0.632058
O81   O     O_R   0.719650 0.663260 0.022750 -0.622058
O82   O     O_R   0.280350 0.336740 0.022750 -0.632082
O83   O     O_3   0.250000 0.750000 0.000010 -0.521506
O84   O     O_R   0.280350 0.663260 0.022750 -0.622104
O85   O     O_R   0.719650 0.836740 0.522750 -0.631965
O86   O     O_R   0.719650 0.163260 0.522750 -0.622051
O87   O     O_R   0.280350 0.836740 0.522750 -0.632175
O88   O     O_R   0.280350 0.163260 0.522750 -0.621934
O89   O     O_R   0.219650 0.836740 0.022750 -0.632121
O90   O     O_R   0.219650 0.163260 0.022750 -0.622066
O91   O     O_R   0.780350 0.836740 0.022750 -0.632119
O92   O     O_R   0.780350 0.163260 0.022750 -0.622035
O93   O     O_R   0.365810 0.272740 0.477280 -0.587344
O94   O     O_R   0.365800 0.227270 0.522760 -0.650412
O95   O     O_R   0.365810 0.727260 0.477280 -0.590163
O96   O     O_R   0.634190 0.272740 0.477280 -0.587336
O97   O     O_R   0.634190 0.727260 0.477280 -0.590182
O98   O     O_R   0.865810 0.272740 0.977280 -0.587342
O99   O     O_R   0.865810 0.727260 0.977280 -0.590098
O100  O     O_R   0.134190 0.272740 0.977280 -0.587336
O101  O     O_R   0.134190 0.727260 0.977280 -0.590137
O102  O     O_R   0.865810 0.772740 0.477280 -0.587298
O103  O     O_R   0.865810 0.227260 0.477280 -0.590162
O104  O     O_R   0.134190 0.772740 0.477280 -0.587330
Zn1   Zn    Zn3+2 0.206630 0.282490 0.532500 1.016625
Zn2   Zn    Zn3+2 0.706630 0.217510 0.532500 1.018202
Zn3   Zn    Zn3+2 0.293370 0.782490 0.532500 1.016580
Zn4   Zn    Zn3+2 0.293370 0.217510 0.532500 1.018302
Zn5   Zn    Zn3+2 0.206630 0.782490 0.032500 1.016621
Zn6   Zn    Zn3+2 0.206630 0.217510 0.032500 1.018205
Zn7   Zn    Zn3+2 0.793370 0.782490 0.032500 1.016607
Zn8   Zn    Zn3+2 0.793370 0.217510 0.032500 1.018202
Zn9   Zn    Zn3+2 0.293390 0.282490 0.467530 1.037915
Zn10  Zn    Zn3+2 0.293390 0.717510 0.467530 1.040572
Zn11  Zn    Zn3+2 0.706610 0.282490 0.467530 1.037927
Zn12  Zn    Zn3+2 0.206630 0.717510 0.532500 1.018228
Zn13  Zn    Zn3+2 0.706610 0.717510 0.467530 1.040470
Zn14  Zn    Zn3+2 0.793390 0.282490 0.967530 1.037906
Zn15  Zn    Zn3+2 0.793390 0.717510 0.967530 1.040324
Zn16  Zn    Zn3+2 0.206610 0.282490 0.967530 1.037924
Zn17  Zn    Zn3+2 0.206610 0.717510 0.967530 1.040596
Zn18  Zn    Zn3+2 0.793390 0.782490 0.467530 1.038079
Zn19  Zn    Zn3+2 0.793390 0.217510 0.467530 1.040569
Zn20  Zn    Zn3+2 0.206610 0.782490 0.467530 1.037927
Zn21  Zn    Zn3+2 0.206610 0.217510 0.467530 1.040567
Zn22  Zn    Zn3+2 0.293390 0.782490 0.967530 1.037944
Zn23  Zn    Zn3+2 0.793370 0.282490 0.532500 1.016680
Zn24  Zn    Zn3+2 0.293390 0.217510 0.967530 1.040573
Zn25  Zn    Zn3+2 0.706610 0.782490 0.967530 1.037859
Zn26  Zn    Zn3+2 0.706610 0.217510 0.967530 1.040553
Zn27  Zn    Zn3+2 0.793370 0.717510 0.532500 1.018064
Zn28  Zn    Zn3+2 0.706630 0.282490 0.032500 1.016653
Zn29  Zn    Zn3+2 0.706630 0.717510 0.032500 1.018245
Zn30  Zn    Zn3+2 0.293370 0.282490 0.032500 1.016647
Zn31  Zn    Zn3+2 0.293370 0.717510 0.032500 1.018214
Zn32  Zn    Zn3+2 0.706630 0.782490 0.532500 1.016736

loop_
_geom_bond_atom_site_label_1
_geom_bond_atom_site_label_2
_ccdc_geom_bond_type
C252  H49   S    
C322  C324  A    
C168  C267  A    
C126  C127  S    
O104  Zn20  S    
C80   O33   A    
C11   H134  S    
O83   Zn31  S    
C215  C233  S    
C175  C207  A    
C249  H39   S    
C86   O40   A    
O28   Zn19  S    
C23   Cl51  S    
C232  H164  S    
C233  H167  S    
C230  H157  S    
C201  C225  A    
C21   Cl49  S    
C179  C221  A    
O17   Zn10  S    
C63   C98   A    
C18   C125  A    
C169  C205  A    
C92   C109  A    
C261  H76   S    
C251  H45   S    
O62   Zn32  S    
C135  C217  A    
O9    Zn32  S    
O89   Zn5   S    
C94   C111  A    
C246  H120  S    
C105  C123  A    
C238  H7    S    
C14   H136  S    
C24   O18   A    
C115  Cl64  S    
C321  Cl31  S    
C250  H41   S    
C235  H119  S    
C308  C325  A    
C19   C37   A    
C190  H115  S    
C38   C55   A    
O28   Zn2   S    
C223  O8    A    
C7    H129  S    
C5    H145  S    
C170  C187  A    
C287  C289  A    
C236  H175  S    
C145  C266  S    
C149  C265  S    
C48   C65   A    
O50   Zn26  S    
C92   H91   S    
C170  C204  A    
C293  C314  S    
C113  H107  S    
C93   C110  A    
C71   O77   A    
C262  H77   S    
C286  C336  S    
C99   H98   S    
C137  C138  S    
C244  H26   S    
C124  H108  S    
C260  H71   S    
O15   Zn23  S    
C216  C234  S    
C174  C208  A    
C161  C205  A    
C225  C273  A    
C70   O23   A    
C121  Cl7   S    
C229  C247  S    
C282  O10   A    
C119  Cl5   S    
C50   C263  S    
C284  C301  A    
O67   Zn27  S    
C40   C58   A    
C256  H61   S    
O11   Zn7   S    
C165  C183  A    
O32   Zn18  S    
C286  C303  A    
C146  C270  A    
C166  C184  A    
C59   C84   S    
C32   C139  A    
C147  O46   A    
C47   C64   A    
O90   Zn6   S    
C289  C335  S    
C116  C133  A    
O20   Zn30  S    
C225  C242  S    
O50   Zn14  S    
C157  C272  A    
C173  C191  A    
C203  C273  S    
C23   C130  A    
C302  C320  A    
C281  C284  A    
C222  C274  A    
C3    H142  S    
C79   C211  A    
C113  C267  A    
O10   Zn8   S    
C333  Cl43  S    
O71   Zn31  S    
C111  C130  A    
C56   C86   S    
C39   C56   A    
O4    Zn22  S    
C47   C260  S    
C49   C262  S    
O79   Zn27  S    
C149  O48   A    
C248  H36   S    
C69   C74   S    
C297  C314  A    
C168  C220  A    
C288  C306  A    
C9    C298  S    
C256  H62   S    
C14   H153  S    
C171  C188  A    
C217  C278  A    
C68   C303  S    
O1    Zn21  S    
O46   Zn15  S    
C32   Cl60  S    
C241  H16   S    
C5    H127  S    
O65   Zn6   S    
C120  C138  A    
C17   C34   A    
C151  O69   A    
C42   C60   A    
C223  O96   A    
C103  C121  A    
O38   Zn25  S    
C117  Cl3   S    
C118  C136  A    
O31   Zn17  S    
C233  H169  S    
O33   Zn19  S    
O92   Zn8   S    
O64   Zn7   S    
O13   Zn5   S    
C177  C195  A    
C158  O66   A    
C255  H59   S    
C182  C199  A    
O17   Zn12  S    
C254  H55   S    
C73   O26   A    
C139  C140  S    
O83   Zn5   S    
C263  H82   S    
C206  C276  S    
C235  C269  A    
C152  O68   A    
C15   C290  S    
C290  C308  A    
C23   C41   A    
C238  H5    S    
C228  C278  A    
C1    O93   A    
C130  C131  S    
C293  O11   A    
C180  Cl13  S    
C166  C210  A    
C286  C288  A    
C72   O25   A    
O54   Zn22  S    
C182  Cl15  S    
C240  H14   S    
C35   O4    A    
C229  C277  A    
C231  H160  S    
C179  H114  S    
C221  C275  A    
O17   Zn3   S    
C190  C265  A    
C90   H105  S    
C103  H102  S    
C123  C125  S    
C324  Cl35  S    
C44   C258  S    
C146  C218  A    
C60   C95   A    
C310  C328  A    
C8    C10   S    
C260  H73   S    
C251  H44   S    
C51   C69   A    
C224  C270  A    
C185  C197  A    
C181  Cl14  S    
C303  C321  A    
O59   Zn3   S    
C37   C250  S    
C135  H109  S    
C183  Cl16  S    
C240  H11   S    
C167  C185  A    
C101  C266  A    
C18   C36   A    
C329  Cl39  S    
C256  H63   S    
C163  C181  A    
O77   Zn12  S    
C82   O35   A    
C165  C209  A    
C128  C129  S    
O50   Zn28  S    
C61   C96   A    
C253  H53   S    
C295  C297  A    
O83   Zn17  S    
C259  H70   S    
C72   O78   A    
O52   Zn20  S    
C106  C125  A    
C336  H141  S    
C100  H99   S    
C29   C47   A    
O16   Zn12  S    
C30   C48   A    
C122  Cl8   S    
C150  O58   A    
C160  H89   S    
C190  C222  A    
C154  C198  S    
C164  H133  S    
C234  H172  S    
C318  Cl28  S    
C334  H139  S    
C48   C261  S    
C135  C269  A    
O87   Zn3   S    
C110  C129  A    
C141  O41   A    
C158  O71   A    
C85   O91   A    
C4    H143  S    
C318  C320  A    
C2    O15   A    
C253  H52   S    
C76   O30   A    
C264  H86   S    
C27   C44   A    
C64   C99   A    
C150  C194  S    
C294  C311  A    
C295  C312  A    
C78   O32   A    
C162  H111  S    
C46   O5    A    
O34   Zn20  S    
C36   C53   A    
C57   O6    A    
C29   Cl57  S    
C50   C67   A    
C162  C180  A    
C213  C231  S    
O28   Zn23  S    
O61   Zn29  S    
C93   H92   S    
C26   Cl53  S    
C243  H22   S    
C112  O2    A    
C246  C268  A    
C19   Cl47  S    
C147  O56   A    
C262  H80   S    
C115  C132  A    
C89   H88   S    
C16   H138  S    
C57   C305  S    
C143  O51   A    
C316  C333  A    
C258  H66   S    
C237  H4    S    
C49   C66   A    
C152  C196  S    
O1    Zn4   S    
C251  H47   S    
C79   C257  A    
C334  H121  S    
C252  H48   S    
C88   H87   S    
C105  Cl1   S    
C191  C200  A    
C20   C127  A    
C118  Cl4   S    
C164  C208  A    
C298  C316  A    
C227  C244  S    
C327  C329  A    
C55   C78   S    
O93   Zn9   S    
O85   Zn32  S    
C300  C318  A    
C209  C279  S    
C178  C196  A    
C301  C319  A    
O101  Zn17  S    
C188  Cl21  S    
C145  O45   A    
O82   Zn30  S    
C141  O53   A    
O81   Zn29  S    
C326  O14   A    
C62   C97   A    
C331  C333  A    
C304  O12   A    
C101  H106  S    
C87   C105  A    
O26   Zn13  S    
C3    C335  S    
C315  O13   A    
C100  C119  A    
C8    C297  S    
C21   C128  A    
C187  Cl20  S    
C77   O84   A    
O53   Zn21  S    
C184  Cl17  S    
C165  H144  S    
C234  H171  S    
C20   Cl48  S    
C83   O36   A    
C326  O102  A    
C16   C291  S    
C219  C280  A    
C239  H10   S    
C46   O20   A    
C232  H163  S    
C67   C75   S    
C37   C54   A    
C237  H176  S    
C241  H17   S    
O61   Zn7   S    
C176  Cl9   S    
C142  O42   A    
C155  C199  S    
C73   O79   A    
C98   H97   S    
C111  Cl62  S    
C331  Cl41  S    
O72   Zn30  S    
C148  O55   A    
C173  C209  A    
C15   H154  S    
C249  H38   S    
O24   Zn10  S    
O80   Zn28  S    
C107  Cl23  S    
C189  C202  A    
C12   C292  S    
C330  Cl40  S    
C151  O59   A    
C183  C200  A    
C312  C315  S    
C207  C277  S    
C159  C176  A    
C231  H162  S    
C322  Cl32  S    
C121  C139  A    
O12   Zn6   S    
C323  Cl33  S    
C122  C140  A    
O39   Zn27  S    
C171  H24   S    
C261  H75   S    
C263  H83   S    
C42   C255  S    
C68   O7    A    
C106  Cl12  S    
O50   Zn8   S    
O47   Zn16  S    
C4    C284  S    
C175  C193  A    
C5    C285  S    
O39   Zn32  S    
O25   Zn11  S    
C4    H126  S    
C201  C257  A    
C302  C326  S    
O102  Zn18  S    
C186  Cl19  S    
C6    H128  S    
C155  O74   A    
C179  C266  A    
C213  C274  A    
C328  Cl38  S    
O40   Zn26  S    
O95   Zn10  S    
O42   Zn10  S    
C174  H57   S    
C82   O88   A    
C174  C192  A    
C262  H78   S    
C159  H1    S    
C43   C256  S    
C325  Cl36  S    
C260  H72   S    
C112  O95   A    
C291  C309  A    
C68   O22   A    
C114  C131  A    
C169  H2    S    
C148  C257  S    
C168  H113  S    
C214  C232  S    
C304  C313  S    
C175  H68   S    
C75   O81   A    
C80   O86   A    
C330  C332  A    
O44   Zn13  S    
O72   Zn24  S    
C28   C134  A    
C172  H35   S    
C211  C230  S    
C58   C93   A    
C31   C49   A    
C169  C186  A    
C35   C307  S    
C60   C83   S    
C15   H137  S    
C14   C294  S    
C212  C272  A    
O83   Zn22  S    
C31   Cl59  S    
C193  C198  A    
C178  Cl11  S    
C53   C81   S    
C143  C268  S    
C248  H37   S    
C151  C195  S    
C317  C319  A    
C97   H96   S    
C228  C235  A    
C55   C91   A    
C17   Cl44  S    
C24   O3    A    
C9    H131  S    
C27   Cl54  S    
C124  C216  A    
C162  C206  A    
C218  C279  A    
C161  H100  S    
O70   Zn1   S    
C59   C94   A    
C247  H32   S    
C46   C306  S    
O17   Zn20  S    
C242  H20   S    
C261  H74   S    
C177  Cl10  S    
C212  C226  A    
C79   H104  S    
C104  H103  S    
C296  C298  A    
C233  H168  S    
C30   C137  A    
C211  C273  A    
C241  H15   S    
C84   O37   A    
C254  H54   S    
O30   Zn16  S    
C150  O70   A    
C249  H40   S    
C117  C134  A    
O5    Zn24  S    
C222  C241  S    
C54   C80   S    
O66   Zn5   S    
O72   Zn6   S    
C170  H13   S    
C305  C322  A    
C327  Cl37  S    
C67   C103  A    
C27   C133  A    
C167  C206  A    
C65   C77   S    
C4    C6    S    
C156  O65   A    
C215  C276  A    
C245  H29   S    
C5    C7    S    
C24   C299  S    
O7    Zn26  S    
C263  H81   S    
C61   C73   S    
C335  H140  S    
C81   O87   A    
O99   Zn15  S    
C77   O31   A    
C43   C61   A    
C210  C280  S    
C7    C283  S    
O1    Zn1   S    
C238  H6    S    
C319  Cl29  S    
C204  C274  S    
C30   Cl58  S    
O28   Zn11  S    
O23   Zn9   S    
C28   Cl55  S    
C109  C128  A    
C110  Cl56  S    
C12   C15   S    
O61   Zn25  S    
C101  C214  A    
C214  C275  A    
C236  H174  S    
C9    H149  S    
C36   C249  S    
C97   C116  A    
C11   H151  S    
C91   H90   S    
C142  O52   A    
C40   C253  S    
O21   Zn29  S    
C244  H25   S    
C154  O63   A    
C22   C129  A    
C6    C281  S    
C258  H64   S    
C144  O44   A    
C254  H56   S    
C309  C327  A    
C224  C227  A    
O57   Zn26  S    
C102  C120  A    
O75   Zn28  S    
C299  C317  A    
C154  O75   A    
C240  H12   S    
C186  C196  A    
O63   Zn8   S    
C112  C310  S    
C247  H33   S    
O43   Zn11  S    
C7    H147  S    
C91   C108  A    
O36   Zn22  S    
C65   C100  A    
O41   Zn9   S    
C13   O104  A    
C243  H23   S    
C25   C42   A    
C160  C204  A    
O84   Zn31  S    
C83   O89   A    
C172  C189  A    
C33   C51   A    
C205  C275  S    
C19   C126  A    
C34   C52   A    
C10   H150  S    
C332  Cl42  S    
C144  O49   A    
C313  C331  A    
C144  C269  S    
C312  C330  A    
O103  Zn19  S    
C146  H110  S    
O29   Zn15  S    
O94   Zn4   S    
C226  C243  S    
O86   Zn2   S    
O6    Zn25  S    
C163  C207  A    
C243  H21   S    
C124  C268  A    
C109  Cl45  S    
C20   C38   A    
C2    C301  S    
C171  C203  A    
C317  Cl27  S    
C160  C177  A    
C242  H18   S    
C164  C182  A    
C253  H51   S    
C89   C107  A    
C311  C329  A    
C29   C136  A    
C104  C122  A    
O73   Zn30  S    
O27   Zn14  S    
C143  O43   A    
C90   C265  A    
C224  H118  S    
C218  C237  S    
C33   Cl61  S    
C161  C178  A    
C227  C279  A    
C2    O103  A    
C282  O98   A    
C216  C277  A    
C85   O38   A    
C78   O85   A    
C87   H79   S    
O91   Zn7   S    
C70   O76   A    
O76   Zn1   S    
C220  C276  A    
C255  H60   S    
C66   C102  A    
C94   H93   S    
C95   H94   S    
O37   Zn24  S    
C281  C299  A    
C189  Cl22  S    
C264  H84   S    
C314  C332  A    
C230  H158  S    
C250  H42   S    
C208  C278  S    
C12   H135  S    
C237  H3    S    
O1    Zn9   S    
C185  Cl18  S    
C219  C238  S    
C1    O94   A    
C271  O9    A    
O98   Zn14  S    
C172  C210  A    
C163  H122  S    
O88   Zn4   S    
C96   H95   S    
C334  C336  S    
O39   Zn13  S    
C81   O34   A    
O49   Zn18  S    
C33   C140  A    
C157  C219  A    
C8    H148  S    
C192  C199  A    
C86   O92   A    
C180  C197  A    
C176  C194  A    
O22   Zn28  S    
C320  Cl30  S    
C283  C300  A    
C17   C123  A    
C244  H27   S    
C132  C133  S    
C321  C323  A    
C335  H123  S    
C153  O62   A    
C220  C239  S    
C149  O54   A    
C64   C70   S    
C148  O47   A    
C306  C323  A    
C16   H156  S    
C245  H28   S    
C289  C307  A    
C307  C324  A    
O61   Zn15  S    
C1    C311  S    
C201  H116  S    
C188  C194  A    
C192  Cl25  S    
O45   Zn14  S    
C18   Cl46  S    
C239  H9    S    
O72   Zn16  S    
C156  C200  S    
O39   Zn18  S    
C84   O90   A    
C22   Cl50  S    
C287  C305  A    
C13   O16   A    
C181  C198  A    
C217  C236  S    
C145  O57   A    
C271  O97   A    
C26   C43   A    
C45   C259  S    
C259  H67   S    
C11   C296  S    
C90   C213  A    
C28   C45   A    
C184  C202  A    
C39   C252  S    
C221  C240  S    
C119  C137  A    
O2    Zn3   S    
C291  C294  A    
C41   C59   A    
C54   C89   A    
C147  C267  S    
C10   H132  S    
O48   Zn17  S    
O35   Zn21  S    
C35   O19   A    
C134  C136  S    
C228  C245  S    
C44   C62   A    
C230  H159  S    
C141  C270  S    
C25   Cl52  S    
C120  Cl6   S    
C41   C254  S    
C45   C63   A    
C13   C300  S    
C8    H130  S    
C6    H146  S    
C31   C138  A    
O8    Zn2   S    
C74   O27   A    
C12   H152  S    
C325  C328  A    
O96   Zn11  S    
O100  Zn16  S    
C288  C334  S    
C88   C106  A    
C264  H85   S    
C159  C203  A    
C38   C251  S    
C21   C39   A    
C152  O60   A    
C22   C40   A    
C242  H19   S    
C62   C72   S    
C166  H155  S    
C96   C115  A    
C226  C280  A    
C271  C308  S    
C52   C82   S    
C9    C11   S    
O68   Zn23  S    
C32   C50   A    
C250  H43   S    
C304  O100  A    
C229  C246  A    
O58   Zn4   S    
C95   C114  A    
C34   C248  S    
C158  C202  S    
C255  H58   S    
C14   C16   S    
C236  H173  S    
C113  C215  A    
C245  H30   S    
O19   Zn31  S    
C25   C131  A    
C58   C85   S    
C173  H46   S    
C26   C132  A    
C75   O29   A    
C98   C117  A    
O51   Zn19  S    
C155  O64   A    
C69   C104  A    
C252  H50   S    
O55   Zn24  S    
C74   O80   A    
C258  H65   S    
C296  C313  A    
C187  C195  A    
C336  H124  S    
C52   C87   A    
C223  C309  S    
C259  H69   S    
C107  C126  A    
C63   C71   S    
C3    H125  S    
C116  Cl2   S    
O3    Zn21  S    
O69   Zn12  S    
C231  H161  S    
C10   C295  S    
C51   C264  S    
O56   Zn25  S    
C315  O101  A    
C285  C302  A    
C293  O99   A    
C239  H8    S    
C232  H165  S    
C114  Cl63  S    
C99   C118  A    
C102  H101  S    
O78   Zn23  S    
C57   O21   A    
C53   C88   A    
C290  C292  A    
O14   Zn27  S    
C108  C127  A    
O97   Zn13  S    
C142  C272  S    
C212  H117  S    
O18   Zn1   S    
C167  H166  S    
C292  C310  A    
C156  O73   A    
C76   O82   A    
C71   O24   A    
C153  O67   A    
O74   Zn29  S    
C193  Cl26  S    
C56   C92   A    
O60   Zn2   S    
C234  H170  S    
C157  H112  S    
C248  H34   S    
C191  Cl24  S    
C108  Cl34  S    
C247  H31   S    
C282  C316  S    
C66   C76   S    
C153  C197  S    
C3    C287  S    
C283  C285  A    
