data_mof_unit_23478.cif
_audit_creation_date              2012-12-10T19:07:03-0500
_audit_creation_method            fapswitch 2.2
_symmetry_space_group_name_H-M    P1
_symmetry_Int_Tables_number       1
_space_group_crystal_system       triclinic
_cell_length_a                    27.668503
_cell_length_b                    10.834725
_cell_length_c                    9.563853
_cell_angle_alpha                 90.656757
_cell_angle_beta                  90.64966
_cell_angle_gamma                 91.003881
_cell_volume                      2866.23847934

loop_
_atom_site_label
_atom_site_type_symbol
_atom_type_description
_atom_site_fract_x
_atom_site_fract_y
_atom_site_fract_z
_atom_type_partial_charge
C1    C     C_R   0.497311 0.262278 0.498279 0.836712
C2    C     C_R   0.277335 0.542946 0.601764 -0.147004
C3    C     C_R   0.252855 0.477935 0.493916 0.234593
C4    C     C_R   0.100030 0.456181 0.494111 -0.041681
C5    C     C_R   0.126943 0.413557 0.609141 -0.013818
C6    C     C_R   0.102795 0.367107 0.725441 -0.115357
C7    C     C_R   0.124453 0.505513 0.378948 -0.093295
C8    C     C_R   0.354342 0.495000 0.496987 -0.152704
C9    C     C_R   0.644768 0.483624 0.500714 -0.282552
C10   C     C_R   0.973399 0.410175 0.620142 0.052051
C11   C     C_R   0.971765 0.459743 0.369762 0.059512
C12   C     C_R   0.407450 0.499692 0.499233 0.822722
C13   C     C_R   0.947236 0.430796 0.494740 0.083233
C14   C     C_R   0.947263 0.391358 0.744606 -0.151270
C15   C     C_R   0.896938 0.389081 0.743999 -0.095878
C16   C     C_R   0.870928 0.403631 0.619133 -0.044721
C17   C     C_R   0.896051 0.422043 0.493753 -0.044828
C18   C     C_R   0.869986 0.433222 0.367381 -0.044216
C19   C     C_R   0.819311 0.434537 0.370131 0.662516
C20   C     C_R   0.820187 0.403518 0.616848 0.690606
C21   C     C_R   0.711332 0.345151 0.454566 0.415635
C22   C     C_R   0.661872 0.369042 0.455433 -0.278631
C23   C     C_R   0.498284 0.737430 0.500669 0.915649
C24   C     C_R   0.677801 0.577734 0.544070 0.284142
C25   C     C_R   0.727372 0.553744 0.542322 0.593079
C26   C     C_R   0.744302 0.438883 0.497470 0.027151
C27   C     C_R   0.024619 0.408243 0.616265 0.070997
C28   C     C_R   0.048794 0.450100 0.494721 0.036763
C29   C     C_R   0.022137 0.487487 0.374830 -0.073892
C30   C     C_R   0.052604 0.365293 0.729623 -0.152430
C31   C     C_R   0.097876 0.554135 0.268030 -0.205996
C32   C     C_R   0.945383 0.452257 0.243022 -0.098947
C33   C     C_R   0.895149 0.442739 0.241752 -0.093886
C34   C     C_R   0.592378 0.499054 0.500583 0.967871
C35   C     C_R   0.047373 0.552430 0.267720 0.317241
C36   C     C_R   0.488328 0.065034 0.619779 -0.176662
C37   C     C_R   0.489674 0.128876 0.493786 -0.136042
C38   C     C_R   0.481781 0.058965 0.367455 0.351777
C39   C     C_R   0.483762 0.930002 0.373146 -0.169101
C40   C     C_R   0.491527 0.869687 0.500378 -0.061556
C41   C     C_R   0.488422 0.938761 0.623503 -0.109053
C42   C     C_3   0.514526 0.938153 0.761239 0.491515
C43   C     C_3   0.515110 0.078703 0.755718 0.539807
C44   C     C_R   0.540745 0.472915 0.074152 0.057073
C45   C     C_R   0.177659 0.418654 0.605384 0.558574
C46   C     C_R   0.459306 0.527354 0.072114 0.764589
C47   C     C_R   0.459463 0.527410 0.924300 -0.152202
C48   C     C_R   0.540084 0.466615 0.926907 0.160167
C49   C     C_3   0.589026 0.524821 0.917239 0.404321
C50   C     C_3   0.588844 0.540869 0.075140 0.034242
C51   C     C_R   0.175239 0.512323 0.381082 0.587026
C52   C     C_R   0.279442 0.422657 0.386839 -0.091855
C53   C     C_R   0.329764 0.432340 0.387504 -0.245705
C54   C     C_R   0.327735 0.550599 0.604326 0.581522
Cu1   Cu    Cu3+1 0.500000 0.499980 0.640670 1.048054
Cu2   Cu    Cu3+1 0.500000 0.500020 0.359330 1.122473
H1    H     H_    0.261092 0.371671 0.303276 0.181792
H2    H     H_    0.116525 0.600200 0.183792 0.234544
H3    H     H_    0.963336 0.452117 0.143701 0.182749
H4    H     H_    0.876169 0.443369 0.142063 0.195652
H5    H     H_    0.480760 0.876828 0.277000 0.242929
H6    H     H_    0.492072 0.899995 0.846532 0.058368
H7    H     H_    0.257186 0.587697 0.683841 0.190700
H8    H     H_    0.493773 0.124019 0.838930 0.095188
H9    H     H_    0.426997 0.552758 0.868931 0.236051
H10   H     H_    0.589526 0.611163 0.855551 0.166359
H11   H     H_    0.618018 0.489845 0.129075 0.186298
H12   H     H_    0.122634 0.332667 0.814740 0.194056
H13   H     H_    0.636248 0.297587 0.421924 0.227941
H14   H     H_    0.878496 0.376212 0.842242 0.191147
H15   H     H_    0.964788 0.382313 0.845178 0.153544
H16   H     H_    0.036597 0.326061 0.821680 0.148971
H17   H     H_    0.349528 0.388627 0.303935 0.217583
N1    N     N_R   0.200857 0.468675 0.493000 -0.451968
N2    N     N_R   0.795558 0.420989 0.493922 -0.431029
N3    N     N_R   0.500300 0.500930 0.147930 -0.207249
N4    N     N_R   0.500310 0.500890 0.852020 -0.276848
O1    O     O_R   0.500000 0.319640 0.618810 -0.558875
O2    O     O_2   0.795595 0.388057 0.736625 -0.446337
O3    O     O_2   0.198781 0.564210 0.273133 -0.508293
O4    O     O_2   0.794019 0.452608 0.250868 -0.457305
O5    O     O_R   0.500010 0.319680 0.381230 -0.522812
O6    O     O_R   0.430260 0.500000 0.618780 -0.571989
O7    O     O_R   0.430270 0.500040 0.381190 -0.516397
O8    O     O_R   0.499990 0.680320 0.618770 -0.576756
O9    O     O_R   0.500000 0.680360 0.381190 -0.537704
O10   O     O_R   0.569730 0.499960 0.618810 -0.538893
O11   O     O_R   0.569740 0.500000 0.381220 -0.577777
O12   O     O_2   0.203579 0.373315 0.712986 -0.519393
F1    F     F_    0.350294 0.614715 0.709682 -0.650807
S1    S     S_3+6 0.659998 0.727350 0.596645 0.156103
O13   O     O_2   0.689111 0.821318 0.517656 -0.169478
O14   O     O_2   0.607303 0.748090 0.569604 -0.242932
O15   O     O_3   0.672011 0.745226 0.768327 -0.426645
H18   H     H_    0.667054 0.834037 0.788000 0.430406
F2    F     F_    0.759863 0.642951 0.583032 -0.563974
S2    S     S_3+6 0.020077 0.658704 0.151479 0.023503
O16   O     O_2   0.012386 0.598542 0.010400 -0.276699
O17   O     O_2   0.972624 0.703302 0.205919 -0.243386
O18   O     O_3   0.057256 0.781626 0.131646 -0.475841
H19   H     H_    0.060249 0.819650 0.226115 0.354038
S3    S     S_3+6 0.470543 0.123575 0.200131 0.028933
O19   O     O_2   0.516651 0.179527 0.145949 -0.223040
O20   O     O_2   0.452863 0.025881 0.098007 -0.305775
O21   O     O_3   0.428503 0.233401 0.211348 -0.512347
H20   H     H_    0.400780 0.192977 0.258140 0.327697
F3    F     F_    0.560200 0.889094 0.752896 -0.549080
F4    F     F_    0.561127 0.128531 0.739009 -0.530447
F5    F     F_    0.418381 0.562053 0.136452 -0.628791
F6    F     F_    0.622797 0.440100 0.873983 -0.568506
S4    S     S_3+6 0.586906 0.702292 0.122783 0.073699
O22   O     O_2   0.596973 0.719516 0.276134 -0.196758
O23   O     O_2   0.625024 0.772449 0.044273 -0.194110
O24   O     O_3   0.532586 0.760818 0.084296 -0.513166
H21   H     H_    0.527954 0.744760 0.982978 0.329520
S5    S     S_3+6 0.730781 0.197656 0.400904 0.111321
O25   O     O_2   0.750475 0.205884 0.255452 -0.218705
O26   O     O_2   0.769754 0.153890 0.498170 -0.221058
O27   O     O_3   0.684080 0.096104 0.401172 -0.444931
H22   H     H_    0.694527 0.026007 0.342142 0.418674

loop_
_geom_bond_atom_site_label_1
_geom_bond_atom_site_label_2
_ccdc_geom_bond_type
C10   C27   A    
C21   C26   A    
Cu2   N3    S    
C41   C42   S    
S4    O22   D    
C51   N1    A    
Cu1   Cu2   S    
C46   N3    A    
O24   H21   S    
C2    H7    S    
C28   C29   A    
C31   H2    S    
C36   C37   A    
C54   F1    S    
C4    C7    A    
C5    C6    A    
Cu1   N4    S    
C9    C22   A    
Cu2   O11   S    
C15   C16   A    
S2    O16   D    
S5    O25   D    
C12   O7    A    
S3    O21   S    
C18   C19   A    
C14   H15   S    
C44   N3    A    
C3    N1    S    
C51   O3    S    
O18   H19   S    
C4    C28   A    
C16   C17   A    
C23   O9    A    
C45   O12   S    
C50   H11   S    
C42   H6    S    
C22   H13   S    
C16   C20   A    
C43   F4    S    
C6    H12   S    
C21   C22   A    
C27   C30   A    
C1    O1    A    
C36   C41   A    
O15   H18   S    
C21   S5    S    
S2    O17   D    
C43   H8    S    
Cu2   O7    S    
C39   H5    S    
C7    C31   A    
C49   H10   S    
C24   C25   A    
C10   C14   A    
C8    C54   A    
S1    O13   D    
Cu1   O1    S    
C1    O5    A    
C5    C45   A    
C20   N2    A    
C45   N1    A    
C48   N4    A    
Cu1   O8    S    
C37   C38   A    
S1    O14   D    
Cu2   O9    S    
C8    C12   S    
C17   C18   A    
S4    O23   D    
C34   O11   A    
O27   H22   S    
S3    O20   D    
C11   C29   A    
C48   C49   S    
C6    C30   A    
C11   C32   A    
C33   H4    S    
C2    C54   A    
C9    C34   S    
C31   C35   A    
C42   C43   S    
C47   N4    A    
Cu1   O6    S    
C24   S1    S    
C39   C40   A    
S2    O18   S    
C52   C53   A    
C42   F3    S    
C44   C50   S    
C15   H14   S    
C46   C47   A    
C40   C41   A    
C20   O2    S    
C53   H17   S    
C4    C5    A    
C10   C13   A    
C8    C53   A    
C30   H16   S    
C3    C52   A    
C9    C24   A    
Cu2   O5    S    
C1    C37   S    
O21   H20   S    
C29   C35   A    
S5    O27   S    
C13   C17   A    
C32   C33   A    
C19   N2    A    
C2    C3    A    
C25   C26   A    
C7    C51   A    
C38   S3    S    
C35   S2    S    
S1    O15   S    
C11   C13   A    
C38   C39   A    
C50   S4    S    
S5    O26   D    
S4    O24   S    
C34   O10   A    
Cu1   O10   S    
S3    O19   D    
C18   C33   A    
C52   H1    S    
C44   C48   A    
C12   O6    A    
C25   F2    S    
C26   N2    S    
C49   C50   S    
C23   O8    A    
C46   F5    S    
C27   C28   A    
C14   C15   A    
C36   C43   S    
C32   H3    S    
C19   O4    S    
C47   H9    S    
C23   C40   S    
C49   F6    S    
