data_mof_unit_33399.cif
_audit_creation_date              2012-12-11T17:43:43-0500
_audit_creation_method            fapswitch 2.2
_symmetry_space_group_name_H-M    P1
_symmetry_Int_Tables_number       1
_space_group_crystal_system       triclinic
_cell_length_a                    15.071768
_cell_length_b                    14.95055
_cell_length_c                    17.215779
_cell_angle_alpha                 108.809563
_cell_angle_beta                  106.323572
_cell_angle_gamma                 108.846426
_cell_volume                      3137.52218531

loop_
_atom_site_label
_atom_site_type_symbol
_atom_type_description
_atom_site_fract_x
_atom_site_fract_y
_atom_site_fract_z
_atom_type_partial_charge
C1    C     C_R   0.084280 0.289269 0.081224 -0.039301
C2    C     C_R   0.081689 0.116310 0.138876 0.815319
C3    C     C_R   0.990145 0.924898 0.077643 -0.210226
C4    C     C_R   0.990230 0.115018 0.087740 -0.222786
C5    C     C_R   0.082254 0.021972 0.136143 -0.024832
C6    C     C_R   0.895039 0.025828 0.057824 -0.000566
C7    C     C_R   0.706457 0.970962 0.969574 0.821509
C8    C     C_R   0.170630 0.990814 0.264487 0.724133
C9    C     C_R   0.611827 0.039889 0.044348 0.708557
C10   C     C_R   0.356971 0.055065 0.330192 0.594845
C11   C     C_R   0.537676 0.608550 0.283116 0.299196
C12   C     C_R   0.907831 0.722240 0.975295 -0.022612
C13   C     C_R   0.482223 0.272086 0.645340 0.273659
C14   C     C_R   0.515231 0.581982 0.191229 0.330587
C15   C     C_R   0.469848 0.289529 0.726021 0.306418
C16   C     C_R   0.938030 0.518322 0.747194 0.817342
C17   C     C_R   0.063745 0.549886 0.262861 0.689802
C18   C     C_R   0.460687 0.474521 0.125530 -0.491466
C19   C     C_R   0.464354 0.382691 0.773613 -0.480263
C20   C     C_R   0.428959 0.394978 0.152613 0.576687
C21   C     C_R   0.467154 0.455220 0.737814 0.579122
C22   C     C_R   0.446152 0.422066 0.242937 0.583972
C23   C     C_R   0.029796 0.576430 0.746972 -0.301815
C24   C     C_R   0.478174 0.436874 0.657013 0.583247
C25   C     C_R   0.500798 0.528462 0.308434 0.221774
C26   C     C_R   0.486737 0.346202 0.611049 0.178545
C27   C     C_R   0.533367 0.432903 0.018632 -0.081490
C28   C     C_R   0.376304 0.417289 0.874813 -0.068594
C29   C     C_R   0.540936 0.419668 0.937315 0.069339
C30   C     C_R   0.373175 0.438583 0.959305 0.051946
C31   C     C_R   0.460721 0.407065 0.862871 0.285289
C32   C     C_R   0.451483 0.443933 0.031465 0.302827
C33   C     C_R   0.614061 0.974725 0.966425 -0.390644
C34   C     C_R   0.973250 0.531157 0.273336 -0.183967
C35   C     C_R   0.260515 0.002991 0.328392 -0.515208
C36   C     C_R   0.970199 0.554115 0.360171 -0.125764
C37   C     C_R   0.043942 0.586885 0.670809 -0.144232
C38   C     C_R   0.119823 0.549149 0.566372 0.379802
C39   C     C_R   0.905585 0.612599 0.470151 0.356504
C40   C     C_R   0.761271 0.200364 0.814767 0.471484
C41   C     C_R   0.283052 0.782024 0.174080 0.328183
C42   C     C_R   0.117831 0.560875 0.648347 0.744548
C43   C     C_R   0.903999 0.592578 0.384643 0.777608
C44   C     C_R   0.976435 0.608713 0.614811 0.006549
C45   C     C_R   0.748811 0.190445 0.728468 -0.146795
C46   C     C_R   0.038476 0.537213 0.419743 -0.004451
C47   C     C_R   0.976267 0.596353 0.531173 -0.162302
C48   C     C_R   0.046059 0.562010 0.506031 -0.181795
C49   C     C_R   0.708256 0.091234 0.644997 -0.405117
C50   C     C_R   0.444806 0.850340 0.325239 -0.388340
C51   C     C_R   0.615985 0.000590 0.395496 0.889802
C52   C     C_R   0.579114 0.909136 0.564095 0.885864
C53   C     C_R   0.527527 0.919492 0.317296 0.718760
C54   C     C_R   0.662002 0.992072 0.643049 0.631544
C55   C     C_R   0.460882 0.851805 0.410357 0.989896
C56   C     C_R   0.340527 0.776697 0.250117 -0.163472
C57   C     C_R   0.704737 0.092324 0.562599 1.007423
C58   C     C_R   0.555241 0.920916 0.484642 -0.556874
C59   C     C_R   0.627373 0.004956 0.480607 -0.526413
C60   C     C_R   0.702532 0.102363 0.125793 0.248406
C61   C     C_R   0.364082 0.093875 0.267280 0.303352
C62   C     C_R   0.795773 0.100780 0.128850 0.572038
C63   C     C_R   0.274302 0.080468 0.202108 0.708745
C64   C     C_R   0.263851 0.534802 0.954783 0.842265
C65   C     C_R   0.697261 0.397491 0.987823 0.831241
C66   C     C_R   0.798239 0.034484 0.050901 -0.390588
C67   C     C_R   0.292762 0.462490 0.973772 -0.139656
C68   C     C_R   0.176843 0.030032 0.201018 -0.379804
C69   C     C_R   0.776579 0.292891 0.736084 0.765469
C70   C     C_R   0.277341 0.683481 0.245802 0.891880
C71   C     C_R   0.249441 0.435955 0.027971 -0.217585
C72   C     C_R   0.704314 0.500203 0.919729 -0.195705
C73   C     C_R   0.109052 0.605690 0.826746 0.572463
C74   C     C_R   0.891500 0.460113 0.188956 0.438958
C75   C     C_R   0.913506 0.205215 0.003619 -0.038807
C76   C     C_R   0.080556 0.806511 0.051125 -0.052340
C77   C     C_R   0.996097 0.199114 0.058139 0.137424
C78   C     C_R   0.639987 0.431656 0.939803 -0.108268
C79   C     C_R   0.992123 0.821409 0.039049 0.154735
C80   C     C_R   0.895683 0.930067 0.050207 0.786307
Cl1   Cl    Cl    0.524126 0.559548 0.422312 -0.166231
Cl2   Cl    Cl    0.485607 0.158719 0.269798 -0.175662
Cl3   Cl    Cl    0.674299 0.114270 0.838625 -0.441849
Cl4   Cl    Cl    0.333022 0.856699 0.122363 -0.435074
Cl5   Cl    Cl    0.224261 0.725341 0.880212 -0.350562
Cl6   Cl    Cl    0.764895 0.386593 0.172353 -0.478963
Cl7   Cl    Cl    0.503316 0.327197 0.510680 -0.242354
Cl8   Cl    Cl    0.618009 0.740989 0.367247 -0.447688
Cl9   Cl    Cl    0.492935 0.157677 0.588116 -0.413977
Cl10  Cl    Cl    0.559276 0.682818 0.159008 -0.402243
Cl11  Cl    Cl    0.458486 0.192840 0.765726 -0.396912
Cl12  Cl    Cl    0.213583 0.514262 0.541046 -0.322831
Cl13  Cl    Cl    0.818398 0.657366 0.497815 -0.387702
Cl14  Cl    Cl    0.699011 0.179348 0.225316 -0.213643
F1    F     F_    0.706875 0.906630 0.893327 -0.533804
F2    F     F_    0.161442 0.609914 0.330200 -0.597109
F3    F     F_    0.773470 0.177077 0.562158 -0.555945
F4    F     F_    0.382251 0.793715 0.424473 -0.547794
F5    F     F_    0.698344 0.973712 0.714724 -0.551968
F6    F     F_    0.525844 0.908462 0.235790 -0.530835
F7    F     F_    0.689932 0.073285 0.387450 -0.519129
F8    F     F_    0.524355 0.817457 0.564833 -0.490118
F9    F     F_    0.521193 0.041152 0.040804 -0.489523
F10   F     F_    0.443694 0.067803 0.393090 -0.614710
F11   F     F_    0.882969 0.160448 0.208576 -0.582821
F12   F     F_    0.077977 0.942499 0.265481 -0.602113
F13   F     F_    0.281538 0.114469 0.138846 -0.517076
F14   F     F_    0.299118 0.587010 0.910342 -0.583675
F15   F     F_    0.655544 0.302222 0.987480 -0.598545
F16   F     F_    0.753791 0.317851 0.666750 -0.553628
F17   F     F_    0.313136 0.626726 0.281932 -0.614728
F18   F     F_    0.804532 0.844452 0.021346 -0.640130
F19   F     F_    0.169136 0.209399 0.195287 -0.621620
F20   F     F_    0.380596 0.290990 0.090950 -0.534861
F21   F     F_    0.462507 0.545513 0.782782 -0.525381
F22   F     F_    0.411906 0.344411 0.267330 -0.510206
F23   F     F_    0.482127 0.508494 0.624043 -0.476436
F24   F     F_    0.839160 0.611066 0.326186 -0.605858
F25   F     F_    0.182604 0.538104 0.702650 -0.590851
F26   F     F_    0.843474 0.503558 0.695006 -0.593198
H1    H     H_    0.161959 0.318756 0.131096 0.202330
H2    H     H_    0.681847 0.534126 0.875447 0.173188
H3    H     H_    0.833044 0.157163 0.982531 0.153252
H4    H     H_    0.159387 0.865143 0.091101 0.140001
H5    H     H_    0.826801 0.702416 0.945970 0.198941
H6    H     H_    0.596428 0.443863 0.076280 0.183048
H7    H     H_    0.314092 0.410355 0.819163 0.197024
H8    H     H_    0.084817 0.502194 0.397174 0.232379
H9    H     H_    0.921902 0.630625 0.635390 0.237338
H10   H     H_    0.543778 0.926264 0.903590 0.283985
H11   H     H_    0.255567 0.972911 0.377209 0.268400
H12   H     H_    0.253566 0.380012 0.053675 0.183059
N1    N     N_R   0.055660 0.348550 0.045620 -0.077682
N2    N     N_R   0.185200 0.638170 0.176300 -0.168219
N3    N     N_R   0.201680 0.494570 0.045620 -0.099699
N4    N     N_R   0.798320 0.505430 0.954380 -0.090990
N5    N     N_R   0.068420 0.560530 0.871650 -0.177458
N6    N     N_R   0.931580 0.439470 0.128350 -0.146421
N7    N     N_R   0.948070 0.295860 0.997670 -0.074763
N8    N     N_R   0.051930 0.704140 0.002330 -0.059377
N9    N     N_R   0.944340 0.651450 0.954380 -0.079652
N10   N     N_R   0.960830 0.507850 0.823700 -0.178217
N11   N     N_R   0.039170 0.492150 0.176300 -0.145443
N12   N     N_R   0.811290 0.303410 0.871650 -0.157009
N13   N     N_R   0.188710 0.696590 0.128350 -0.151211
N14   N     N_R   0.205200 0.552990 0.997670 -0.126222
N15   N     N_R   0.794800 0.447010 0.002330 -0.130152
N16   N     N_R   0.814800 0.361830 0.823700 -0.169636
Ni1   Ni    Ni4+2 0.119340 0.493420 0.109960 0.275768
Ni2   Ni    Ni4+2 0.880660 0.506580 0.890040 0.263623
Ni3   Ni    Ni4+2 0.872590 0.372590 0.000000 0.287278
Ni4   Ni    Ni4+2 0.127410 0.627410 0.000000 0.317004

loop_
_geom_bond_atom_site_label_1
_geom_bond_atom_site_label_2
_ccdc_geom_bond_type
C33   H10   S    
C9    C33   A    
N5    N10   A    
C27   C29   A    
C1    C77   A    
C14   C18   A    
C16   N10   A    
C76   C79   A    
N12   N16   A    
C19   C31   S    
C62   F11   S    
C15   C19   A    
C74   N6    A    
C52   F8    S    
C24   F23   S    
C75   H3    S    
C46   H8    S    
C19   C21   A    
N16   Ni2   S    
C38   C42   A    
N12   Ni3   S    
N6    N11   A    
C16   F26   S    
C71   N3    A    
C11   C14   A    
C42   F25   S    
C57   C59   A    
C11   C25   A    
C64   N14   A    
C49   C54   A    
C12   C79   A    
C38   Cl12  S    
C49   C57   A    
C12   N9    A    
C60   C62   A    
C37   C42   A    
C61   C63   A    
C39   Cl13  S    
C72   C78   A    
C71   H12   S    
C14   Cl10  S    
C29   C78   S    
C26   Cl7   S    
C22   C25   A    
N11   Ni1   S    
N5    Ni4   S    
C36   C46   A    
C10   C35   A    
C65   N15   A    
N8    Ni4   S    
C67   C71   A    
C30   C67   S    
C28   H7    S    
C21   F21   S    
C13   Cl9   S    
C22   F22   S    
C3    C79   S    
C10   F10   S    
N4    N15   A    
C25   Cl1   S    
C7    C33   A    
C40   Cl3   S    
C23   C73   A    
C5    C68   S    
C1    N1    A    
C3    C80   A    
C52   C54   A    
N9    Ni2   S    
C64   F14   S    
C51   C59   A    
C76   N8    A    
C53   F6    S    
C40   C45   A    
C46   C48   A    
C50   C53   A    
C62   C66   A    
C45   C69   A    
C76   H4    S    
C64   C67   A    
N1    Ni1   S    
N8    N9    A    
C4    C6    A    
C39   C43   A    
C12   H5    S    
C58   C59   A    
N3    Ni1   S    
N2    Ni1   S    
C50   C56   S    
C51   C53   A    
C8    C35   A    
C2    C4    A    
C41   C56   A    
C30   C32   A    
C69   F16   S    
C6    C80   A    
C47   C48   A    
C45   C49   S    
C11   Cl8   S    
C9    F9    S    
N3    N14   A    
C57   F3    S    
C80   F18   S    
C17   F2    S    
C74   Cl6   S    
C75   C77   A    
C73   Cl5   S    
C52   C58   A    
C34   C74   A    
N14   Ni4   S    
C20   C22   A    
C8    C68   A    
C16   C23   A    
C56   C70   A    
C13   C15   A    
C54   F5    S    
C21   C24   A    
C10   C61   A    
C18   C32   S    
C17   C34   A    
C63   F13   S    
C35   H11   S    
C39   C47   A    
C2    F19   S    
N2    N13   A    
C63   C68   A    
C65   C78   A    
C72   H2    S    
C27   C32   A    
C38   C48   A    
C28   C31   A    
C24   C26   A    
C3    C5    A    
C8    F12   S    
N4    Ni2   S    
C44   C47   A    
N1    N7    A    
N6    Ni3   S    
C51   F7    S    
C7    F1    S    
C50   C55   A    
C17   N11   A    
C61   Cl2   S    
C9    C60   A    
N10   Ni2   S    
C37   C44   A    
C40   N12   A    
C44   H9    S    
C4    C77   S    
C29   C31   A    
C23   C37   S    
C7    C66   A    
C20   F20   S    
C41   Cl4   S    
C65   F15   S    
C73   N5    A    
N15   Ni3   S    
C55   F4    S    
N7    Ni3   S    
C27   H6    S    
C34   C36   S    
C28   C30   A    
C18   C20   A    
C13   C26   A    
C1    H1    S    
N13   Ni4   S    
C72   N4    A    
C70   F17   S    
C43   F24   S    
C15   Cl11  S    
C2    C5    A    
C6    C66   S    
C41   N13   A    
C55   C58   A    
C70   N2    A    
C69   N16   A    
C36   C43   A    
C75   N7    A    
C60   Cl14  S    
