data_mof_unit_24885.cif
_audit_creation_date              2012-12-10T19:47:41-0500
_audit_creation_method            fapswitch 2.2
_symmetry_space_group_name_H-M    P1
_symmetry_Int_Tables_number       1
_space_group_crystal_system       triclinic
_cell_length_a                    18.364518
_cell_length_b                    18.262826
_cell_length_c                    18.310386
_cell_angle_alpha                 119.428951
_cell_angle_beta                  90.143249
_cell_angle_gamma                 120.339351
_cell_volume                      4351.88918938

loop_
_atom_site_label
_atom_site_type_symbol
_atom_type_description
_atom_site_fract_x
_atom_site_fract_y
_atom_site_fract_z
_atom_type_partial_charge
C1    C     C_R   0.640328 0.779875 0.638815 0.851905
C2    C     C_R   0.190790 0.948871 0.162650 -0.097646
C3    C     C_R   0.194095 0.891898 0.193108 -0.176962
C4    C     C_R   0.359109 0.220242 0.360411 0.861153
C5    C     C_R   0.256551 0.945280 0.275483 0.222670
C6    C     C_3   0.243514 0.933767 0.351120 -0.341131
C7    C     C_3   0.291709 0.050422 0.412212 -0.350041
C8    C     C_R   0.786459 0.567098 0.338309 0.194914
C9    C     C_R   0.696470 0.485721 0.305441 -0.180292
C10   C     C_R   0.664197 0.392179 0.221208 -0.196146
C11   C     C_R   0.719068 0.390416 0.166208 0.338116
C12   C     C_3   0.736053 0.437455 0.638847 0.153373
C13   C     C_R   0.803559 0.484352 0.195399 -0.192311
C14   C     C_R   0.837676 0.566918 0.284039 0.074270
C15   C     C_3   0.888562 0.680480 0.326936 -0.518405
C16   C     C_R   0.357436 0.497160 0.637424 0.876077
C17   C     C_3   0.832486 0.681503 0.388385 -0.249331
C18   C     C_R   0.718167 0.950169 0.661939 0.093670
C19   C     C_R   0.697199 0.891699 0.696651 -0.190827
C20   C     C_R   0.728863 0.942059 0.788753 -0.240490
C21   C     C_R   0.784691 0.050454 0.845864 0.357877
C22   C     C_R   0.803333 0.108585 0.809481 -0.199039
C23   C     C_3   0.697820 0.498451 0.697927 -0.173559
C24   C     C_R   0.767016 0.057090 0.718098 0.050672
C25   C     C_3   0.817497 0.073296 0.657550 -0.504531
C26   C     C_3   0.769260 0.956649 0.598387 0.277608
C27   C     C_R   0.307244 0.583951 0.328493 0.093806
C28   C     C_R   0.640155 0.497707 0.360187 0.911179
C29   C     C_R   0.296113 0.492597 0.303978 -0.113105
C30   C     C_R   0.222957 0.397339 0.227681 -0.057164
C31   C     C_R   0.171586 0.399915 0.172991 -0.134200
C32   C     C_R   0.189991 0.494407 0.195981 -0.042422
C33   C     C_R   0.253962 0.584310 0.276579 -0.049817
C34   C     C_3   0.804226 0.499024 0.796286 -0.225531
C35   C     C_3   0.325188 0.690898 0.302789 0.148013
C36   C     C_3   0.386828 0.690325 0.359530 0.098882
C37   C     C_R   0.280902 0.567273 0.726678 0.075561
C38   C     C_R   0.293864 0.489315 0.685605 -0.270093
C39   C     C_R   0.247865 0.407295 0.695683 0.266691
C40   C     C_R   0.357449 0.498171 0.359249 0.839080
C41   C     C_R   0.214800 0.421909 0.767318 0.321518
C42   C     C_R   0.200664 0.501549 0.807758 -0.321435
C43   C     C_R   0.232007 0.571598 0.784054 0.059429
C44   C     C_3   0.296749 0.688003 0.843797 0.207592
C45   C     C_3   0.711383 0.462390 0.812686 -0.488526
C46   C     C_3   0.348663 0.681333 0.778206 -0.391065
C47   C     C_R   0.859505 0.496519 0.139625 0.897249
C48   C     C_R   0.143289 0.502751 0.862965 0.919706
C49   C     C_R   0.138190 0.779819 0.139292 0.819466
C50   C     C_R   0.859988 0.220284 0.862573 0.900959
C51   C     C_R   0.139138 0.498348 0.140418 0.915833
C52   C     C_R   0.640818 0.501307 0.642837 0.912040
C53   C     C_R   0.859369 0.497857 0.855749 0.959526
C54   C     C_3   0.778069 0.611329 0.768829 -0.624243
C55   C     C_3   0.846492 0.616869 0.825679 0.295550
C56   C     C_3   0.782584 0.416099 0.691857 0.482312
C57   C     C_3   0.646152 0.451541 0.748231 -0.174108
C58   C     C_2   0.121555 0.899535 0.080051 0.512647
C59   C     C_2   0.295452 0.900022 0.371930 0.523084
C60   C     C_2   0.227772 0.075332 0.448213 0.588218
C61   C     C_2   0.573657 0.297342 0.189673 0.622804
C62   C     C_2   0.887647 0.741125 0.483815 0.510782
C63   C     C_2   0.831417 0.924827 0.594692 0.405259
C64   C     C_2   0.198196 0.295695 0.204862 0.504934
C65   C     C_2   0.466055 0.696531 0.331295 0.634743
C66   C     C_2   0.860398 0.688790 0.923651 0.405011
C67   C     C_R   0.305001 0.051331 0.331682 0.110358
C68   C     C_2   0.349451 0.726605 0.727523 0.677199
C69   C     C_2   0.599749 0.499302 0.798763 0.443680
C70   C     C_R   0.302792 0.108745 0.303857 -0.069784
C71   C     C_R   0.248914 0.057066 0.217248 -0.124968
H1    H     H_    0.752851 0.656205 0.810303 0.148719
H2    H     H_    0.787673 0.702943 0.380053 0.184666
H3    H     H_    0.713076 0.896758 0.815817 0.181804
H4    H     H_    0.798181 0.104625 0.628603 0.253851
H5    H     H_    0.891031 0.118683 0.689149 0.227054
H6    H     H_    0.117344 0.328791 0.112873 0.190864
H7    H     H_    0.307116 0.744333 0.342395 0.156799
H8    H     H_    0.335442 0.715696 0.909360 0.117059
H9    H     H_    0.416406 0.705067 0.806674 0.122238
H10   H     H_    0.721296 0.516924 0.882819 0.206107
H11   H     H_    0.789903 0.492549 0.627839 0.190289
H12   H     H_    0.592703 0.368878 0.697813 0.274471
H13   H     H_    0.670357 0.129234 0.550282 0.411298
H14   H     H_    0.059922 0.823584 0.050524 0.126776
H15   H     H_    0.274397 0.865042 0.408426 0.068135
H16   H     H_    0.223765 0.088228 0.512012 0.134095
H17   H     H_    0.528723 0.252666 0.122850 0.104496
H18   H     H_    0.746306 0.209879 0.980808 0.402998
H19   H     H_    0.940214 0.823026 0.518975 0.120991
H20   H     H_    0.966891 0.246457 0.017034 0.361758
H21   H     H_    0.797553 0.999252 0.461554 0.379088
H22   H     H_    0.961440 0.808569 0.804090 0.380678
H23   H     H_    0.679148 0.389191 0.807596 0.275515
H24   H     H_    0.820713 0.873870 0.614176 0.076466
H25   H     H_    0.225941 0.290010 0.252588 0.049092
H26   H     H_    0.382893 0.613105 0.097501 0.409424
H27   H     H_    0.520847 0.768762 0.343414 0.173272
H28   H     H_    0.350839 0.803482 0.573202 0.404130
H29   H     H_    0.154699 0.270112 0.504263 0.355606
H30   H     H_    0.235155 0.393079 0.949242 0.400333
H31   H     H_    0.218056 0.837299 0.971266 0.394798
H32   H     H_    0.859849 0.755475 0.945098 0.126875
H33   H     H_    0.396662 0.809071 0.759213 0.083222
H34   H     H_    0.246756 0.101334 0.195047 0.204787
H35   H     H_    0.638334 0.579859 0.854536 0.060214
H36   H     H_    0.526459 0.190888 0.457810 0.388285
H37   H     H_    0.941315 0.445786 0.563397 0.408497
H38   H     H_    0.171695 0.886660 0.344161 0.154738
H39   H     H_    0.356065 0.093666 0.464152 0.197544
H40   H     H_    0.810686 0.649422 0.734884 0.249719
H41   H     H_    0.960906 0.721621 0.360175 0.216861
H42   H     H_    0.874349 0.698688 0.281296 0.217845
O1    O     O_3   0.500000 0.500000 0.500000 -0.541631
O2    O     O_R   0.945140 0.268320 0.884430 -0.631049
O3    O     O_R   0.116800 0.560590 0.177500 -0.630531
O4    O     O_R   0.676800 0.731580 0.616070 -0.667309
O5    O     O_R   0.822390 0.439230 0.883130 -0.612222
O6    O     O_R   0.116800 0.439160 0.056060 -0.634217
O7    O     O_R   0.943840 0.560660 0.883130 -0.563372
O8    O     O_R   0.115490 0.731510 0.054770 -0.620662
O9    O     O_R   0.823160 0.268340 0.883890 -0.594946
O10   O     O_R   0.945140 0.560620 0.176740 -0.650349
O11   O     O_R   0.116030 0.439190 0.884430 -0.575147
O12   O     O_R   0.384470 0.439280 0.616070 -0.564627
O13   O     O_R   0.384470 0.268410 0.445190 -0.601190
O14   O     O_R   0.383920 0.560720 0.615530 -0.640839
O15   O     O_R   0.554810 0.439290 0.323210 -0.619186
O16   O     O_R   0.383160 0.560750 0.443890 -0.580042
O17   O     O_R   0.677560 0.560680 0.616830 -0.624417
O18   O     O_R   0.383160 0.439320 0.322450 -0.644558
O19   O     O_R   0.556120 0.439250 0.616830 -0.598977
O20   O     O_2   0.752041 0.270847 0.722421 -0.306412
O21   O     O_2   0.616563 0.243153 0.659763 -0.267165
O22   O     O_3   0.702187 0.196405 0.557409 -0.397618
O23   O     O_R   0.676800 0.560710 0.445190 -0.591841
O24   O     O_2   0.131707 0.944596 0.044912 -0.472658
O25   O     O_2   0.363086 0.915986 0.352492 -0.465052
O26   O     O_2   0.176115 0.073796 0.404392 -0.502385
O27   O     O_2   0.549938 0.266534 0.237026 -0.510481
O28   O     O_2   0.622197 0.180037 0.068061 -0.248342
O29   O     O_2   0.634062 0.260760 0.990159 -0.276634
O30   O     O_3   0.771197 0.269613 0.043440 -0.478405
O31   O     O_2   0.874164 0.699156 0.522467 -0.502351
O32   O     O_2   0.760118 0.079759 0.998795 -0.200432
O33   O     O_2   0.878483 0.058011 0.963870 -0.262626
O34   O     O_R   0.554810 0.731590 0.615530 -0.585568
O35   O     O_3   0.908510 0.234961 0.019903 -0.552220
O36   O     O_2   0.642081 0.780717 0.446248 -0.307542
O37   O     O_2   0.640346 0.931772 0.497626 -0.258342
O38   O     O_3   0.761927 0.923127 0.429019 -0.463566
O39   O     O_2   0.030445 0.709196 0.868534 -0.148352
O40   O     O_2   0.951143 0.645061 0.720180 -0.232676
O41   O     O_3   0.978576 0.810040 0.856374 -0.504590
O42   O     O_2   0.893872 0.954922 0.567853 -0.517787
O43   O     O_2   0.144874 0.216132 0.132416 -0.494673
O44   O     O_2   0.286524 0.696229 0.163309 -0.300132
O45   O     O_R   0.383920 0.268420 0.323210 -0.641183
O46   O     O_2   0.444760 0.797788 0.247004 -0.229089
O47   O     O_3   0.358091 0.597948 0.140151 -0.539066
O48   O     O_2   0.469215 0.621987 0.293444 -0.547812
O49   O     O_2   0.484315 0.785352 0.527919 -0.235261
O50   O     O_2   0.461366 0.888354 0.494708 -0.230845
O51   O     O_3   0.327664 0.751254 0.508128 -0.525552
O52   O     O_2   0.297115 0.278448 0.632055 -0.210178
O53   O     O_2   0.137077 0.199223 0.609120 -0.218842
O54   O     O_3   0.205240 0.265662 0.512887 -0.531049
O55   O     O_2   0.115299 0.266411 0.786531 -0.242240
O56   O     O_3   0.999960 0.499910 0.999960 -0.546587
O57   O     O_2   0.266904 0.315826 0.788812 -0.183003
O58   O     O_3   0.250540 0.437428 0.927469 -0.530444
O59   O     O_2   0.312801 0.857095 0.874409 -0.293436
O60   O     O_2   0.168344 0.690202 0.772428 -0.151366
O61   O     O_3   0.207015 0.768716 0.941826 -0.483066
O62   O     O_2   0.877051 0.677529 0.980474 -0.630663
O63   O     O_2   0.298827 0.672410 0.651456 -0.494623
O64   O     O_2   0.518314 0.447032 0.778210 -0.478303
O65   O     O_2   0.644963 0.370452 0.476853 -0.312075
O66   O     O_2   0.704363 0.277991 0.475038 -0.131069
O67   O     O_R   0.823160 0.439210 0.054770 -0.579440
O68   O     O_3   0.562601 0.243386 0.521775 -0.502942
O69   O     O_2   0.969080 0.515798 0.734912 -0.218422
O70   O     O_2   0.877982 0.331864 0.629849 -0.242948
O71   O     O_3   0.887139 0.440944 0.575804 -0.475646
O72   O     O_R   0.115490 0.560640 0.883890 -0.565163
O73   O     O_R   0.116030 0.731490 0.176740 -0.642126
S1    S     S_3+6 0.710458 0.280435 0.659823 0.112946
S2    S     S_3+6 0.244881 0.752658 0.855634 0.117793
S3    S     S_3+6 0.661600 0.330054 0.524567 0.120788
S4    S     S_3+6 0.882099 0.427248 0.660496 0.110619
S5    S     S_3+6 0.683108 0.271352 0.064480 0.072175
S6    S     S_3+6 0.833353 0.105847 0.959222 0.054819
S7    S     S_3+6 0.699080 0.895470 0.490416 0.059706
S8    S     S_3+6 0.954440 0.692143 0.815405 0.097884
S9    S     S_3+6 0.354650 0.698233 0.211388 0.040844
S10   S     S_3+6 0.418726 0.783179 0.476318 0.061105
S11   S     S_3+6 0.220938 0.283607 0.612460 0.104476
S12   S     S_3+6 0.210563 0.355718 0.815804 0.123250
Zn1   Zn    Zn3+2 0.457010 0.413240 0.543760 1.103514
Zn2   Zn    Zn3+2 0.456230 0.586760 0.542990 1.063343
Zn3   Zn    Zn3+2 0.456230 0.413270 0.369490 1.062903
Zn4   Zn    Zn3+2 0.630520 0.586730 0.543760 1.062872
Zn5   Zn    Zn3+2 0.042950 0.586670 0.956190 1.141738
Zn6   Zn    Zn3+2 0.043720 0.586650 0.130470 1.032613
Zn7   Zn    Zn3+2 0.043720 0.413150 0.956960 1.089486
Zn8   Zn    Zn3+2 0.869430 0.413180 0.956190 1.112990

loop_
_geom_bond_atom_site_label_1
_geom_bond_atom_site_label_2
_ccdc_geom_bond_type
O13   Zn1   S    
O35   S6    S    
C46   H9    S    
C40   O16   A    
O70   S4    D    
H13   O22   S    
C34   C56   S    
C30   C64   S    
O11   Zn7   S    
C27   C29   A    
C41   C42   A    
O9    Zn8   S    
C35   C36   S    
C50   O9    A    
C5    C67   A    
O14   Zn2   S    
O23   Zn4   S    
C3    C49   S    
C53   O7    A    
C39   C41   A    
C15   H41   S    
C27   C33   A    
O46   S9    D    
C12   S3    S    
C12   C23   S    
C45   C57   S    
C37   C38   A    
O55   S12   D    
O10   Zn6   S    
H36   O68   S    
H29   O54   S    
C18   C24   A    
C5    C6    S    
C22   C24   A    
H22   O41   S    
O5    Zn8   S    
C65   H27   S    
C18   C19   A    
O58   S12   S    
O56   Zn7   S    
C30   C31   A    
C63   H24   S    
C23   C57   S    
C50   O2    A    
O22   S1    S    
O61   S2    S    
O68   S3    S    
C4    O45   A    
O40   S8    D    
C19   C20   A    
C8    C9    A    
O28   S5    D    
O1    Zn4   S    
C51   O6    A    
C15   H42   S    
C70   C71   A    
O6    Zn7   S    
C29   C30   A    
C9    C10   A    
O17   Zn4   S    
C35   S9    S    
C22   C50   S    
O36   S7    D    
C39   S11   S    
C34   C55   S    
O1    Zn2   S    
C13   C14   A    
C17   H2    S    
O33   S6    D    
O34   Zn2   S    
O67   Zn8   S    
C45   H23   S    
C6    C59   S    
C4    C70   S    
H20   O35   S    
O3    Zn6   S    
C60   H16   S    
C44   C46   S    
C31   H6    S    
C68   O63   D    
C56   S4    S    
C1    C19   S    
C49   O73   A    
C20   H3    S    
C52   O19   A    
H26   O47   S    
O45   Zn3   S    
C24   C25   S    
O8    Zn5   S    
O56   Zn8   S    
C13   C47   S    
O65   S3    D    
H37   O71   S    
C36   C65   S    
C21   S6    S    
C1    O4    A    
C59   O25   D    
C25   C26   S    
H18   O30   S    
O19   Zn1   S    
C25   H4    S    
C37   C43   A    
C26   C63   S    
C36   S10   S    
O37   S7    D    
C46   C68   S    
C47   O67   A    
C61   H17   S    
O52   S11   D    
C17   C62   S    
O56   Zn5   S    
C47   O10   A    
C31   C32   A    
O66   S3    D    
C56   S1    S    
C49   O8    A    
C18   C26   S    
H21   O38   S    
C57   H12   S    
O54   S11   S    
O1    Zn3   S    
O73   Zn6   S    
C34   C45   S    
C42   C48   S    
C25   H5    S    
C64   H25   S    
C12   C56   S    
C44   S2    S    
O47   S9    S    
C58   O24   D    
C53   O5    A    
C40   O18   A    
O1    Zn1   S    
O2    Zn7   S    
C43   C44   S    
C6    H38   S    
O71   S4    S    
C66   O62   D    
C1    O34   A    
C10   C61   S    
C42   C43   A    
O49   S10   D    
C2    C71   A    
C58   H14   S    
C7    C60   S    
O57   S12   D    
C55   C66   S    
C23   C54   S    
C16   O12   A    
C32   C51   S    
C15   C17   S    
O60   S2    D    
C54   C55   S    
C8    C14   A    
C28   O23   A    
O21   S1    D    
C44   H8    S    
C45   H10   S    
C68   H33   S    
C62   O31   D    
C41   S12   S    
C3    C5    A    
C48   O11   A    
C69   H35   S    
O51   S10   S    
C61   O27   D    
C6    C7    S    
O39   S8    D    
C27   C36   S    
H31   O61   S    
O44   S9    D    
C64   O43   D    
C35   H7    S    
C51   O3    A    
C7    H39   S    
C4    O13   A    
C67   C70   A    
C52   O17   A    
C32   C33   A    
O38   S7    S    
C71   H34   S    
C2    C3    A    
O53   S11   D    
C63   O42   D    
C48   O72   A    
O32   S6    D    
C66   H32   S    
C8    C17   S    
C69   O64   D    
C11   C13   A    
O72   Zn5   S    
C23   C52   S    
C38   C39   A    
O50   S10   D    
O59   S2    D    
O29   S5    D    
C62   H19   S    
C29   C40   S    
C33   C35   S    
C54   H40   S    
H30   O58   S    
C11   S5    S    
O15   Zn3   S    
C2    C58   S    
O18   Zn3   S    
C16   O14   A    
C59   H15   S    
O16   Zn2   S    
C10   C11   A    
O20   S1    D    
C60   O26   D    
C7    C67   S    
H28   O51   S    
O41   S8    S    
C28   O15   A    
C12   H11   S    
C55   S8    S    
C54   H1    S    
C20   C21   A    
O12   Zn1   S    
C34   C53   S    
C65   O48   D    
O7    Zn5   S    
O30   S5    S    
C14   C15   S    
O69   S4    D    
C57   C69   S    
C37   C46   S    
C21   C22   A    
C26   S7    S    
O4    Zn4   S    
C9    C28   S    
C16   C38   S    
O56   Zn6   S    
