data_mof_unit_24389.cif
_audit_creation_date              2012-10-26T19:06:49-0400
_audit_creation_method            fapswitch 2.2
_symmetry_space_group_name_H-M    P1
_symmetry_Int_Tables_number       1
_space_group_crystal_system       triclinic
_cell_length_a                    12.316249
_cell_length_b                    13.114695
_cell_length_c                    27.808353
_cell_angle_alpha                 77.664957
_cell_angle_beta                  101.043737
_cell_angle_gamma                 116.756232
_cell_volume                      3894.70166432

loop_
_atom_site_label
_atom_site_type_symbol
_atom_type_description
_atom_site_fract_x
_atom_site_fract_y
_atom_site_fract_z
_atom_type_partial_charge
C1    C     C_R   0.854772 0.286149 0.504870 0.527794
C2    C     C_R   0.908263 0.412054 0.026713 0.017806
C3    C     C_R   0.097272 0.594080 0.024449 0.017838
C4    C     C_R   0.999517 0.500231 0.592352 0.542594
C5    C     C_R   0.003085 0.502744 0.050887 0.033329
C6    C     C_R   0.819864 0.320779 0.055389 -0.141390
C7    C     C_R   0.822077 0.320704 0.105497 -0.114943
C8    C     C_R   0.912652 0.411103 0.129213 0.023435
C9    C     C_R   0.003676 0.502128 0.102150 -0.027390
C10   C     C_R   0.095223 0.592587 0.126487 0.023938
C11   C     C_R   0.093731 0.590653 0.177032 0.394218
C12   C     C_R   0.085276 0.481584 0.730598 -0.093451
C13   C     C_R   0.914748 0.412258 0.179745 0.395248
C14   C     C_R   0.094710 0.484495 0.288864 -0.059569
C15   C     C_R   0.093872 0.484004 0.338978 -0.144455
C16   C     C_R   0.145037 0.713768 0.493554 0.543782
C17   C     C_R   0.911115 0.518006 0.319512 -0.150041
C18   C     C_R   0.912138 0.518344 0.269462 -0.062123
C19   C     C_R   0.003787 0.501484 0.253986 0.244493
C20   C     C_R   0.905178 0.415021 0.975069 0.017943
C21   C     C_R   0.001617 0.504201 0.949020 0.033764
C22   C     C_R   0.098855 0.592592 0.973611 0.017909
C23   C     C_R   0.999038 0.507161 0.745500 0.267396
C24   C     C_R   0.808172 0.331975 0.948207 -0.140788
C25   C     C_R   0.193795 0.675551 0.896343 -0.114694
C26   C     C_R   0.186529 0.684516 0.049973 -0.141706
C27   C     C_R   0.185449 0.683401 0.099915 -0.115475
C28   C     C_R   0.000695 0.500262 0.407620 0.551019
C29   C     C_R   0.195091 0.676393 0.946286 -0.141578
C30   C     C_R   0.279662 0.012644 0.425219 -0.140842
C31   C     C_R   0.227022 0.836095 0.483156 0.012817
C32   C     C_R   0.811340 0.083430 0.540010 -0.131066
C33   C     C_R   0.730348 0.967896 0.549425 -0.142686
C34   C     C_R   0.000847 0.504963 0.897728 -0.028771
C35   C     C_R   0.607817 0.931503 0.530555 -0.084280
C36   C     C_R   0.564383 0.010469 0.500942 0.029538
C37   C     C_R   0.650754 0.122913 0.485066 -0.018199
C38   C     C_R   0.438384 0.979138 0.484753 0.031242
C39   C     C_R   0.403724 0.049609 0.444172 0.028572
C40   C     C_R   0.905205 0.421645 0.821899 0.424390
C41   C     C_R   0.493995 0.155243 0.423839 0.136225
C42   C     C_R   0.614920 0.191294 0.445014 -0.076436
C43   C     C_R   0.345321 0.880468 0.508343 0.127243
C44   C     C_R   0.193601 0.904432 0.442917 -0.160894
C45   C     C_R   0.903994 0.419564 0.872476 0.020854
C46   C     C_R   0.772271 0.162384 0.508566 -0.006433
C47   C     C_R   0.342815 0.325296 0.578564 -0.144501
C48   C     C_R   0.759393 0.644322 0.432551 0.054325
C49   C     C_R   0.660032 0.672731 0.416159 0.240631
C50   C     C_R   0.557996 0.618898 0.442628 -0.109394
C51   C     C_R   0.550579 0.532277 0.483680 -0.073689
C52   C     C_R   0.094533 0.590242 0.820972 0.377527
C53   C     C_R   0.652396 0.504279 0.497532 0.118253
C54   C     C_R   0.446131 0.472214 0.511176 -0.039186
C55   C     C_R   0.443888 0.382510 0.550834 0.049563
C56   C     C_R   0.808044 0.334220 0.898057 -0.114964
C57   C     C_R   0.542865 0.352284 0.562983 0.105376
C58   C     C_R   0.646162 0.416451 0.537443 -0.070250
C59   C     C_R   0.342535 0.497102 0.501008 0.041871
C60   C     C_R   0.244914 0.354354 0.566660 0.033179
C61   C     C_R   0.912086 0.531028 0.709930 0.187964
C62   C     C_R   0.912205 0.527492 0.659963 -0.152214
C63   C     C_R   0.085541 0.479253 0.680811 -0.162696
C64   C     C_3   0.868227 0.674640 0.732912 -0.292120
C65   C     C_3   0.455856 0.324237 0.392975 -0.306864
C66   C     C_3   0.389130 0.911823 0.594113 -0.314593
C67   C     C_R   0.097066 0.590987 0.871570 0.022259
C68   C     C_3   0.642299 0.234526 0.619776 -0.307748
C69   C     C_3   0.693007 0.740279 0.333500 0.003721
C70   C     C_3   0.814738 0.838775 0.318985 -0.260164
C71   C     C_3   0.851309 0.820712 0.273133 -0.471906
C72   C     C_R   0.998962 0.502065 0.645050 -0.028794
C73   C     C_R   0.001939 0.500683 0.354759 0.006338
Cu1   Cu    Cu3+1 0.098270 0.475420 0.511360 0.928261
Cu2   Cu    Cu3+1 0.901730 0.524580 0.488640 0.902345
H1    H     H_    0.153379 0.459262 0.670405 0.137998
H2    H     H_    0.151922 0.462791 0.757846 0.134905
H3    H     H_    0.904340 0.111240 0.557794 0.126068
H4    H     H_    0.549022 0.840449 0.538095 0.159031
H5    H     H_    0.761885 0.906739 0.572549 0.118359
H6    H     H_    0.681787 0.270933 0.427430 0.165699
H7    H     H_    0.167097 0.309832 0.587805 0.120336
H8    H     H_    0.338761 0.259042 0.609876 0.117492
H9    H     H_    0.336025 0.562939 0.471547 0.121774
H10   H     H_    0.841089 0.687927 0.413822 0.125667
H11   H     H_    0.731677 0.268395 0.879344 0.163642
H12   H     H_    0.269652 0.741884 0.877197 0.164796
H13   H     H_    0.485126 0.645425 0.429499 0.125640
H14   H     H_    0.720343 0.394352 0.549184 0.193552
H15   H     H_    0.165137 0.470669 0.365264 0.125306
H16   H     H_    0.165698 0.471243 0.277090 0.124529
H17   H     H_    0.751973 0.248880 0.125638 0.164625
H18   H     H_    0.748098 0.246457 0.040573 0.108934
H19   H     H_    0.729219 0.264452 0.964512 0.109077
H20   H     H_    0.844849 0.545581 0.632849 0.128182
H21   H     H_    0.741708 0.530875 0.701719 0.252947
H22   H     H_    0.794814 0.685847 0.745766 0.145626
H23   H     H_    0.258064 0.759136 0.032388 0.108665
H24   H     H_    0.895709 0.734971 0.698080 0.132494
H25   H     H_    0.947530 0.696229 0.761901 0.185067
H26   H     H_    0.401451 0.185015 0.354658 0.254807
H27   H     H_    0.438953 0.377121 0.358039 0.139528
H28   H     H_    0.541940 0.379556 0.413610 0.168012
H29   H     H_    0.378478 0.293948 0.415389 0.147363
H30   H     H_    0.305603 0.752350 0.570946 0.275130
H31   H     H_    0.408531 0.871469 0.632138 0.155311
H32   H     H_    0.307518 0.928243 0.592790 0.144093
H33   H     H_    0.469577 0.995062 0.586001 0.162283
H34   H     H_    0.839164 0.531145 0.330541 0.122016
H35   H     H_    0.456828 0.180495 0.594909 0.244115
H36   H     H_    0.619734 0.163508 0.651497 0.157659
H37   H     H_    0.717367 0.312758 0.633504 0.164703
H38   H     H_    0.672009 0.208210 0.591060 0.137599
H39   H     H_    0.620130 0.741146 0.303102 0.165300
H40   H     H_    0.695683 0.655116 0.336397 0.101835
H41   H     H_    0.806251 0.921774 0.311277 0.191187
H42   H     H_    0.888123 0.844719 0.349996 0.152422
H43   H     H_    0.863653 0.739717 0.280493 0.148187
H44   H     H_    0.939073 0.894059 0.263307 0.162158
H45   H     H_    0.256034 0.754730 0.117627 0.163745
H46   H     H_    0.780109 0.816166 0.241296 0.156277
H47   H     H_    0.841855 0.531933 0.242622 0.125636
H48   H     H_    0.274521 0.743448 0.962414 0.108922
H49   H     H_    0.101342 0.872873 0.424234 0.124632
H50   H     H_    0.248247 0.063962 0.395291 0.121453
N1    N     N_R   0.999209 0.506649 0.797193 -0.385217
N2    N     N_R   0.004264 0.501362 0.202493 -0.397728
N3    N     N_R   0.246290 0.438210 0.528570 -0.232177
N4    N     N_R   0.754320 0.561170 0.471730 -0.268650
N5    N     N_2   0.823394 0.556716 0.724356 -0.482104
N6    N     N_2   0.466806 0.226845 0.381687 -0.523108
N7    N     N_2   0.366457 0.835176 0.559107 -0.537193
N8    N     N_2   0.535020 0.255052 0.600105 -0.528183
O1    O     O_R   0.972510 0.318140 0.514280 -0.496197
O2    O     O_R   0.082990 0.479230 0.439860 -0.501478
O3    O     O_R   0.917010 0.520730 0.420680 -0.515508
O4    O     O_2   0.813751 0.338891 0.797660 -0.489855
O5    O     O_3   0.663308 0.758850 0.376735 -0.567586
O6    O     O_2   0.828463 0.324769 0.206042 -0.499907
O7    O     O_2   0.185942 0.673036 0.795564 -0.514678
O8    O     O_2   0.180338 0.677714 0.200485 -0.503785
O9    O     O_R   0.806530 0.359640 0.495100 -0.532438
O10   O     O_R   0.082990 0.479270 0.579320 -0.503609
O11   O     O_R   0.917010 0.520770 0.560140 -0.520632
O12   O     O_R   0.193470 0.640360 0.504900 -0.502826
O13   O     O_R   0.027490 0.681860 0.485720 -0.500632

loop_
_geom_bond_atom_site_label_1
_geom_bond_atom_site_label_2
_ccdc_geom_bond_type
C10   C27   A    
Cu1   O10   S    
C8    C13   A    
C22   C29   A    
C28   O2    A    
C41   C42   A    
Cu1   O12   S    
C35   C36   A    
C25   C67   A    
C66   H32   S    
C30   C44   A    
C4    O10   A    
C7    C8    A    
C39   C41   A    
C27   H45   S    
C16   C31   S    
C12   C23   A    
C26   C27   A    
C31   C43   A    
C13   O6    S    
H21   N5    S    
C43   N7    S    
C38   C39   A    
C1    C46   S    
C63   H1    S    
C70   H42   S    
Cu1   O1    S    
C25   H12   S    
C16   O13   A    
C18   C19   A    
C68   H37   S    
C19   N2    S    
C37   C42   A    
C1    O9    A    
C52   O7    S    
C47   C60   A    
C60   H7    S    
C64   H24   S    
Cu1   N3    S    
C20   C24   A    
C45   C56   A    
C8    C9    A    
C36   C37   A    
C70   C71   S    
C47   H8    S    
C9    C10   A    
C61   C62   A    
C50   H13   S    
C68   H38   S    
C30   H50   S    
C62   H20   S    
C12   H2    S    
C17   C73   A    
C57   N8    S    
C2    C6    A    
C42   H6    S    
C65   H27   S    
C66   H31   S    
C28   C73   S    
C65   N6    S    
C50   C51   A    
H30   N7    S    
C66   N7    S    
C54   C59   A    
Cu2   O13   S    
C25   C29   A    
C40   C45   A    
C69   H39   S    
C31   C44   A    
C2    C20   A    
C60   N3    A    
C48   H10   S    
C59   H9    S    
Cu1   Cu2   S    
C66   H33   S    
C41   N6    S    
C12   C63   A    
C52   N1    A    
Cu2   O3    S    
C21   C34   A    
C70   H41   S    
C59   N3    A    
C44   H49   S    
Cu1   O2    S    
C16   O12   A    
C51   C53   A    
C68   H36   S    
C11   N2    A    
C5    C9    A    
Cu2   O9    S    
C24   H19   S    
C56   H11   S    
C64   H25   S    
C6    H18   S    
C40   N1    A    
C40   O4    S    
C17   C18   A    
C62   C72   A    
C34   C45   A    
C63   C72   A    
C11   O8    S    
C52   C67   A    
C61   N5    S    
C18   H47   S    
C23   N1    S    
H26   N6    S    
C64   H22   S    
C15   C73   A    
C26   H23   S    
C55   C57   A    
C48   N4    A    
C2    C5    A    
C53   N4    A    
C65   H28   S    
C1    O1    A    
C4    C72   S    
C47   C55   A    
C69   O5    S    
C54   C55   A    
C68   N8    S    
C71   H43   S    
C28   O3    A    
C32   C46   A    
C14   C19   A    
C71   H46   S    
C3    C26   A    
C64   N5    S    
C3    C5    A    
C17   H34   S    
C34   C67   A    
C4    O11   A    
C53   C58   A    
C33   H5    S    
C6    C7    A    
C24   C56   A    
C69   H40   S    
C21   C22   A    
C71   H44   S    
C51   C54   A    
C32   C33   A    
C36   C38   A    
C38   C43   A    
C15   H15   S    
C57   C58   A    
C48   C49   A    
C7    H17   S    
C29   H48   S    
C35   H4    S    
C33   C35   A    
C30   C39   A    
C69   C70   S    
C58   H14   S    
C14   H16   S    
C10   C11   A    
C32   H3    S    
C13   N2    A    
C23   C61   A    
C20   C21   A    
Cu2   O11   S    
C49   C50   A    
C14   C15   A    
C3    C22   A    
C49   O5    S    
C65   H29   S    
C37   C46   A    
H35   N8    S    
Cu2   N4    S    
