data_mof_unit_7049.cif
_audit_creation_date              2012-12-10T16:46:06-0500
_audit_creation_method            fapswitch 2.2
_symmetry_space_group_name_H-M    P1
_symmetry_Int_Tables_number       1
_space_group_crystal_system       triclinic
_cell_length_a                    10.725966
_cell_length_b                    8.674936
_cell_length_c                    7.451121
_cell_angle_alpha                 102.970133
_cell_angle_beta                  94.605117
_cell_angle_gamma                 92.298627
_cell_volume                      672.228797991

loop_
_atom_site_label
_atom_site_type_symbol
_atom_type_description
_atom_site_fract_x
_atom_site_fract_y
_atom_site_fract_z
_atom_type_partial_charge
C1    C     C_R   0.495362 0.199688 0.453315 0.921365
C2    C     C_3   0.878353 0.493804 0.495122 -0.000148
C3    C     C_3   0.927228 0.626304 0.404382 -0.357373
C4    C     C_3   0.921729 0.326995 0.397228 0.322882
C5    C     C_2   0.493108 0.031729 0.427062 -0.330737
C6    C     C_2   0.505646 0.968256 0.573197 -0.371080
C7    C     C_R   0.260336 0.502039 0.502056 0.765995
C8    C     C_R   0.503840 0.800304 0.546792 0.874575
C9    C     C_R   0.740072 0.495786 0.497657 0.815410
C10   C     C_3   0.083556 0.532522 0.702731 -0.389785
C11   C     C_3   0.940628 0.532007 0.698516 -0.429793
C12   C     C_3   0.071005 0.629021 0.407220 -0.368190
C13   C     C_3   0.065908 0.336041 0.394560 -0.413783
C14   C     C_3   0.122959 0.500411 0.503052 0.079076
Cu1   Cu    Cu3+1 0.514070 0.517380 0.684380 0.971461
Cu2   Cu    Cu3+1 0.485930 0.482620 0.315620 0.985606
H1    H     H_    0.125494 0.649322 0.784015 0.191169
H2    H     H_    0.097226 0.608267 0.262518 0.189700
H3    H     H_    0.481498 0.960005 0.286243 0.179842
H4    H     H_    0.517337 0.039983 0.714024 0.177834
H5    H     H_    0.117845 0.439969 0.773519 0.186278
H6    H     H_    0.913948 0.649686 0.775730 0.210477
H7    H     H_    0.112291 0.748216 0.481693 0.162605
H8    H     H_    0.899672 0.743405 0.481722 0.166288
H9    H     H_    0.092921 0.315279 0.250389 0.220315
H10   H     H_    0.106029 0.241094 0.456137 0.128913
H11   H     H_    0.897984 0.242656 0.483849 0.094299
N1    N     N_2   0.464720 0.456420 0.038520 -0.209209
N2    N     N_2   0.535280 0.543580 0.961480 -0.197072
O1    O     O_R   0.509140 0.286130 0.619770 -0.586653
O2    O     O_R   0.485380 0.256770 0.308360 -0.561115
O3    O     O_R   0.329570 0.514650 0.655700 -0.602585
O4    O     O_R   0.305810 0.485300 0.344290 -0.598780
O5    O     O_R   0.514620 0.743230 0.691640 -0.588237
O6    O     O_R   0.490860 0.713870 0.380230 -0.591334
O7    O     O_R   0.694190 0.514700 0.655710 -0.583254
O8    O     O_R   0.670430 0.485350 0.344300 -0.525450
S1    S     S_3+6 0.847110 0.236791 0.168804 -0.030517
O9    O     O_2   0.827490 0.356833 0.053784 -0.324628
O10   O     O_2   0.927190 0.111511 0.071981 -0.322367
O11   O     O_3   0.708435 0.148705 0.188712 -0.539069
H12   H     H_    0.672949 0.102782 0.059962 0.369638
H13   H     H_    0.884899 0.611225 0.260439 0.221463
H14   H     H_    0.401050 0.378689 0.948254 0.217753
H15   H     H_    0.599079 0.621149 0.051723 0.234874
H16   H     H_    0.907659 0.442036 0.772027 0.233339

loop_
_geom_bond_atom_site_label_1
_geom_bond_atom_site_label_2
_ccdc_geom_bond_type
Cu2   N1    S    
C9    O7    A    
C2    C4    S    
C5    H3    S    
Cu2   O4    S    
C6    H4    S    
O11   H12   S    
C11   H6    S    
Cu2   O8    S    
C13   H9    S    
C9    O8    A    
C2    C3    S    
Cu1   O3    S    
C10   H5    S    
C8    O5    A    
C13   C14   S    
Cu2   O2    S    
S1    O10   D    
C7    O4    A    
C12   H7    S    
C3    H13   S    
C3    H8    S    
C5    C6    D    
Cu1   O1    S    
C1    C5    S    
C2    C11   S    
N1    N2    D    
C12   C14   S    
Cu1   N2    S    
Cu2   O6    S    
S1    O9    D    
C7    O3    A    
C13   H10   S    
C10   C11   S    
C10   H1    S    
Cu1   Cu2   S    
Cu1   O7    S    
C1    O2    A    
C4    H11   S    
S1    O11   S    
C10   C14   S    
C12   H2    S    
C4    C13   S    
C1    O1    A    
C11   H16   S    
C6    C8    S    
C3    C12   S    
Cu1   O5    S    
C2    C9    S    
N1    H14   S    
C7    C14   S    
N2    H15   S    
C4    S1    S    
C8    O6    A    
