data_mof_unit_30344.cif
_audit_creation_date              2013-03-05T15:46:11-0500
_audit_creation_method            fapswitch 2.2
_symmetry_space_group_name_H-M    P1
_symmetry_Int_Tables_number       1
_space_group_crystal_system       triclinic
_cell_length_a                    10.568073
_cell_length_b                    10.727314
_cell_length_c                    17.143856
_cell_angle_alpha                 80.152229
_cell_angle_beta                  89.911234
_cell_angle_gamma                 119.688098
_cell_volume                      1655.08047769

loop_
_atom_site_label
_atom_site_type_symbol
_atom_site_description
_atom_site_fract_x
_atom_site_fract_y
_atom_site_fract_z
_atom_type_partial_charge
O1    O     O_R   0.521780 0.757110 0.108900 -0.491892
O2    O     O_R   0.275160 0.783810 0.101120 -0.482810
C1    C     C_R   0.223052 0.854355 0.128800 0.547190
O3    O     O_R   0.237900 0.972600 0.090980 -0.509124
O4    O     O_R   0.511190 0.220540 0.061620 -0.501367
C2    C     C_R   0.635415 0.275118 0.088847 0.546810
O5    O     O_R   0.736920 0.257720 0.063840 -0.517933
O6    O     O_R   0.710450 0.984050 0.081720 -0.496082
C3    C     C_R   0.640788 0.858325 0.125361 0.544722
O7    O     O_R   0.524090 0.765520 0.933110 -0.510642
O8    O     O_R   0.277300 0.791600 0.938160 -0.501055
C4    C     C_R   0.226265 0.866499 0.897632 0.551157
O9    O     O_R   0.240210 0.981010 0.915190 -0.475166
O10   O     O_R   0.513330 0.228330 0.898660 -0.456796
C5    C     C_R   0.636512 0.281152 0.860178 0.558794
O11   O     O_R   0.739230 0.266130 0.888050 -0.501988
O12   O     O_R   0.712580 0.991850 0.918770 -0.495906
C6    C     C_R   0.649528 0.865041 0.901310 0.545193
Cr1   Cr    Cr6+3 0.402240 0.783890 0.019450 1.070347
Cr2   Cr    Cr6+3 0.382360 0.097900 0.991800 1.091776
Cr3   Cr    Cr6+3 0.715380 0.118170 0.988700 1.065786
O13   O     O_3   0.499990 0.999980 0.999980 -0.280738
C7    C     C_R   0.532850 0.319194 0.204665 -0.132088
H1    H     H_    0.445060 0.317892 0.171593 0.183390
C8    C     C_R   0.528657 0.320498 0.285993 0.149437
C9    C     C_R   0.641309 0.316018 0.329305 -0.001134
C10   C     C_R   0.743732 0.289351 0.292083 0.200156
C11   C     C_R   0.752229 0.301768 0.211017 -0.122940
H2    H     H_    0.837509 0.291143 0.183186 0.202110
C12   C     C_R   0.646310 0.313011 0.166882 -0.072157
C13   C     C_1   0.669063 0.848483 0.205387 -0.002235
C14   C     C_1   0.680440 0.838925 0.274742 0.022652
C15   C     C_1   0.181053 0.825874 0.211382 -0.007513
C16   C     C_1   0.151606 0.820454 0.279800 0.000536
C17   C     C_1   0.642350 0.315807 0.777200 0.044686
C18   C     C_1   0.648730 0.338128 0.706700 0.050010
C19   C     C_R   0.632277 0.694067 0.820504 -0.104402
H3    H     H_    0.574517 0.606953 0.871880 0.178760
C20   C     C_R   0.611903 0.661919 0.744652 0.167248
C21   C     C_R   0.694513 0.779768 0.678721 -0.005444
C22   C     C_R   0.784239 0.923176 0.692868 -0.135950
H4    H     H_    0.848797 0.015605 0.644955 0.191819
C23   C     C_R   0.783885 0.952931 0.768142 -0.129448
H5    H     H_    0.838946 0.065696 0.775630 0.187152
C24   C     C_R   0.702110 0.838358 0.831466 -0.021724
C25   C     C_R   0.219168 0.970233 0.756456 0.105658
C26   C     C_R   0.234587 0.963156 0.677042 0.148850
C27   C     C_R   0.182211 0.825430 0.656592 -0.013103
C28   C     C_R   0.161269 0.705051 0.715897 0.192982
C29   C     C_R   0.165389 0.718160 0.795194 -0.155727
H6    H     H_    0.151026 0.627312 0.840744 0.188250
C30   C     C_R   0.190133 0.847262 0.816713 -0.076721
O14   O     O_R   0.083770 0.911170 0.376030 -0.457035
O15   O     O_R   0.808770 0.880340 0.383890 -0.436410
C31   C     C_R   0.686559 0.809963 0.357118 0.588216
O16   O     O_R   0.584340 0.689460 0.394160 -0.490719
O17   O     O_R   0.614320 0.443940 0.423590 -0.457118
C32   C     C_R   0.681582 0.383170 0.399613 0.593086
O18   O     O_R   0.805020 0.410040 0.421340 -0.442335
O19   O     O_R   0.049240 0.685450 0.403290 -0.479264
C33   C     C_R   0.103624 0.810587 0.359147 0.557634
O20   O     O_R   0.077520 0.903010 0.551800 -0.470118
O21   O     O_R   0.802980 0.872780 0.546830 -0.488040
C34   C     C_R   0.702034 0.758982 0.596834 0.540612
O22   O     O_R   0.578090 0.681300 0.569920 -0.413168
O23   O     O_R   0.608530 0.436370 0.586530 -0.451980
C35   C     C_R   0.677252 0.379803 0.623860 0.581703
O24   O     O_R   0.798770 0.401880 0.597100 -0.470013
O25   O     O_R   0.043450 0.677890 0.566230 -0.454258
C36   C     C_R   0.105143 0.803720 0.584439 0.572717
Cr4   Cr    Cr6+3 0.936650 0.882420 0.465510 1.167475
Cr5   Cr    Cr6+3 0.605770 0.565620 0.493360 1.183181
Cr6   Cr    Cr6+3 0.921340 0.550490 0.496380 1.135216
O26   O     O_3   0.821250 0.666180 0.485090 -0.360763
N1    N     N_R   0.295938 0.094292 0.616251 0.103456
O27   O     O_R   0.254499 0.190251 0.615497 -0.263845
O28   O     O_R   0.385185 0.111824 0.557578 -0.298923
S1    S     S_3+6 0.141209 0.540001 0.696152 0.064132
O29   O     O_2   0.211682 0.483753 0.757423 -0.205343
O30   O     O_2   0.981621 0.427924 0.703656 -0.296690
O31   O     O_3   0.219501 0.565814 0.604871 -0.459836
H7    H     H_    0.186334 0.466061 0.595481 0.381925
N2    N     N_R   0.408041 0.322006 0.323829 0.093128
O32   O     O_R   0.346469 0.239453 0.393327 -0.254735
O33   O     O_R   0.345835 0.388248 0.284401 -0.313783
S2    S     S_3+6 0.865560 0.240250 0.341961 0.044501
O34   O     O_2   0.794390 0.146294 0.422581 -0.257745
O35   O     O_2   0.905227 0.157778 0.293777 -0.285636
O36   O     O_3   0.020680 0.392665 0.351965 -0.474226
H8    H     H_    0.079043 0.357102 0.383470 0.385972
N3    N     N_R   0.501392 0.513340 0.739600 0.071019
O37   O     O_R   0.433909 0.481529 0.676648 -0.209285
O38   O     O_R   0.440661 0.415262 0.804742 -0.320591
N4    N     N_R   0.236794 0.104288 0.773827 -0.085029
O39   O     O_R   0.127978 0.105220 0.809018 -0.000235
O40   O     O_R   0.127837 0.105204 0.809067 -0.000235

loop_
_geom_bond_atom_site_label_1
_geom_bond_atom_site_label_2
_geom_bond_distance
_ccdc_geom_bond_type
C31   O16   1.255020 A    
O11   Cr3   2.055667 S    
C22   H4    1.083001 S    
C17   C18   1.186347 T    
C23   H5    1.083733 S    
O31   H7    0.990665 S    
C18   C35   1.398465 S    
O4    Cr2   1.945936 S    
O8    Cr1   1.940841 S    
C9    C10   1.423964 A    
C11   H2    1.082544 S    
O4    C2    1.272076 A    
S1    O30   1.498104 D    
C1    C15   1.417932 S    
C5    O11   1.257468 A    
C25   C30   1.425978 A    
O19   Cr6   1.932493 S    
C28   S1    1.768548 S    
O20   C36   1.279620 A    
Cr6   O26   1.978711 S    
C20   N3    1.454476 S    
N1    O28   1.301296 A    
O15   C31   1.266182 A    
O14   C33   1.273931 A    
O23   Cr5   1.938361 S    
O15   Cr4   1.942050 S    
C26   C27   1.407067 A    
O6    C3    1.261082 A    
O16   Cr5   2.057866 S    
C29   C30   1.392407 A    
C7    H1    1.083486 S    
O25   Cr6   1.945429 S    
O18   Cr6   2.066264 S    
C14   C31   1.401863 S    
O23   C35   1.269018 A    
Cr3   O13   1.970345 S    
C22   C23   1.381780 A    
O25   C36   1.271836 A    
C5    C17   1.400650 S    
C4    C30   1.460966 S    
O12   C6    1.275184 A    
O1    Cr1   2.060330 S    
C35   O24   1.255188 A    
C7    C12   1.397417 A    
O10   Cr2   1.932289 S    
Cr1   O13   1.978444 S    
O1    C3    1.262357 A    
Cr5   O26   1.970488 S    
C27   C36   1.470190 S    
N3    O37   1.295032 A    
S2    O34   1.503744 D    
C29   H6    1.084150 S    
C32   O18   1.260686 A    
O5    Cr3   2.067665 S    
C16   C33   1.419225 S    
O12   Cr3   1.946916 S    
O19   C33   1.261733 A    
C10   S2    1.785306 S    
N1    O27   1.301382 A    
C19   H3    1.083247 S    
N3    O38   1.301163 A    
C9    C32   1.465550 S    
N2    O32   1.301207 A    
C25   N4    1.439674 S    
O7    Cr1   2.057494 S    
O6    Cr3   1.938170 S    
C8    C9    1.420636 A    
N4    O40   1.304627 A    
C23   C24   1.387291 A    
C27   C28   1.420338 A    
N2    O33   1.301481 A    
Cr2   O13   1.977882 S    
C19   C24   1.394351 A    
C1    O3    1.255066 A    
O14   Cr4   2.054628 S    
C6    C24   1.448175 S    
C20   C21   1.432796 A    
C25   C26   1.390266 A    
C21   C22   1.417028 A    
O9    Cr2   2.063397 S    
C2    C12   1.452025 S    
O2    Cr1   1.938204 S    
S1    O29   1.500968 D    
C13   C14   1.187290 T    
O21   Cr4   1.936421 S    
S2    O36   1.682807 S    
Cr4   O26   1.977627 S    
O8    C4    1.287894 A    
C2    O5    1.262385 A    
O22   Cr5   2.064887 S    
C21   C34   1.466679 S    
C34   O22   1.294297 A    
C11   C12   1.394684 A    
O2    C1    1.279044 A    
O24   Cr6   2.051065 S    
C26   N1    1.441664 S    
C19   C20   1.391764 A    
S1    O31   1.682561 S    
O17   C32   1.284126 A    
O7    C6    1.261385 A    
C15   C16   1.197355 T    
O20   Cr4   2.060685 S    
S2    O35   1.502353 D    
C7    C8    1.397581 A    
O17   Cr5   1.947626 S    
N4    O39   1.303009 A    
C3    C13   1.402032 S    
O21   C34   1.308585 A    
O3    Cr2   2.050861 S    
C4    O9    1.252422 A    
C28   C29   1.388995 A    
C10   C11   1.371774 A    
C8    N2    1.437796 S    
O10   C5    1.260861 A    
O36   H8    0.990612 S    
