data_mof_unit_43507.cif
_audit_creation_date              2012-12-10T18:09:05-0500
_audit_creation_method            fapswitch 2.2
_symmetry_space_group_name_H-M    P1
_symmetry_Int_Tables_number       1
_space_group_crystal_system       triclinic
_cell_length_a                    12.662111
_cell_length_b                    13.114919
_cell_length_c                    13.668238
_cell_angle_alpha                 90.936803
_cell_angle_beta                  96.094455
_cell_angle_gamma                 96.928996
_cell_volume                      2239.49275646

loop_
_atom_site_label
_atom_site_type_symbol
_atom_type_description
_atom_site_fract_x
_atom_site_fract_y
_atom_site_fract_z
_atom_type_partial_charge
C1    C     C_R   0.559188 0.691225 0.512489 0.870769
C2    C     C_1   0.531466 0.502636 0.218215 -0.176712
C3    C     C_R   0.303928 0.073393 0.588773 -0.212992
C4    C     C_R   0.402983 0.201510 0.498447 -0.034970
C5    C     C_R   0.694867 0.836034 0.484262 -0.345761
C6    C     C_R   0.725002 0.942071 0.473274 0.547692
C7    C     C_R   0.649401 0.008836 0.487333 -0.288523
C8    C     C_R   0.546633 0.972629 0.513323 0.002901
C9    C     C_R   0.527779 0.870911 0.543452 0.091113
C10   C     C_R   0.463842 0.035792 0.515649 0.049320
C11   C     C_R   0.377875 0.005628 0.572440 0.155344
C12   C     C_R   0.517267 0.497269 0.318454 0.903892
C13   C     C_R   0.368194 0.909169 0.613964 -0.242634
C14   C     C_R   0.440917 0.841521 0.597857 -0.179415
C15   C     C_R   0.462951 0.128271 0.464421 0.092993
C16   C     C_R   0.319812 0.172980 0.556009 -0.261007
C17   C     C_R   0.596363 0.800899 0.517968 -0.151979
C18   C     C_R   0.898360 0.343534 0.632114 0.352252
C19   C     C_R   0.212104 0.627501 0.383815 0.041193
C20   C     C_R   0.110826 0.656421 0.360100 -0.269869
C21   C     C_R   0.025208 0.608711 0.405104 -0.190625
C22   C     C_R   0.041068 0.531351 0.474304 0.064741
C23   C     C_R   0.440566 0.309189 0.490426 0.856696
C24   C     C_R   0.146010 0.505799 0.496048 0.184022
C25   C     C_R   0.957707 0.477924 0.521820 -0.089929
C26   C     C_R   0.982623 0.403297 0.593083 -0.044872
C27   C     C_R   0.090637 0.389782 0.622559 0.099050
C28   C     C_R   0.167870 0.433982 0.566455 -0.226066
C29   C     C_R   0.850066 0.495704 0.500996 -0.105332
C30   C     C_R   0.795533 0.371918 0.617052 0.191195
C31   C     C_R   0.483638 0.504761 0.681714 0.879693
C32   C     C_1   0.475462 0.513224 0.783063 -0.186133
C33   C     C_2   0.464538 0.525995 0.972519 0.387194
C34   C     C_2   0.554797 0.517903 0.030880 0.386297
C35   C     C_1   0.544679 0.509154 0.133717 -0.091774
C36   C     C_1   0.468667 0.520322 0.868867 -0.060225
H1    H     H_    0.430674 0.767285 0.631385 0.160337
H2    H     H_    0.824766 0.549923 0.447906 0.142116
H3    H     H_    0.279207 0.664282 0.349352 0.138543
H4    H     H_    0.948534 0.634543 0.384682 0.124242
H5    H     H_    0.098728 0.715650 0.307251 0.147193
H6    H     H_    0.246352 0.413378 0.580480 0.227960
H7    H     H_    0.270103 0.228544 0.578811 0.158548
H8    H     H_    0.303492 0.885439 0.657765 0.143831
H9    H     H_    0.238880 0.051870 0.632817 0.142198
H10   H     H_    0.745417 0.779804 0.464678 0.140289
H11   H     H_    0.672265 0.089904 0.478271 0.148188
N1    N     N_R   0.773270 0.445590 0.549770 -0.136939
N2    N     N_R   0.227520 0.553880 0.450750 -0.127915
O1    O     O_R   0.631100 0.627590 0.523760 -0.608462
O2    O     O_R   0.455900 0.662370 0.491970 -0.618070
O3    O     O_R   0.600200 0.480080 0.377830 -0.616686
O4    O     O_R   0.425000 0.514870 0.346040 -0.599271
O5    O     O_R   0.544100 0.337630 0.508030 -0.641855
O6    O     O_R   0.368900 0.372410 0.476240 -0.632120
O7    O     O_R   0.575000 0.485130 0.653960 -0.605301
O8    O     O_R   0.399800 0.519920 0.622170 -0.641571
Zn1   Zn    Zn3+2 0.616980 0.476780 0.521230 0.921725
Zn2   Zn    Zn3+2 0.383020 0.523220 0.478770 0.926232
O9    O     O_3   0.651182 0.513960 0.989954 -0.633055
C37   C     C_3   0.741450 0.530221 0.061267 0.112747
H12   H     H_    0.741850 0.465293 0.112719 0.155588
H13   H     H_    0.742456 0.603943 0.103263 0.136263
C38   C     C_3   0.842979 0.536360 0.010201 -0.834095
H14   H     H_    0.843304 0.597921 0.955344 0.259356
H15   H     H_    0.914142 0.553833 0.065390 0.209333
H16   H     H_    0.847892 0.461842 0.972414 0.255870
C39   C     C_3   0.714601 0.320829 0.681288 -0.348036
C40   C     C_3   0.737077 0.363474 0.787166 -0.781785
H17   H     H_    0.737203 0.448191 0.788997 0.281005
H18   H     H_    0.674047 0.328800 0.831421 0.251501
H19   H     H_    0.815690 0.344900 0.821344 0.266515
H20   H     H_    0.631894 0.327826 0.656247 0.251641
H21   H     H_    0.716864 0.236452 0.681212 0.197984
C41   C     C_3   0.125540 0.333245 0.715495 -0.343533
C42   C     C_3   0.237010 0.372159 0.765990 -0.905009
H22   H     H_    0.300008 0.344514 0.725535 0.245623
H23   H     H_    0.247761 0.457314 0.771113 0.274109
H24   H     H_    0.246459 0.342385 0.841635 0.272251
H25   H     H_    0.071121 0.344875 0.772154 0.260030
H26   H     H_    0.122254 0.249925 0.698061 0.216351
O10   O     O_3   0.914865 0.258407 0.687662 -0.646837
C43   C     C_3   0.909397 0.171764 0.623890 0.105500
H27   H     H_    0.975800 0.180275 0.576264 0.149252
H28   H     H_    0.831839 0.159778 0.576297 0.156895
C44   C     C_3   0.918979 0.077254 0.685661 -0.814891
H29   H     H_    0.851838 0.065905 0.732032 0.256024
H30   H     H_    0.916165 0.008133 0.637369 0.228130
H31   H     H_    0.996011 0.086845 0.733909 0.241610
O11   O     O_3   0.367160 0.523515 0.011748 -0.617837
C45   C     C_3   0.311222 0.603731 0.974034 0.097918
H32   H     H_    0.283923 0.590102 0.894390 0.144284
H33   H     H_    0.362194 0.679351 0.985180 0.128610
C46   C     C_3   0.212894 0.608225 0.028246 -0.803534
H34   H     H_    0.237333 0.622653 0.108245 0.254598
H35   H     H_    0.168266 0.671272 0.999541 0.198698
H36   H     H_    0.159449 0.534382 0.017204 0.260351
C47   C     C_3   0.511988 0.145237 0.367490 -0.440970
C48   C     C_3   0.429916 0.171442 0.284139 -0.838914
H37   H     H_    0.358901 0.112060 0.276688 0.263634
H38   H     H_    0.403996 0.247833 0.297469 0.255211
H39   H     H_    0.466401 0.173806 0.213693 0.249852
H40   H     H_    0.580184 0.207556 0.376826 0.225672
H41   H     H_    0.541602 0.074582 0.341359 0.226425
O12   O     O_3   0.822132 0.985750 0.443106 -0.629997
C49   C     C_3   0.898827 0.916428 0.438426 0.073893
H42   H     H_    0.873866 0.860200 0.375972 0.145143
H43   H     H_    0.911276 0.875694 0.508796 0.137693
C50   C     C_3   0.005602 0.975846 0.420669 -0.818622
H44   H     H_    0.034332 0.031521 0.482631 0.246839
H45   H     H_    0.065921 0.921753 0.415050 0.212316
H46   H     H_    0.996803 0.018134 0.351116 0.261654

loop_
_geom_bond_atom_site_label_1
_geom_bond_atom_site_label_2
_ccdc_geom_bond_type
C2    C35   T    
O6    Zn2   S    
C40   H19   S    
C19   C20   A    
C18   C26   A    
C42   H24   S    
C9    C14   A    
C2    C12   S    
C20   H5    S    
O4    Zn2   S    
C7    C8    A    
C26   C27   A    
C43   H27   S    
C32   C36   T    
C30   N1    A    
C42   H23   S    
C10   C15   A    
C50   H45   S    
O5    Zn1   S    
C5    C6    A    
C44   H30   S    
O8    Zn2   S    
C5    C17   A    
C49   H42   S    
C39   H21   S    
C47   H40   S    
C33   C36   S    
C40   H18   S    
C34   C35   S    
C37   H13   S    
C39   C40   S    
C31   C32   S    
C8    C9    A    
C22   C25   A    
C29   H2    S    
C18   C30   A    
C13   C14   A    
C31   O7    A    
C41   H25   S    
C12   O4    A    
C21   C22   A    
C34   O9    S    
C46   H34   S    
C27   C41   S    
C12   O3    A    
C25   C29   A    
C29   N1    A    
O1    Zn1   S    
C38   H16   S    
C42   H22   S    
C50   H46   S    
C45   H32   S    
C4    C23   S    
C44   H29   S    
C41   H26   S    
C46   H36   S    
C39   H20   S    
C3    H9    S    
O9    C37   S    
C7    H11   S    
C4    C16   A    
C37   C38   S    
C41   C42   S    
C45   H33   S    
C19   N2    A    
C48   H37   S    
C43   C44   S    
C33   C34   D    
C46   H35   S    
C1    O2    A    
C16   H7    S    
C5    H10   S    
O3    Zn1   S    
C9    C17   A    
C43   H28   S    
O10   C43   S    
C22   C24   A    
O2    Zn2   S    
C15   C47   S    
C23   O5    A    
C1    O1    A    
C24   N2    A    
C48   H38   S    
C8    C10   A    
C24   C28   A    
C44   H31   S    
N1    Zn1   S    
C23   O6    A    
C6    C7    A    
O12   C49   S    
C1    C17   S    
N2    Zn2   S    
C38   H14   S    
C31   O8    A    
C4    C15   A    
C25   C26   A    
C33   O11   S    
C14   H1    S    
C11   C13   A    
O11   C45   S    
C21   H4    S    
C49   H43   S    
C47   H41   S    
C28   H6    S    
C18   O10   S    
C6    O12   S    
O7    Zn1   S    
C37   H12   S    
C40   H17   S    
C3    C11   A    
C10   C11   A    
C48   H39   S    
C20   C21   A    
C19   H3    S    
C47   C48   S    
C27   C28   A    
C50   H44   S    
C13   H8    S    
C30   C39   S    
C3    C16   A    
C38   H15   S    
C45   C46   S    
C49   C50   S    
