data_mof_unit_15703.cif
_audit_creation_date              2012-12-10T18:19:55-0500
_audit_creation_method            fapswitch 2.2
_symmetry_space_group_name_H-M    P1
_symmetry_Int_Tables_number       1
_space_group_crystal_system       triclinic
_cell_length_a                    14.877609
_cell_length_b                    14.160069
_cell_length_c                    14.137795
_cell_angle_alpha                 89.948161
_cell_angle_beta                  89.813219
_cell_angle_gamma                 90.202549
_cell_volume                      2978.34488591

loop_
_atom_site_label
_atom_site_type_symbol
_atom_type_description
_atom_site_fract_x
_atom_site_fract_y
_atom_site_fract_z
_atom_type_partial_charge
C1    C     C_R   0.327277 0.499780 0.498988 0.846708
C2    C     C_R   0.672672 0.500041 0.501973 0.855037
C3    C     C_R   0.952963 0.515691 0.497285 -0.105259
C4    C     C_R   0.046881 0.515391 0.493865 -0.105103
C5    C     C_R   0.904349 0.490038 0.415592 -0.049367
C6    C     C_R   0.095439 0.537884 0.576486 -0.056861
C7    C     C_R   0.957825 0.571451 0.661696 0.370787
C8    C     C_R   0.041837 0.474601 0.325104 0.370354
C9    C     C_R   0.051352 0.570418 0.658091 0.419871
C10   C     C_R   0.948340 0.473389 0.329243 0.421746
C11   C     C_R   0.576877 0.799968 0.477169 0.497948
C12   C     C_R   0.431777 0.201872 0.544166 0.507776
C13   C     C_R   0.422845 0.799689 0.520485 0.507837
C14   C     C_R   0.567484 0.202429 0.454847 0.509421
C15   C     C_R   0.424728 0.899873 0.532379 -0.139889
C16   C     C_R   0.573222 0.101998 0.461328 -0.149740
C17   C     C_R   0.575135 0.900546 0.466736 -0.140345
C18   C     C_R   0.426362 0.101280 0.538359 -0.149296
C19   C     C_R   0.500319 0.950705 0.500677 -0.152384
C20   C     C_R   0.500133 0.051278 0.500514 -0.135346
C21   C     C_R   0.350710 0.949640 0.570569 0.362768
C22   C     C_R   0.649064 0.051673 0.428365 0.329595
C23   C     C_R   0.646908 0.951325 0.424334 0.353331
C24   C     C_R   0.349367 0.050179 0.568443 0.333221
C25   C     C_R   0.499967 0.500036 0.329289 0.853749
C26   C     C_R   0.499997 0.499957 0.670713 0.851579
C27   C     C_1   0.500049 0.500035 0.227812 -0.203471
C28   C     C_1   0.500161 0.499798 0.772189 -0.198438
C29   C     C_1   0.500262 0.499795 0.142540 -0.004637
C30   C     C_1   0.500274 0.499590 0.857464 0.001840
C31   C     C_1   0.500416 0.499540 0.042646 0.013843
C32   C     C_1   0.500397 0.499471 0.957363 0.016409
C33   C     C_R   0.811877 0.483300 0.420727 -0.207124
C34   C     C_R   0.187900 0.529504 0.575887 -0.224038
C35   C     C_R   0.767980 0.500387 0.505202 -0.159352
C36   C     C_R   0.231975 0.499973 0.494925 -0.155736
C37   C     C_R   0.814079 0.525072 0.588334 0.408070
C38   C     C_R   0.186052 0.478463 0.410642 0.421878
C39   C     C_R   0.907622 0.538385 0.583171 -0.071549
C40   C     C_R   0.092246 0.489903 0.408807 -0.072695
H1    H     H_    0.772835 0.465629 0.358607 0.184452
H2    H     H_    0.226818 0.546273 0.638536 0.192620
N1    N     N_R   0.500000 0.750030 0.500000 -0.212369
N2    N     N_R   0.500000 0.249970 0.500000 -0.206329
O1    O     O_R   0.367850 0.580280 0.500020 -0.574870
O2    O     O_R   0.632150 0.419720 0.499980 -0.554002
O3    O     O_R   0.632150 0.580280 0.499980 -0.574850
O4    O     O_R   0.367850 0.419720 0.500020 -0.552390
O5    O     O_R   0.500000 0.580290 0.373720 -0.589675
O6    O     O_R   0.500000 0.419710 0.626280 -0.603489
O7    O     O_R   0.500000 0.580290 0.626280 -0.592604
O8    O     O_R   0.500000 0.419710 0.373720 -0.600824
Zn1   Zn    Zn3+2 0.500000 0.607200 0.500000 0.991432
Zn2   Zn    Zn3+2 0.500000 0.392800 0.500000 1.004495
O9    O     O_3   0.770418 0.533229 0.674679 -0.755250
H3    H     H_    0.707968 0.509526 0.670415 0.318281
O10   O     O_3   0.229844 0.443686 0.331323 -0.740715
H4    H     H_    0.295720 0.444651 0.339502 0.325061
O11   O     O_3   0.918334 0.607037 0.742346 -0.682909
H5    H     H_    0.871660 0.652351 0.721809 0.346915
O12   O     O_3   0.081214 0.461845 0.237798 -0.671210
H6    H     H_    0.124642 0.514432 0.228998 0.348277
O13   O     O_3   0.099761 0.599708 0.736294 -0.574507
C41   C     C_3   0.118737 0.697115 0.726551 0.093961
H7    H     H_    0.055772 0.739159 0.731304 0.155485
H8    H     H_    0.152989 0.712972 0.658057 0.166114
C42   C     C_3   0.181067 0.727874 0.805850 -0.730368
H9    H     H_    0.245052 0.687850 0.801846 0.253917
H10   H     H_    0.196124 0.804460 0.799124 0.210623
H11   H     H_    0.148660 0.714634 0.875511 0.256169
O14   O     O_3   0.899931 0.451880 0.248526 -0.573867
C43   C     C_3   0.880616 0.536704 0.200110 0.083929
H12   H     H_    0.943372 0.568817 0.171216 0.171370
H13   H     H_    0.846636 0.588841 0.247135 0.127632
C44   C     C_3   0.817877 0.515278 0.118097 -0.739558
H14   H     H_    0.753734 0.485121 0.145124 0.237783
H15   H     H_    0.803164 0.581259 0.078654 0.214393
H16   H     H_    0.849767 0.463910 0.069187 0.277972
O15   O     O_3   0.656358 0.752214 0.461950 -0.526261
C45   C     C_3   0.714236 0.766272 0.540477 0.197019
H17   H     H_    0.698410 0.713533 0.596393 0.151396
H18   H     H_    0.708881 0.837758 0.573093 0.098492
C46   C     C_3   0.811553 0.753661 0.509095 -0.779211
H19   H     H_    0.833922 0.814900 0.466000 0.274243
H20   H     H_    0.855796 0.748632 0.571932 0.172031
H21   H     H_    0.818730 0.688866 0.465871 0.254707
O16   O     O_3   0.366834 0.253157 0.591335 -0.515166
C47   C     C_3   0.384051 0.249203 0.689574 0.160002
H22   H     H_    0.454364 0.270375 0.706308 0.120616
H23   H     H_    0.372696 0.176790 0.717796 0.147400
C48   C     C_3   0.320247 0.315967 0.740462 -0.729711
H24   H     H_    0.334551 0.315560 0.817499 0.196339
H25   H     H_    0.328755 0.388980 0.713079 0.239936
H26   H     H_    0.249614 0.293163 0.729017 0.271182
O17   O     O_3   0.340868 0.753803 0.521179 -0.529137
C49   C     C_3   0.299838 0.766682 0.431449 0.189765
H27   H     H_    0.323880 0.711498 0.381623 0.141533
H28   H     H_    0.314043 0.837073 0.398851 0.101641
C50   C     C_3   0.198208 0.758675 0.441073 -0.829695
H29   H     H_    0.172261 0.815063 0.488190 0.276116
H30   H     H_    0.166483 0.766114 0.370489 0.198419
H31   H     H_    0.179284 0.689262 0.470766 0.248813
O18   O     O_3   0.629530 0.253892 0.403026 -0.518561
C51   C     C_3   0.607978 0.246145 0.305876 0.163753
H32   H     H_    0.537189 0.267157 0.291879 0.124672
H33   H     H_    0.617274 0.172670 0.280002 0.146963
C52   C     C_3   0.669986 0.310233 0.248831 -0.742210
H34   H     H_    0.654677 0.303512 0.172308 0.194986
H35   H     H_    0.660149 0.384778 0.270268 0.228790
H36   H     H_    0.741202 0.290386 0.260869 0.289695
O19   O     O_3   0.282407 0.898859 0.613655 -0.755541
H37   H     H_    0.254110 0.938471 0.663115 0.327178
O20   O     O_3   0.725888 0.101352 0.403990 -0.732334
H38   H     H_    0.778907 0.060257 0.413237 0.340831
O21   O     O_3   0.711312 0.902043 0.374207 -0.745493
H39   H     H_    0.737033 0.943560 0.324518 0.335893
O22   O     O_3   0.271974 0.099314 0.590486 -0.734611
H40   H     H_    0.219084 0.058844 0.577094 0.341283

loop_
_geom_bond_atom_site_label_1
_geom_bond_atom_site_label_2
_ccdc_geom_bond_type
C2    C35   S    
C38   C40   A    
O16   C47   S    
C27   C29   T    
O17   C49   S    
O19   H37   S    
C34   H2    S    
O9    H3    S    
C6    C9    A    
C51   H33   S    
C14   O18   S    
C2    O2    A    
O4    Zn2   S    
C24   O22   S    
O6    Zn2   S    
C13   O17   S    
C46   H19   S    
C18   C24   A    
C35   C37   A    
C26   O6    A    
O21   H39   S    
C49   C50   S    
C33   C35   A    
N1    Zn1   S    
C22   O20   S    
C19   C20   A    
C5    C33   A    
C50   H31   S    
C52   H34   S    
C11   N1    A    
C18   C20   A    
C8    O12   S    
O3    Zn1   S    
C10   O14   S    
O1    Zn1   S    
O11   H5    S    
C52   H35   S    
C43   C44   S    
C7    O11   S    
C51   H32   S    
C21   O19   S    
O8    Zn2   S    
C42   H9    S    
C41   C42   S    
C4    C40   A    
C43   H13   S    
C48   H24   S    
C43   H12   S    
O13   C41   S    
C23   O21   S    
C6    C34   A    
C49   H28   S    
O7    Zn1   S    
C41   H8    S    
C15   C19   A    
C44   H14   S    
C48   H25   S    
C38   O10   S    
C31   C32   T    
C47   C48   S    
C16   C20   A    
C49   H27   S    
O2    Zn2   S    
C17   C23   A    
C44   H15   S    
C11   O15   S    
C4    C6    A    
C50   H30   S    
C47   H23   S    
C13   C15   A    
C52   H36   S    
C14   C16   A    
C3    C4    A    
C13   N1    A    
C14   N2    A    
O20   H38   S    
C7    C9    A    
C11   C17   A    
C16   C22   A    
C12   O16   S    
C46   H20   S    
C9    O13   S    
C8    C10   A    
C45   H17   S    
C3    C5    A    
C1    O4    A    
C2    O3    A    
C25   C27   S    
C26   C28   S    
C50   H29   S    
C42   H11   S    
C33   H1    S    
C41   H7    S    
C28   C30   T    
C25   O8    A    
C5    C10   A    
C37   C39   A    
O22   H40   S    
C48   H26   S    
C30   C32   S    
C1    O1    A    
O10   H4    S    
O5    Zn1   S    
C36   C38   A    
C45   C46   S    
C17   C19   A    
C45   H18   S    
C34   C36   A    
O12   H6    S    
C44   H16   S    
C25   O5    A    
C3    C39   A    
O15   C45   S    
C37   O9    S    
N2    Zn2   S    
C15   C21   A    
C46   H21   S    
O14   C43   S    
C47   H22   S    
C29   C31   S    
C21   C24   A    
C12   C18   A    
O18   C51   S    
C7    C39   A    
C22   C23   A    
C12   N2    A    
C8    C40   A    
C42   H10   S    
C26   O7    A    
C51   C52   S    
C1    C36   S    
