data_mof_unit_37985.cif
_audit_creation_date              2012-12-11T16:38:24-0500
_audit_creation_method            fapswitch 2.2
_symmetry_space_group_name_H-M    P1
_symmetry_Int_Tables_number       1
_space_group_crystal_system       triclinic
_cell_length_a                    22.974338
_cell_length_b                    7.298502
_cell_length_c                    20.931502
_cell_angle_alpha                 89.892927
_cell_angle_beta                  93.263287
_cell_angle_gamma                 89.837863
_cell_volume                      3504.04530703

loop_
_atom_site_label
_atom_site_type_symbol
_atom_type_description
_atom_site_fract_x
_atom_site_fract_y
_atom_site_fract_z
_atom_type_partial_charge
O1    O     O_R   0.188620 0.380490 0.689890 -0.521374
O2    O     O_R   0.811380 0.619510 0.310110 -0.502061
O3    O     O_R   0.311380 0.880490 0.810110 -0.508431
O4    O     O_R   0.688620 0.119510 0.189890 -0.529074
O5    O     O_R   0.306510 0.709050 0.686440 -0.536556
O6    O     O_R   0.693490 0.290950 0.313560 -0.538298
O7    O     O_R   0.193490 0.209050 0.813560 -0.544596
O8    O     O_R   0.806510 0.790950 0.186440 -0.536200
C1    C     C_R   0.325064 0.541734 0.671678 0.707056
C2    C     C_R   0.674903 0.458262 0.328272 0.682488
C3    C     C_R   0.174816 0.041883 0.828166 0.701979
C4    C     C_R   0.825042 0.958152 0.171647 0.710493
O9    O     O_R   0.188770 0.710120 0.682280 -0.517336
O10   O     O_R   0.811230 0.289880 0.317720 -0.520634
O11   O     O_R   0.311230 0.210120 0.817720 -0.520637
O12   O     O_R   0.688770 0.789880 0.182280 -0.529420
O13   O     O_R   0.192790 0.881680 0.805920 -0.534285
O14   O     O_R   0.807210 0.118320 0.194080 -0.529241
O15   O     O_R   0.307210 0.381680 0.694080 -0.530508
O16   O     O_R   0.692790 0.618320 0.305920 -0.534657
C5    C     C_R   0.169110 0.541829 0.666983 0.790429
C6    C     C_R   0.829593 0.458150 0.335322 0.778782
C7    C     C_R   0.329539 0.041275 0.835265 0.767583
C8    C     C_R   0.668957 0.959050 0.166912 0.802162
O17   O     O_3   0.251460 0.547440 0.790570 -0.377313
O18   O     O_3   0.748540 0.452560 0.209430 -0.387197
O19   O     O_3   0.248540 0.047440 0.709430 -0.374185
O20   O     O_3   0.751460 0.952560 0.290570 -0.369619
V1    V     V_3+5 0.249730 0.821800 0.742470 1.532397
V2    V     V_3+5 0.750270 0.178200 0.257530 1.500828
V3    V     V_3+5 0.250270 0.321800 0.757530 1.503996
V4    V     V_3+5 0.749730 0.678200 0.242470 1.499221
C9    C     C_R   0.435537 0.857152 0.969004 0.264989
C10   C     C_R   0.525157 0.106241 0.081137 0.286737
C11   C     C_R   0.022443 0.408208 0.587616 0.257607
C12   C     C_R   0.936113 0.641081 0.468183 0.338335
C13   C     C_R   0.386423 0.870436 0.924595 0.330697
C14   C     C_R   0.574547 0.103135 0.124910 0.260599
C15   C     C_R   0.070145 0.422905 0.632412 0.384792
C16   C     C_R   0.886844 0.628124 0.424049 0.338254
C17   C     C_R   0.376541 0.031566 0.888238 -0.325105
C18   C     C_R   0.619357 0.972318 0.117895 -0.293544
C19   C     C_R   0.118760 0.531567 0.619334 -0.330919
C20   C     C_R   0.876592 0.466606 0.388480 -0.368499
C21   C     C_R   0.405700 0.190985 0.910585 0.278494
C22   C     C_R   0.617221 0.858046 0.063332 0.261297
C23   C     C_R   0.119095 0.628204 0.560927 0.289233
C24   C     C_R   0.905305 0.306705 0.411803 0.404807
C25   C     C_R   0.457966 0.176463 0.949091 0.275664
C26   C     C_R   0.569383 0.869551 0.017385 0.282601
C27   C     C_R   0.070621 0.616830 0.515810 0.347083
C28   C     C_R   0.957116 0.318639 0.450539 0.238220
C29   C     C_R   0.473028 0.007959 0.978447 0.038292
C30   C     C_R   0.523974 0.995834 0.026044 0.046732
C31   C     C_R   0.022860 0.503493 0.528333 -0.093996
C32   C     C_R   0.973038 0.488583 0.479185 -0.104001
C33   C     C_R   0.032139 0.164293 0.996582 0.199922
C34   C     C_R   0.966194 0.837032 0.001312 0.203436
C35   C     C_R   0.466603 0.663690 0.502043 0.202712
C36   C     C_R   0.532834 0.335898 0.497238 0.203173
C37   C     C_R   0.044501 0.015201 0.955873 -0.116189
C38   C     C_R   0.954007 0.985833 0.042240 -0.117954
C39   C     C_R   0.454415 0.514232 0.542768 -0.117684
C40   C     C_R   0.545081 0.485454 0.456585 -0.117774
C41   C     C_R   0.011576 0.853022 0.958241 0.356055
C42   C     C_R   0.986835 0.148183 0.039731 0.360009
C43   C     C_R   0.487400 0.351652 0.540252 0.358442
C44   C     C_R   0.512073 0.647993 0.459067 0.356979
C45   C     C_1   0.090984 0.025398 0.911000 0.069741
C46   C     C_1   0.907980 0.975012 0.087686 0.081953
C47   C     C_1   0.408235 0.524697 0.588023 0.080267
C48   C     C_1   0.591412 0.475203 0.411517 0.080698
C49   C     C_1   0.870007 0.966867 0.125752 -0.164510
C50   C     C_1   0.129396 0.033283 0.873479 -0.177681
C51   C     C_1   0.629662 0.467181 0.373795 -0.158441
C52   C     C_1   0.370137 0.532798 0.625934 -0.165630
O21   O     O_3   0.446274 0.704033 0.006725 -0.611437
H1    H     H_    0.417610 0.608421 0.994625 0.350937
O22   O     O_3   0.476648 0.212444 0.091650 -0.618020
H2    H     H_    0.478638 0.255895 0.136490 0.329153
O23   O     O_3   0.976265 0.300495 0.604402 -0.600705
H3    H     H_    0.941310 0.328420 0.576321 0.297729
O24   O     O_3   0.947474 0.796269 0.504328 -0.592774
H4    H     H_    0.919454 0.893078 0.490863 0.368678
O25   O     O_3   0.343755 0.737632 0.923702 -0.526952
C53   C     C_3   0.299210 0.797377 0.962976 -0.231581
H5    H     H_    0.266079 0.688322 0.966001 0.139508
H6    H     H_    0.275817 0.919049 0.942319 0.107998
H7    H     H_    0.316635 0.826525 0.012656 0.138534
O26   O     O_3   0.577298 0.219723 0.177152 -0.555843
C54   C     C_3   0.592866 0.396566 0.156447 -0.103676
H8    H     H_    0.634272 0.394496 0.131272 0.159088
H9    H     H_    0.599782 0.485768 0.199030 0.138096
H10   H     H_    0.557745 0.459865 0.124949 0.157464
O27   O     O_3   0.069595 0.324780 0.689032 -0.524110
C55   C     C_3   0.045076 0.435843 0.735654 -0.115542
H11   H     H_    0.071288 0.561885 0.745201 0.101340
H12   H     H_    0.044984 0.357382 0.781104 0.153205
H13   H     H_    0.999091 0.472785 0.721527 0.156938
O28   O     O_3   0.844118 0.761542 0.423130 -0.521837
C56   C     C_3   0.799755 0.702361 0.462715 -0.243555
H14   H     H_    0.776542 0.580372 0.442551 0.111051
H15   H     H_    0.766360 0.811263 0.465446 0.143756
H16   H     H_    0.817358 0.674032 0.512448 0.127953
O29   O     O_3   0.377566 0.358431 0.906610 -0.525740
C57   C     C_3   0.329301 0.354161 0.946498 -0.026868
H17   H     H_    0.315045 0.216254 0.962038 0.034468
H18   H     H_    0.291021 0.416355 0.920065 0.163249
H19   H     H_    0.339476 0.432333 0.990943 0.133113
O30   O     O_3   0.661547 0.732894 0.055192 -0.551912
C58   C     C_3   0.705777 0.820091 0.022386 -0.218791
H20   H     H_    0.725306 0.936044 0.050528 0.108948
H21   H     H_    0.689238 0.868737 0.974267 0.146757
H22   H     H_    0.741053 0.719307 0.015313 0.164888
O31   O     O_3   0.166385 0.736925 0.548394 -0.541000
C59   C     C_3   0.207650 0.628434 0.518221 -0.226171
H23   H     H_    0.189242 0.572277 0.471986 0.145906
H24   H     H_    0.224406 0.515154 0.549898 0.114652
H25   H     H_    0.245337 0.715895 0.507641 0.169398
O32   O     O_3   0.877373 0.139789 0.407275 -0.500788
C60   C     C_3   0.828935 0.143914 0.446905 -0.051785
H26   H     H_    0.790733 0.083335 0.420132 0.169827
H27   H     H_    0.814643 0.281728 0.462645 0.017242
H28   H     H_    0.838985 0.064227 0.491225 0.129466
O33   O     O_3   0.493097 0.326862 0.961659 -0.604472
H29   H     H_    0.481393 0.425753 0.931004 0.348714
O34   O     O_3   0.565743 0.760180 0.963402 -0.619432
H30   H     H_    0.597801 0.669172 0.965505 0.338787
O35   O     O_3   0.068942 0.712017 0.458504 -0.604298
H31   H     H_    0.102791 0.795365 0.457716 0.334682
O36   O     O_3   0.988386 0.159125 0.462463 -0.582956
H32   H     H_    0.027649 0.189009 0.481344 0.319170
O37   O     O_3   0.973289 0.289382 0.080497 -0.619802
H33   H     H_    0.999386 0.394990 0.074756 0.356842
O38   O     O_3   0.025103 0.711908 0.917424 -0.630099
H34   H     H_    0.998846 0.606582 0.922954 0.350262
O39   O     O_3   0.525595 0.789744 0.418438 -0.620301
H35   H     H_    0.499381 0.895472 0.424166 0.357588
O40   O     O_3   0.473889 0.209904 0.580887 -0.621181
H36   H     H_    0.500075 0.104127 0.575124 0.355386
O41   O     O_3   0.063020 0.327011 0.996011 -0.637056
H37   H     H_    0.092272 0.324000 0.963199 0.306177
O42   O     O_3   0.935165 0.674582 0.001704 -0.636742
H38   H     H_    0.905068 0.679090 0.033564 0.309179
O43   O     O_3   0.435459 0.826467 0.502506 -0.634892
H39   H     H_    0.405365 0.821839 0.534362 0.310825
O44   O     O_3   0.563922 0.173019 0.496709 -0.637028
H40   H     H_    0.593697 0.177083 0.464486 0.308710

loop_
_geom_bond_atom_site_label_1
_geom_bond_atom_site_label_2
_ccdc_geom_bond_type
C34   C38   A    
C20   C24   A    
C31   C32   S    
C10   O22   S    
O1    C5    A    
C56   H14   S    
O19   V1    S    
O13   V1    S    
O3    C7    A    
O27   C55   S    
C33   C42   A    
O15   V3    S    
O23   H3    S    
C11   O23   S    
O38   H34   S    
C24   O32   S    
O25   C53   S    
C23   O31   S    
C16   O28   S    
C26   C30   A    
C40   C44   A    
C13   O25   S    
C14   C18   A    
C11   C15   A    
O4    C8    A    
C53   H6    S    
C57   H17   S    
C12   O24   S    
C37   C45   S    
O42   H38   S    
C55   H13   S    
O1    V3    S    
C8    C18   S    
C59   H23   S    
C38   C46   S    
O2    V4    S    
C18   C22   A    
C33   C37   A    
O3    V1    S    
O30   C58   S    
C60   H28   S    
O44   H40   S    
C5    C19   S    
C34   O42   S    
C1    O15   A    
C6    C20   S    
C58   H20   S    
C36   C43   A    
C2    O16   A    
C55   H12   S    
O2    C6    A    
O14   V2    S    
C36   O44   S    
C43   O40   S    
C16   C20   A    
O11   C7    A    
O33   H29   S    
O39   H35   S    
O12   C8    A    
C4    C49   S    
C44   O39   S    
O10   V2    S    
C48   C51   T    
C21   O29   S    
O43   H39   S    
O5    V1    S    
C9    C29   A    
C39   C43   A    
O7    V3    S    
C38   C42   A    
C11   C31   A    
O8    V4    S    
C12   C16   A    
C54   H8    S    
C53   H5    S    
C15   C19   A    
O21   H1    S    
C53   H7    S    
C9    C13   A    
O7    C3    A    
O5    C1    A    
C12   C32   A    
C37   C41   A    
C35   C44   A    
C54   H9    S    
C42   O37   S    
C2    C51   S    
C34   C41   A    
O24   H4    S    
C21   C25   A    
O8    C4    A    
C55   H11   S    
C46   C49   T    
O9    C5    A    
C45   C50   T    
C58   H21   S    
O11   V3    S    
C15   O27   S    
C60   H26   S    
C41   O38   S    
C35   O43   S    
C1    C52   S    
C39   C47   S    
C10   C30   A    
C56   H16   S    
C22   O30   S    
O37   H33   S    
O34   H30   S    
O32   C60   S    
O35   H31   S    
O16   V4    S    
O9    V1    S    
C14   O26   S    
C3    O13   A    
O6    V2    S    
C10   C14   A    
C28   O36   S    
O17   V3    S    
C3    C50   S    
O6    C2    A    
C23   C27   A    
O40   H36   S    
C29   C30   S    
O18   V4    S    
O12   V4    S    
C25   O33   S    
O29   C57   S    
C22   C26   A    
C27   O35   S    
C35   C39   A    
C7    C17   S    
C59   H25   S    
C33   O41   S    
C36   C40   A    
O10   C6    A    
O20   V2    S    
O41   H37   S    
C54   H10   S    
C9    O21   S    
O26   C54   S    
C47   C52   T    
C57   H18   S    
C25   C29   A    
O28   C56   S    
C59   H24   S    
C58   H22   S    
C27   C31   A    
C40   C48   S    
C13   C17   A    
O36   H32   S    
C60   H27   S    
O22   H2    S    
C28   C32   A    
C24   C28   A    
C56   H15   S    
C4    O14   A    
C17   C21   A    
C26   O34   S    
C19   C23   A    
O4    V2    S    
O31   C59   S    
C57   H19   S    
