data_mof_unit_63306.cif
_audit_creation_date              2012-10-26T18:04:02-0400
_audit_creation_method            fapswitch 2.2
_symmetry_space_group_name_H-M    P1
_symmetry_Int_Tables_number       1
_space_group_crystal_system       triclinic
_cell_length_a                    38.906916
_cell_length_b                    32.174515
_cell_length_c                    21.853661
_cell_angle_alpha                 90.000018
_cell_angle_beta                  55.785603
_cell_angle_gamma                 90.0
_cell_volume                      22622.2947183

loop_
_atom_site_label
_atom_site_type_symbol
_atom_type_description
_atom_site_fract_x
_atom_site_fract_y
_atom_site_fract_z
_atom_type_partial_charge
C1    C     C_R   0.920428 0.499973 0.581512 0.607140
C2    C     C_3   0.003341 0.501205 0.685178 -0.133903
C3    C     C_R   0.501963 0.228169 0.942700 -0.053961
C4    C     C_R   1.000000 0.706388 0.000000 -0.047721
C5    C     C_R   0.500000 0.206383 0.000000 -0.048171
C6    C     C_1   0.500000 0.338682 0.000000 0.094343
C7    C     C_1   1.000000 0.838686 1.000000 0.102801
C8    C     C_1   1.000000 0.661632 0.000000 0.033647
C9    C     C_1   0.500000 0.161630 0.000000 0.031973
C10   C     C_1   1.000000 0.624160 0.000000 0.145613
C11   C     C_1   0.500000 0.124159 0.000000 0.144469
C12   C     C_1   0.500000 0.623738 0.000000 0.121175
C13   C     C_3   0.496709 0.001214 0.314776 -0.131650
C14   C     C_1   0.000000 0.123738 1.000000 0.127272
C15   C     C_1   0.500000 0.376191 1.000000 0.079444
C16   C     C_1   1.000000 0.876193 1.000000 0.092861
C17   C     C_R   0.508414 0.728009 0.046624 0.221368
C18   C     C_R   0.491586 0.728009 0.953375 0.221368
C19   C     C_R   0.012647 0.228008 0.040599 0.224248
C20   C     C_R   0.987353 0.228008 0.959400 0.224250
C21   C     C_R   0.500000 0.706200 1.000000 -0.056747
C22   C     C_R   0.000000 0.206203 1.000000 -0.053827
C23   C     C_R   0.000000 0.293504 1.000000 -0.034407
C24   C     C_3   0.503291 0.001214 0.685224 -0.131650
C25   C     C_R   0.500000 0.793505 1.000000 -0.036007
C26   C     C_R   0.989726 0.271885 0.956497 0.216176
C27   C     C_R   0.010274 0.271885 0.043502 0.216177
C28   C     C_R   0.493941 0.771887 0.950911 0.214410
C29   C     C_R   0.506059 0.771887 0.049089 0.214409
C30   C     C_3   0.964570 0.539802 0.322388 0.277404
C31   C     C_3   0.035430 0.539801 0.677612 0.277403
C32   C     C_3   0.464548 0.039755 0.322429 0.276362
C33   C     C_3   0.535452 0.039755 0.677571 0.276362
C34   C     C_3   0.971841 0.545695 0.240722 0.255481
C35   C     C_3   0.998215 0.505187 0.191239 -0.164106
C36   C     C_3   0.028159 0.545694 0.759277 0.255482
C37   C     C_3   0.471783 0.045659 0.240793 0.256933
C38   C     C_3   0.528217 0.045659 0.759206 0.256933
C39   C     C_3   0.043262 0.508352 0.245712 0.338005
C40   C     C_3   0.956738 0.508352 0.754288 0.338007
C41   C     C_3   0.543295 0.008457 0.245669 0.344437
C42   C     C_3   0.456705 0.008458 0.754331 0.344438
C43   C     C_3   0.001785 0.505187 0.808761 -0.164106
C44   C     C_3   0.498228 0.005199 0.191229 -0.163356
C45   C     C_3   0.501772 0.005199 0.808771 -0.163356
C46   C     C_3   0.043987 0.508064 0.173400 0.116206
C47   C     C_3   0.956014 0.508064 0.826600 0.116205
C48   C     C_3   0.544000 0.008167 0.173371 0.119548
C49   C     C_R   0.079572 0.499973 0.418488 0.607141
C50   C     C_3   0.456000 0.008167 0.826629 0.119548
C51   C     C_3   0.976533 0.463727 0.236048 0.074279
C52   C     C_3   0.023467 0.463727 0.763952 0.074278
C53   C     C_3   0.476636 0.963698 0.235963 0.074468
C54   C     C_3   0.523364 0.963698 0.764037 0.074467
C55   C     C_R   0.727302 0.492131 0.832998 0.215542
C56   C     C_R   0.272698 0.492109 0.167007 0.215542
C57   C     C_R   0.227787 0.959076 0.783096 0.214837
C58   C     C_R   0.772213 0.959076 0.216904 0.214836
C59   C     C_R   0.706252 0.501828 0.798685 -0.029042
C60   C     C_R   0.420426 0.999973 0.581644 0.602618
C61   C     C_R   0.293747 0.501826 0.201313 -0.029042
C62   C     C_R   0.206272 0.996861 0.793086 -0.032037
C63   C     C_R   0.793728 0.996861 0.206914 -0.032037
C64   C     C_R   0.729030 0.511127 0.722500 0.167855
C65   C     C_R   0.270970 0.511144 0.277490 0.167860
C66   C     C_R   0.228567 0.033942 0.760581 0.167958
C67   C     C_R   0.771433 0.033941 0.239419 0.167957
C68   C     C_R   0.772366 0.510685 0.680945 -0.117092
C69   C     C_R   0.227634 0.510702 0.319046 -0.117086
C70   C     C_R   0.271904 0.033373 0.718664 -0.128098
C71   C     C_R   0.579574 0.999973 0.418356 0.602617
C72   C     C_R   0.728096 0.033373 0.281336 -0.128098
C73   C     C_R   0.793509 0.498496 0.712515 -0.064240
C74   C     C_R   0.206491 0.498495 0.287485 -0.064237
C75   C     C_R   0.293496 0.997233 0.712200 -0.042215
C76   C     C_R   0.706504 0.997233 0.287799 -0.042215
C77   C     C_R   0.997497 0.500093 0.382477 0.628256
C78   C     C_R   0.002503 0.500093 0.617523 0.628256
C79   C     C_R   0.497544 0.000095 0.382427 0.629647
C80   C     C_R   0.502456 0.000095 0.617573 0.629647
C81   C     C_R   0.771298 0.486695 0.787845 0.194784
C82   C     C_3   0.983189 0.455672 0.299508 0.327871
C83   C     C_R   0.228702 0.486675 0.212163 0.194787
C84   C     C_R   0.271741 0.960169 0.747758 0.253727
C85   C     C_R   0.728259 0.960169 0.252241 0.253728
C86   C     C_1   0.661266 0.501214 0.840876 0.111612
C87   C     C_1   0.338734 0.501212 0.159123 0.111615
C88   C     C_1   0.161262 0.998164 0.838360 0.117294
C89   C     C_1   0.838738 0.998164 0.161640 0.117294
C90   C     C_1   0.838383 0.499292 0.666048 0.062705
C91   C     C_1   0.161617 0.499292 0.333952 0.062701
C92   C     C_1   0.338368 0.998888 0.666291 0.089101
C93   C     C_3   0.016811 0.455672 0.700492 0.327874
C94   C     C_1   0.661632 0.998888 0.333709 0.089101
C95   C     C_1   0.875850 0.499849 0.627344 0.142962
C96   C     C_1   0.124150 0.499849 0.372655 0.142962
C97   C     C_1   0.375838 0.999798 0.627635 0.143773
C98   C     C_1   0.624162 0.999798 0.372365 0.143773
C99   C     C_1   0.623777 0.500616 0.876656 0.111979
C100  C     C_1   0.376222 0.500615 0.123343 0.111980
C101  C     C_1   0.123768 0.999200 0.876120 0.115688
C102  C     C_1   0.876232 0.999200 0.123879 0.115687
C103  C     C_1   0.500000 0.661228 0.000000 0.144220
C104  C     C_3   0.483326 0.955658 0.299384 0.329338
C105  C     C_1   0.000000 0.161228 1.000000 0.149104
C106  C     C_R   0.000000 0.579541 0.000000 0.637679
C107  C     C_R   0.500000 0.079540 0.000000 0.638488
C108  C     C_R   0.999791 0.503233 0.120401 0.647886
C109  C     C_R   0.000209 0.503233 0.879599 0.647887
C110  C     C_R   0.499792 0.003242 0.120399 0.649063
C111  C     C_R   0.500208 0.003242 0.879601 0.649064
C112  C     C_1   1.000000 0.338444 1.000000 0.128033
C113  C     C_1   0.500000 0.838445 0.000000 0.126002
C114  C     C_R   1.000000 0.420400 1.000000 0.598066
C115  C     C_3   0.516674 0.955658 0.700616 0.329338
C116  C     C_R   0.500000 0.920400 0.000000 0.598535
C117  C     C_1   1.000000 0.375887 1.000000 0.145150
C118  C     C_1   0.500000 0.875888 0.000000 0.143738
C119  C     C_R   0.500000 0.420829 0.000000 0.531191
C120  C     C_R   0.000000 0.920829 0.000000 0.546567
C121  C     C_R   0.579173 0.500077 0.920859 0.538692
C122  C     C_R   0.420827 0.500077 0.079141 0.538695
C123  C     C_R   0.079170 0.999938 0.920823 0.550956
C124  C     C_R   0.920829 0.999938 0.079176 0.550956
C125  C     C_R   0.500000 0.579193 0.000000 0.540128
C126  C     C_3   0.996659 0.501205 0.314822 -0.133901
C127  C     C_R   0.000000 0.079193 0.000000 0.549166
C128  C     C_R   0.501973 0.271687 0.942403 0.225219
C129  C     C_R   0.498027 0.271687 0.057597 0.225218
C130  C     C_R   0.002941 0.771693 0.941528 0.227380
C131  C     C_R   0.997059 0.771693 0.058472 0.227380
C132  C     C_R   0.500000 0.293745 0.000000 0.045830
C133  C     C_R   1.000000 0.793750 0.000000 0.047741
C134  C     C_R   0.997077 0.728174 0.058170 -0.052750
C135  C     C_R   0.002922 0.728174 0.941830 -0.052750
C136  C     C_R   0.498037 0.228169 0.057300 -0.053961
Cl1   Cl    Cl    0.985809 0.419117 0.177819 -0.391164
Cl2   Cl    Cl    0.918425 0.472346 0.895854 -0.324210
Cl3   Cl    Cl    0.581644 0.972515 0.104053 -0.339012
Cl4   Cl    Cl    0.418356 0.972515 0.895947 -0.339012
Cl5   Cl    Cl    0.504486 0.297666 0.869047 -0.471789
Cl6   Cl    Cl    0.495514 0.297666 0.130952 -0.471796
Cl7   Cl    Cl    0.006690 0.797674 0.867054 -0.464396
Cl8   Cl    Cl    0.993310 0.797674 0.132946 -0.464397
Cl9   Cl    Cl    0.018814 0.300855 0.102793 -0.351988
Cl10  Cl    Cl    0.981186 0.300854 0.897207 -0.351990
Cl11  Cl    Cl    0.509387 0.800863 0.114572 -0.347740
Cl12  Cl    Cl    0.014191 0.419117 0.822181 -0.391164
Cl13  Cl    Cl    0.490613 0.800863 0.885428 -0.347740
Cl14  Cl    Cl    0.068355 0.553474 0.249183 -0.364561
Cl15  Cl    Cl    0.931645 0.553475 0.750817 -0.364543
Cl16  Cl    Cl    0.568251 0.053659 0.249241 -0.376576
Cl17  Cl    Cl    0.431749 0.053659 0.750759 -0.376576
Cl18  Cl    Cl    0.936008 0.435491 0.379723 -0.361401
Cl19  Cl    Cl    0.063992 0.435491 0.620277 -0.361402
Cl20  Cl    Cl    0.436184 0.935374 0.379560 -0.344114
Cl21  Cl    Cl    0.563816 0.935373 0.620440 -0.344115
Cl22  Cl    Cl    0.485990 0.919102 0.177671 -0.387468
Cl23  Cl    Cl    0.514009 0.919102 0.822330 -0.387468
Cl24  Cl    Cl    0.080380 0.473507 0.243020 -0.293492
Cl25  Cl    Cl    0.919620 0.473507 0.756980 -0.293486
Cl26  Cl    Cl    0.580542 0.973729 0.242855 -0.351602
Cl27  Cl    Cl    0.419458 0.973729 0.757145 -0.351602
Cl28  Cl    Cl    0.081574 0.472346 0.104146 -0.324215
Cu1   Cu    Cu3+1 0.000000 0.540990 0.500000 1.285000
Cu2   Cu    Cu3+1 0.500030 0.500020 0.062450 1.156886
Cu3   Cu    Cu3+1 0.999970 0.000020 0.937550 1.137470
Cu4   Cu    Cu3+1 0.000030 0.000020 0.062450 1.137469
Cu5   Cu    Cu3+1 0.500000 0.040990 0.500000 1.281823
Cu6   Cu    Cu3+1 0.000000 0.458960 0.500000 1.311320
Cu7   Cu    Cu3+1 0.500000 0.958960 0.500000 1.317245
Cu8   Cu    Cu3+1 0.958960 0.499950 0.041020 1.280855
Cu9   Cu    Cu3+1 0.041040 0.499950 0.958980 1.280853
Cu10  Cu    Cu3+1 0.458960 0.999950 0.041020 1.275419
Cu11  Cu    Cu3+1 0.541040 0.999950 0.958980 1.275417
Cu12  Cu    Cu3+1 0.499970 0.500020 0.937550 1.156895
H1    H     H_    0.789983 0.519191 0.622934 0.186757
H2    H     H_    0.941796 0.537389 0.856352 0.230775
H3    H     H_    0.558157 0.037518 0.143663 0.230181
H4    H     H_    0.441843 0.037518 0.856337 0.230181
H5    H     H_    0.943022 0.467835 0.262729 0.223970
H6    H     H_    0.056978 0.467835 0.737271 0.223970
H7    H     H_    0.443116 0.967740 0.262667 0.223205
H8    H     H_    0.556884 0.967739 0.737333 0.223205
H9    H     H_    0.006576 0.640166 0.355735 0.373314
H10   H     H_    0.993424 0.640166 0.644264 0.373315
H11   H     H_    0.506343 0.140240 0.355948 0.373295
H12   H     H_    0.210017 0.519222 0.377051 0.186746
H13   H     H_    0.493657 0.140240 0.644052 0.373296
H14   H     H_    0.827660 0.414074 0.741375 0.350842
H15   H     H_    0.172329 0.414058 0.258694 0.350842
H16   H     H_    0.357550 0.908193 0.741646 0.401837
H17   H     H_    0.642450 0.908193 0.258354 0.401837
H18   H     H_    0.710848 0.497898 0.015797 0.395178
H19   H     H_    0.289153 0.497810 0.984201 0.395179
H20   H     H_    0.212703 0.846349 0.780630 0.392720
H21   H     H_    0.787297 0.846349 0.219370 0.392719
H22   H     H_    0.689159 0.460730 0.670531 0.355079
H23   H     H_    0.289160 0.061515 0.691550 0.189638
H24   H     H_    0.310837 0.460780 0.329507 0.355083
H25   H     H_    0.188953 0.064326 0.690636 0.356235
H26   H     H_    0.811046 0.064326 0.309364 0.356235
H27   H     H_    0.852450 0.559096 0.479085 0.372739
H28   H     H_    0.147550 0.559095 0.520915 0.372739
H29   H     H_    0.352560 0.058935 0.479576 0.369455
H30   H     H_    0.647440 0.058934 0.520423 0.369455
H31   H     H_    0.548404 0.640771 0.097179 0.388960
H32   H     H_    0.451596 0.640771 0.902821 0.388959
H33   H     H_    0.060046 0.140948 0.075957 0.386408
H34   H     H_    0.710840 0.061515 0.308450 0.189638
H35   H     H_    0.939952 0.140948 0.924047 0.386408
H36   H     H_    0.866235 0.590473 0.311489 0.385024
H37   H     H_    0.133766 0.590473 0.688511 0.385025
H38   H     H_    0.366111 0.090289 0.311616 0.380569
H39   H     H_    0.633889 0.090289 0.688384 0.380569
H40   H     H_    0.050752 0.634982 0.163725 0.390550
H41   H     H_    0.949249 0.634982 0.836274 0.390550
H42   H     H_    0.550489 0.135134 0.163945 0.389640
H43   H     H_    0.449511 0.135134 0.836055 0.389640
H44   H     H_    0.068528 0.375419 0.190376 0.402615
H45   H     H_    0.005187 0.711365 0.896704 0.199699
H46   H     H_    0.931472 0.375419 0.809624 0.402611
H47   H     H_    0.568960 0.875675 0.190192 0.397510
H48   H     H_    0.431039 0.875675 0.809808 0.397510
H49   H     H_    0.994813 0.711365 0.103296 0.199699
H50   H     H_    0.503483 0.211359 0.898247 0.198987
H51   H     H_    0.496516 0.211359 0.101752 0.198987
H52   H     H_    0.058204 0.537389 0.143647 0.230775
O1    O     O_R   0.940150 0.534620 0.559830 -0.478490
O2    O     O_R   0.440170 0.499950 0.007050 -0.482803
O3    O     O_2   0.112378 0.497061 0.620573 -0.193692
O4    O     O_2   0.090590 0.508785 0.537560 -0.298347
O5    O     O_3   0.121106 0.569172 0.565275 -0.378067
O6    O     O_2   0.387679 0.996874 0.379439 -0.194138
O7    O     O_2   0.409482 0.008627 0.462424 -0.292618
O8    O     O_3   0.378847 0.068974 0.434840 -0.383294
O9    O     O_2   0.612321 0.996873 0.620561 -0.194138
O10   O     O_2   0.590518 0.008627 0.537576 -0.292618
O11   O     O_3   0.621154 0.068973 0.565159 -0.383294
O12   O     O_2   0.544960 0.726151 0.122896 -0.135852
O13   O     O_R   0.059830 0.999950 0.992950 -0.496208
O14   O     O_2   0.480449 0.686996 0.172787 -0.207263
O15   O     O_3   0.548925 0.657556 0.058668 -0.517942
O16   O     O_2   0.455040 0.726151 0.877103 -0.135851
O17   O     O_2   0.519551 0.686995 0.827213 -0.207269
O18   O     O_3   0.451075 0.657556 0.941332 -0.517944
O19   O     O_2   0.057584 0.226193 0.101734 -0.136056
O20   O     O_2   0.992659 0.186552 0.162529 -0.213980
O21   O     O_3   0.057434 0.157795 0.040831 -0.508959
O22   O     O_2   0.942419 0.226192 0.898258 -0.136055
O23   O     O_2   0.007342 0.186548 0.837473 -0.213987
O24   O     O_R   0.940170 0.999950 0.007050 -0.496207
O25   O     O_3   0.942564 0.157797 0.959173 -0.508957
O26   O     O_2   0.931687 0.572886 0.176327 -0.228793
O27   O     O_2   0.897909 0.515042 0.259373 -0.239780
O28   O     O_3   0.891316 0.588723 0.312543 -0.372412
O29   O     O_2   0.068313 0.572886 0.823673 -0.228793
O30   O     O_2   0.102091 0.515041 0.740627 -0.239784
O31   O     O_3   0.108684 0.588723 0.687456 -0.372411
O32   O     O_2   0.431547 0.072769 0.176494 -0.229351
O33   O     O_2   0.397895 0.014861 0.259445 -0.243143
O34   O     O_3   0.391170 0.088532 0.312740 -0.375797
O35   O     O_R   0.500010 0.559860 0.947320 -0.491120
O36   O     O_2   0.568453 0.072768 0.823506 -0.229351
O37   O     O_2   0.602105 0.014861 0.740554 -0.243143
O38   O     O_3   0.608830 0.088532 0.687260 -0.375798
O39   O     O_2   0.020564 0.586643 0.107205 -0.345125
O40   O     O_2   0.971672 0.630023 0.209828 -0.164050
O41   O     O_3   0.039227 0.609918 0.195395 -0.432542
O42   O     O_2   0.979437 0.586643 0.892795 -0.345125
O43   O     O_2   0.028329 0.630023 0.790171 -0.164049
O44   O     O_3   0.960774 0.609918 0.804604 -0.432541
O45   O     O_2   0.520412 0.086689 0.107346 -0.346061
O46   O     O_R   0.499990 0.559860 0.052680 -0.491117
O47   O     O_2   0.471432 0.129980 0.210045 -0.164291
O48   O     O_3   0.539036 0.110039 0.195549 -0.432970
O49   O     O_2   0.479588 0.086689 0.892654 -0.346061
O50   O     O_2   0.528568 0.129980 0.789954 -0.164291
O51   O     O_3   0.460964 0.110039 0.804450 -0.432969
O52   O     O_2   0.029341 0.402483 0.330913 -0.197129
O53   O     O_2   0.988466 0.370289 0.292525 -0.120740
O54   O     O_3   0.056747 0.403181 0.193043 -0.358781
O55   O     O_2   0.970659 0.402483 0.669087 -0.197138
O56   O     O_2   0.011534 0.370289 0.707475 -0.120740
O57   O     O_R   0.000010 0.059860 0.947320 -0.492091
O58   O     O_3   0.943253 0.403181 0.806957 -0.358783
O59   O     O_2   0.529645 0.902620 0.330635 -0.207756
O60   O     O_2   0.488809 0.870285 0.292282 -0.111874
O61   O     O_3   0.556995 0.903321 0.192800 -0.365249
O62   O     O_2   0.470355 0.902620 0.669365 -0.207756
O63   O     O_2   0.511190 0.870285 0.707718 -0.111875
O64   O     O_3   0.443005 0.903321 0.807200 -0.365250
O65   O     O_R   0.999990 0.059860 0.052680 -0.492092
O66   O     O_R   0.940110 0.465340 0.559870 -0.482482
O67   O     O_R   0.059890 0.465340 0.440130 -0.482476
O68   O     O_R   0.440110 0.965340 0.559870 -0.479202
O69   O     O_R   0.059850 0.534620 0.440170 -0.478493
O70   O     O_R   0.559890 0.965340 0.440130 -0.479202
O71   O     O_R   0.999990 0.534620 0.408860 -0.442785
O72   O     O_R   0.000010 0.534620 0.591140 -0.442785
O73   O     O_R   0.499990 0.034620 0.408860 -0.442085
O74   O     O_R   0.500010 0.034620 0.591140 -0.442085
O75   O     O_R   0.999950 0.465340 0.408890 -0.446050
O76   O     O_R   0.000050 0.465340 0.591110 -0.446050
O77   O     O_R   0.499950 0.965340 0.408890 -0.444927
O78   O     O_R   0.500050 0.965340 0.591110 -0.444926
O79   O     O_R   0.965330 0.559800 0.034660 -0.473017
O80   O     O_R   0.440150 0.034620 0.559830 -0.481186
O81   O     O_R   0.034670 0.559800 0.965340 -0.473017
O82   O     O_R   0.465330 0.059800 0.034660 -0.473528
O83   O     O_R   0.534670 0.059800 0.965340 -0.473529
O84   O     O_R   0.965350 0.499950 0.125800 -0.452543
O85   O     O_R   0.034650 0.499950 0.874200 -0.452545
O86   O     O_R   0.465350 0.999950 0.125800 -0.452027
O87   O     O_R   0.534650 0.999950 0.874200 -0.452028
O88   O     O_R   0.034620 0.500000 0.056540 -0.453150
O89   O     O_R   0.965380 0.500000 0.943460 -0.453150
O90   O     O_R   0.534620 0.000000 0.056540 -0.453008
O91   O     O_R   0.559850 0.034620 0.440170 -0.481186
O92   O     O_R   0.465380 0.000000 0.943460 -0.453008
O93   O     O_R   0.965350 0.440100 0.034640 -0.484861
O94   O     O_R   0.034650 0.440100 0.965360 -0.484862
O95   O     O_R   0.465350 0.940100 0.034640 -0.485369
O96   O     O_R   0.534650 0.940100 0.965360 -0.485369
O97   O     O_R   0.499940 0.440170 0.947210 -0.487889
O98   O     O_R   0.500060 0.440170 0.052790 -0.487895
O99   O     O_R   0.999940 0.940170 0.947210 -0.485512
O100  O     O_R   0.000060 0.940170 0.052790 -0.485513
O101  O     O_2   0.943194 0.623182 0.347857 -0.127130
O102  O     O_R   0.559820 0.500010 0.887440 -0.481334
O103  O     O_2   0.944410 0.588771 0.443709 -0.214448
O104  O     O_3   0.012965 0.612651 0.331298 -0.407021
O105  O     O_2   0.056807 0.623182 0.652142 -0.127129
O106  O     O_2   0.055590 0.588771 0.556291 -0.214449
O107  O     O_3   0.987035 0.612651 0.668701 -0.407023
O108  O     O_2   0.442998 0.123089 0.348072 -0.127854
O109  O     O_2   0.444320 0.088693 0.443828 -0.215801
O110  O     O_3   0.512799 0.112738 0.331451 -0.406087
O111  O     O_2   0.557002 0.123089 0.651928 -0.127854
O112  O     O_2   0.555680 0.088693 0.556172 -0.215802
O113  O     O_R   0.440180 0.500010 0.112560 -0.481338
O114  O     O_3   0.487201 0.112738 0.668548 -0.406087
O115  O     O_2   0.814852 0.497217 0.847707 -0.108435
O116  O     O_2   0.771989 0.434402 0.885497 -0.160714
O117  O     O_3   0.839892 0.435963 0.755429 -0.453695
O118  O     O_2   0.185154 0.497167 0.152281 -0.108420
O119  O     O_2   0.228008 0.434347 0.114555 -0.160728
O120  O     O_3   0.160101 0.435940 0.244616 -0.453706
O121  O     O_2   0.273155 0.890823 0.817726 -0.153509
O122  O     O_2   0.315624 0.890930 0.681883 -0.190408
O123  O     O_3   0.340795 0.933451 0.750453 -0.473164
O124  O     O_R   0.059820 0.000010 0.887440 -0.487117
O125  O     O_2   0.726845 0.890823 0.182274 -0.153509
O126  O     O_2   0.684376 0.890930 0.318117 -0.190409
O127  O     O_3   0.659205 0.933450 0.249547 -0.473164
O128  O     O_2   0.660829 0.516738 0.967091 -0.258714
O129  O     O_2   0.684766 0.445045 0.955169 -0.215267
O130  O     O_3   0.727618 0.504695 0.962340 -0.404897
O131  O     O_2   0.339173 0.516688 0.032893 -0.258708
O132  O     O_2   0.315232 0.444991 0.044876 -0.215274
O133  O     O_3   0.272385 0.504625 0.037651 -0.404889
O134  O     O_2   0.185798 0.902017 0.889818 -0.206411
O135  O     O_R   0.940180 0.000010 0.112560 -0.487117
O136  O     O_2   0.161964 0.913715 0.808810 -0.274548
O137  O     O_3   0.229220 0.871772 0.756220 -0.404272
O138  O     O_2   0.814202 0.902017 0.110181 -0.206411
O139  O     O_2   0.838036 0.913715 0.191190 -0.274548
O140  O     O_3   0.770780 0.871772 0.243780 -0.404273
O141  O     O_2   0.678883 0.563343 0.712891 -0.181291
O142  O     O_2   0.734849 0.531767 0.596849 -0.212329
O143  O     O_3   0.671475 0.485903 0.689982 -0.465020
O144  O     O_2   0.321118 0.563381 0.287057 -0.181293
O145  O     O_2   0.265150 0.531829 0.403126 -0.212341
O146  O     O_R   0.559830 0.499950 0.992950 -0.482808
O147  O     O_3   0.328523 0.485951 0.310033 -0.465018
O148  O     O_2   0.177244 0.093752 0.850369 -0.186095
O149  O     O_2   0.233341 0.115448 0.725609 -0.207868
O150  O     O_3   0.170879 0.074943 0.741927 -0.468295
O151  O     O_2   0.822756 0.093752 0.149631 -0.186096
O152  O     O_2   0.766659 0.115448 0.274391 -0.207868
O153  O     O_3   0.829121 0.074943 0.258073 -0.468295
O154  O     O_2   0.887623 0.497061 0.379426 -0.193688
O155  O     O_2   0.909410 0.508785 0.462439 -0.298347
O156  O     O_3   0.878894 0.569173 0.434725 -0.378068
S1    S     S_3+6 0.966749 0.591542 0.360905 0.183932
S2    S     S_3+6 0.301465 0.489150 0.068291 0.100893
S3    S     S_3+6 0.199615 0.911118 0.811666 0.099000
S4    S     S_3+6 0.800385 0.911118 0.188334 0.099000
S5    S     S_3+6 0.703867 0.524434 0.678223 0.080543
S6    S     S_3+6 0.296133 0.524476 0.321758 0.080542
S7    S     S_3+6 0.202782 0.081397 0.770183 0.078110
S8    S     S_3+6 0.797217 0.081397 0.229817 0.078110
S9    S     S_3+6 0.909580 0.526859 0.399041 0.119150
S10   S     S_3+6 0.090420 0.526859 0.600958 0.119149
S11   S     S_3+6 0.409597 0.026707 0.399081 0.120099
S12   S     S_3+6 0.033251 0.591542 0.639095 0.183931
S13   S     S_3+6 0.590403 0.026707 0.600919 0.120098
S14   S     S_3+6 0.520523 0.700105 0.103065 0.116156
S15   S     S_3+6 0.479477 0.700105 0.896935 0.116154
S16   S     S_3+6 0.030117 0.200069 0.089079 0.117145
S17   S     S_3+6 0.969884 0.200068 0.910920 0.117143
S18   S     S_3+6 0.922301 0.553995 0.246988 0.139443
S19   S     S_3+6 0.077699 0.553995 0.753012 0.139442
S20   S     S_3+6 0.422214 0.053863 0.247113 0.136666
S21   S     S_3+6 0.577786 0.053863 0.752886 0.136665
S22   S     S_3+6 0.000824 0.593816 0.188176 0.075173
S23   S     S_3+6 0.466635 0.091507 0.361033 0.184070
S24   S     S_3+6 0.999177 0.593816 0.811823 0.075173
S25   S     S_3+6 0.500663 0.093837 0.188325 0.074984
S26   S     S_3+6 0.499337 0.093837 0.811675 0.074985
S27   S     S_3+6 0.015022 0.407610 0.280302 0.210860
S28   S     S_3+6 0.984978 0.407610 0.719698 0.210855
S29   S     S_3+6 0.515280 0.907678 0.280078 0.207954
S30   S     S_3+6 0.484719 0.907678 0.719921 0.207954
S31   S     S_3+6 0.533365 0.091507 0.638966 0.184070
S32   S     S_3+6 0.799028 0.463441 0.822180 0.147737
S33   S     S_3+6 0.200972 0.463403 0.177843 0.147733
S34   S     S_3+6 0.299966 0.916960 0.749812 0.128292
S35   S     S_3+6 0.700034 0.916960 0.250188 0.128291
S36   S     S_3+6 0.698536 0.489199 0.931716 0.100890

loop_
_geom_bond_atom_site_label_1
_geom_bond_atom_site_label_2
_ccdc_geom_bond_type
C5    C136  A    
C13   C79   S    
O154  S9    D    
C55   C59   A    
H22   O143  S    
C18   C21   A    
C36   S19   S    
C122  O113  A    
C74   C83   A    
Cu1   O72   S    
C90   C95   T    
C77   O75   A    
C78   O76   A    
O19   S16   D    
C39   Cl14  S    
C1    O66   A    
O117  S32   S    
C82   S27   S    
C52   H6    S    
C7    C133  S    
Cu6   O75   S    
C53   H7    S    
C85   S35   S    
C50   Cl4   S    
Cu3   O124  S    
C107  O82   A    
O55   S28   D    
C84   S34   S    
O115  S32   D    
C34   C35   S    
O3    S10   D    
C38   C45   S    
H10   O107  S    
C76   C94   S    
C91   C96   T    
C44   C53   S    
O137  S3    S    
O49   S26   D    
O138  S4    D    
C99   C121  S    
C68   C73   A    
C41   Cl26  S    
Cu1   O1    S    
O145  S6    D    
H9    O104  S    
C73   C81   A    
O61   S29   S    
C63   C67   A    
C25   C29   A    
O118  S33   D    
C6    C132  S    
H27   O156  S    
C30   C34   S    
C129  Cl6   S    
C31   S12   S    
C62   C88   S    
C56   S2    S    
C33   S31   S    
O8    S11   S    
C134  H49   S    
C2    C78   S    
O132  S2    D    
O34   S20   S    
C123  O124  A    
C27   Cl9   S    
C42   Cl17  S    
Cu9   O81   S    
C69   C74   A    
O128  S36   D    
Cu10  O86   S    
C49   O69   A    
C86   C99   T    
Cu8   O93   S    
C4    C135  A    
O153  S8    S    
O4    S10   D    
O7    S11   D    
O27   S18   D    
Cu12  O102  S    
H17   O127  S    
C56   C83   A    
O50   S26   D    
H19   O133  S    
C3    C128  A    
O129  S36   D    
C33   C38   S    
C51   H5    S    
O106  S12   D    
C45   C111  S    
C106  O81   A    
C38   S21   S    
C65   S6    S    
O151  S8    D    
C37   C44   S    
O36   S21   D    
O26   S18   D    
O63   S30   D    
H46   O58   S    
C30   S9    S    
C66   C70   A    
O121  S34   D    
Cu4   O135  S    
O17   S15   D    
O142  S5    D    
C116  C118  S    
C49   O67   A    
H32   O18   S    
Cu5   O91   S    
C37   S25   S    
O111  S31   D    
C8    C10   T    
C108  O84   A    
C31   C36   S    
O5    S10   S    
C124  O135  A    
C43   C47   S    
C76   C85   A    
C44   C48   S    
Cu8   O89   S    
O53   S27   D    
C127  O57   A    
C13   C32   S    
O15   S14   S    
C94   C98   T    
Cu7   O68   S    
C31   S10   S    
Cu4   O65   S    
C64   C68   A    
C73   C90   S    
C16   C120  S    
Cu1   O69   S    
C75   C84   A    
C53   C104  S    
Cu11  O87   S    
O32   S20   D    
C68   H1    S    
C67   C72   A    
C26   Cl10  S    
Cu3   O99   S    
Cu10  Cu11  S    
Cu2   O46   S    
O136  S3    D    
Cu5   O80   S    
C71   O91   A    
C54   Cl23  S    
C14   C105  T    
C107  O83   A    
Cu2   O98   S    
C2    C40   S    
C55   C81   A    
O122  S34   D    
H11   O110  S    
O64   S30   S    
C77   O71   A    
Cu11  O90   S    
C78   O72   A    
C28   Cl13  S    
C52   Cl12  S    
O33   S20   D    
O141  S5    D    
Cu5   Cu7   S    
Cu7   O70   S    
C92   C97   T    
C37   S20   S    
C135  H45   S    
H21   O140  S    
C62   C66   A    
C66   S7    S    
H14   O117  S    
O40   S22   D    
C93   Cl19  S    
C18   C28   A    
O123  S34   S    
C20   S17   S    
C104  Cl20  S    
Cu3   O24   S    
H48   O64   S    
C109  O89   A    
O156  S9    S    
C5    C9    S    
C61   C65   A    
O104  S1    S    
C69   H12   S    
C1    C95   S    
C63   C89   S    
C52   C93   S    
C32   C37   S    
O149  S7    D    
C3    H50   S    
O6    S11   D    
O59   S29   D    
C42   C50   S    
O62   S30   D    
C55   S36   S    
C10   C106  S    
H39   O38   S    
H40   O41   S    
C123  O13   A    
Cu6   O67   S    
C4    C134  A    
C87   C100  T    
C80   O78   A    
Cu1   O71   S    
C119  O98   A    
Cu8   O84   S    
O20   S16   D    
Cu10  O82   S    
C83   S33   S    
C124  O24   A    
Cu6   O76   S    
C47   Cl2   S    
C15   C119  S    
O116  S32   D    
C114  C117  S    
C131  Cl8   S    
Cu11  O96   S    
C120  O99   A    
C70   C75   A    
O56   S28   D    
Cu4   O100  S    
C116  O95   A    
O103  S1    D    
C17   S14   S    
Cu7   O78   S    
O108  S23   D    
C17   C29   A    
C130  C135  A    
C131  C134  A    
O45   S25   D    
C13   C41   S    
C80   O74   A    
C25   C28   A    
O21   S16   S    
O37   S21   D    
C53   Cl22  S    
C47   H2    S    
C112  C117  T    
C39   Cl24  S    
H13   O114  S    
C38   S26   S    
Cu2   O146  S    
C23   C26   A    
C82   C126  S    
C57   S3    S    
Cu7   O77   S    
C110  O90   A    
Cu9   O88   S    
H30   O11   S    
C114  O93   A    
O16   S15   D    
C128  Cl5   S    
O110  S23   S    
C4    C8    S    
C129  C132  A    
C67   S8    S    
C39   C126  S    
O155  S9    D    
C34   S18   S    
C32   S23   S    
C102  C124  S    
O112  S31   D    
C121  O102  A    
C88   C101  T    
C125  O46   A    
H26   O153  S    
O48   S25   S    
C57   C62   A    
C12   C103  T    
C60   C97   S    
Cu3   Cu4   S    
C12   C125  S    
O109  S23   D    
C108  O88   A    
C14   C127  S    
C74   C91   S    
H28   O5    S    
C25   C113  S    
O39   S22   D    
Cu4   O13   S    
C104  S29   S    
C54   C115  S    
C125  O35   A    
C57   C84   A    
C13   C104  S    
O127  S35   S    
C51   Cl1   S    
C7    C16   T    
C136  H51   S    
C20   C22   A    
O47   S25   D    
C54   H8    S    
C130  C133  A    
Cu2   O113  S    
C22   C105  S    
O60   S29   D    
Cu1   Cu6   S    
H42   O48   S    
C109  O85   A    
H38   O34   S    
H29   O8    S    
Cu10  O92   S    
C3    C5    A    
C29   Cl11  S    
O133  S2    S    
H41   O44   S    
C24   C33   S    
O148  S7    D    
C40   Cl25  S    
Cu10  O95   S    
Cu3   O57   S    
C45   C50   S    
C65   C69   A    
Cu8   O79   S    
C43   C52   S    
O131  S2    D    
C17   C21   A    
C59   C86   S    
C106  O79   A    
C32   S11   S    
O42   S24   D    
C46   H52   S    
C56   C61   A    
C36   S24   S    
C36   C43   S    
C33   S13   S    
C35   C46   S    
C77   C126  S    
O23   S17   D    
H33   O21   S    
O120  S33   S    
H15   O120  S    
C40   C47   S    
C30   C126  S    
O31   S19   S    
C70   H23   S    
C89   C102  T    
O105  S12   D    
C72   C76   A    
C79   O77   A    
O126  S35   D    
C111  O92   A    
C41   Cl16  S    
C24   C42   S    
C59   C64   A    
C101  C123  S    
C115  Cl21  S    
H24   O147  S    
O41   S22   S    
O18   S15   S    
H20   O137  S    
O38   S21   S    
O144  S6    D    
H25   O150  S    
Cu9   O94   S    
Cu5   O73   S    
C35   C108  S    
C6    C15   T    
C64   S5    S    
C24   C80   S    
C72   H34   S    
O125  S35   D    
O10   S13   D    
C23   C27   A    
C30   S1    S    
C19   C27   A    
O114  S31   S    
H18   O130  S    
Cu12  O97   S    
O107  S12   S    
C46   Cl28  S    
H37   O31   S    
H43   O51   S    
Cu9   O85   S    
O54   S27   S    
H35   O25   S    
C128  C132  A    
O43   S24   D    
O51   S26   S    
C93   S28   S    
O134  S3    D    
C122  O2    A    
C71   C98   S    
O101  S1    D    
O147  S6    S    
O152  S8    D    
C19   C22   A    
O44   S24   S    
C42   Cl27  S    
O143  S5    S    
O30   S19   D    
C119  O97   A    
C40   Cl15  S    
C2    C31   S    
C82   Cl18  S    
H36   O28   S    
C50   H4    S    
Cu5   O74   S    
C19   S16   S    
H31   O15   S    
C60   O80   A    
C129  C136  A    
O139  S4    D    
Cu12  O35   S    
C111  O87   A    
Cu12  O2    S    
C34   S22   S    
O25   S17   S    
O140  S4    S    
C130  Cl7   S    
C9    C11   T    
C51   C82   S    
O28   S18   S    
C75   C92   S    
C39   C46   S    
O130  S36   S    
C120  O100  A    
C45   C54   S    
H47   O61   S    
C11   C107  S    
O29   S19   D    
O11   S13   S    
C116  O96   A    
C58   C85   A    
Cu8   Cu9   S    
C61   C87   S    
C58   C63   A    
C79   O73   A    
C18   S15   S    
O9    S13   D    
C48   Cl3   S    
C23   C112  S    
C2    C93   S    
C110  O86   A    
C58   S4    S    
C131  C133  A    
O52   S27   D    
C43   C109  S    
Cu2   Cu12  S    
C127  O65   A    
C71   O70   A    
C81   S32   S    
C35   C51   S    
C60   O68   A    
C20   C26   A    
O14   S14   D    
O58   S28   S    
C121  O146  A    
C41   C48   S    
C100  C122  S    
C49   C96   S    
O150  S7    S    
C115  S30   S    
C113  C118  T    
C21   C103  S    
C1    O1    A    
C24   C115  S    
Cu11  O83   S    
O22   S17   D    
O12   S14   D    
O119  S33   D    
H44   O54   S    
C114  O94   A    
C48   H3    S    
Cu6   O66   S    
H16   O123  S    
C44   C110  S    
