data_mof_unit_65174.cif
_audit_creation_date              2012-12-10T18:08:44-0500
_audit_creation_method            fapswitch 2.2
_symmetry_space_group_name_H-M    P1
_symmetry_Int_Tables_number       1
_space_group_crystal_system       triclinic
_cell_length_a                    36.929625
_cell_length_b                    18.379166
_cell_length_c                    18.379667
_cell_angle_alpha                 90.000266
_cell_angle_beta                  119.787625
_cell_angle_gamma                 90.001494
_cell_volume                      10826.6575367

loop_
_atom_site_label
_atom_site_type_symbol
_atom_type_description
_atom_site_fract_x
_atom_site_fract_y
_atom_site_fract_z
_atom_type_partial_charge
C1    C     C_R   0.499988 1.000000 0.360132 0.842595
C2    C     C_R   0.500011 0.000000 0.639868 0.842559
C3    C     C_R   0.999981 0.500000 0.360125 0.842190
C4    C     C_R   0.000019 0.500000 0.639875 0.842350
C5    C     C_1   0.837460 0.000463 0.838223 -0.030151
C6    C     C_1   0.162543 0.000278 0.161748 0.022682
C7    C     C_1   0.337471 0.499726 0.838320 0.029142
C8    C     C_1   0.662529 0.499700 0.161680 0.029549
C9    C     C_1   0.662523 0.000620 0.664288 -0.043565
C10   C     C_1   0.337476 0.000534 0.335650 -0.041523
C11   C     C_1   0.162488 0.500410 0.665471 -0.025841
C12   C     C_1   0.837512 0.500339 0.334499 -0.025576
C13   C     C_1   0.624861 0.000137 0.625584 -0.162719
C14   C     C_1   0.375139 0.000114 0.374390 -0.165676
C15   C     C_1   0.124833 0.500089 0.626046 -0.187536
C16   C     C_1   0.875167 0.500070 0.373940 -0.187200
C17   C     C_1   0.499956 0.000000 0.282639 -0.172752
C18   C     C_1   0.500044 0.000001 0.717361 -0.172966
C19   C     C_1   0.999949 0.500001 0.282633 -0.174392
C20   C     C_1   0.000051 0.500002 0.717367 -0.174164
C21   C     C_1   0.499947 0.000000 0.217389 -0.172282
C22   C     C_1   0.500053 0.000001 0.782611 -0.172524
C23   C     C_1   0.999943 0.500001 0.217386 -0.173177
C24   C     C_1   0.000057 0.500002 0.782614 -0.172954
C25   C     C_R   0.999999 0.139689 0.999999 0.842905
C26   C     C_R   0.000000 0.860311 0.000000 0.847013
C27   C     C_R   0.500000 0.639689 1.000000 0.844437
C28   C     C_R   0.500000 0.360311 0.000000 0.846374
C29   C     C_R   0.919972 0.999988 0.919993 0.822133
C30   C     C_R   0.080028 0.999990 0.080008 0.821907
C31   C     C_R   0.419975 0.499966 0.919996 0.821074
C32   C     C_R   0.580025 0.499968 0.080004 0.821119
C33   C     C_R   0.499999 0.859951 0.999999 0.845095
C34   C     C_R   0.500000 0.140049 0.000000 0.844861
C35   C     C_R   0.999999 0.359951 0.999999 0.845000
C36   C     C_R   0.000001 0.640049 0.000000 0.844818
C37   C     C_R   0.499980 0.000000 0.139961 0.845459
C38   C     C_R   0.500019 0.000001 0.860039 0.845349
C39   C     C_R   0.999980 0.500001 0.139960 0.845317
C40   C     C_R   0.000020 0.500001 0.860039 0.845330
C41   C     C_1   0.999998 0.217187 0.999998 -0.171292
C42   C     C_1   0.000001 0.782812 0.000001 -0.169021
C43   C     C_1   0.499999 0.717187 0.999999 -0.169082
C44   C     C_1   0.500001 0.282812 0.000001 -0.167520
C45   C     C_R   0.580025 0.000011 0.580038 0.820806
C46   C     C_R   0.419974 0.000008 0.419961 0.820850
C47   C     C_R   0.080018 0.500007 0.580037 0.822570
C48   C     C_R   0.919982 0.500004 0.419962 0.822558
C49   C     C_1   0.499999 0.782451 0.999999 -0.169838
C50   C     C_1   0.500001 0.217548 0.000001 -0.168627
C51   C     C_1   0.999998 0.282451 0.999998 -0.170683
C52   C     C_1   0.000001 0.717548 0.000001 -0.169772
C53   C     C_3   0.725493 0.060498 0.675917 -0.371921
C54   C     C_3   0.274420 0.927828 0.300554 -0.494331
C55   C     C_3   0.274455 0.061722 0.322207 -0.456035
C56   C     C_3   0.725617 0.927317 0.701359 -0.500805
C57   C     C_3   0.225443 0.572554 0.696510 -0.470910
C58   C     C_3   0.774413 0.440739 0.322127 -0.493650
C59   C     C_3   0.774559 0.573537 0.300944 -0.470689
C60   C     C_3   0.225589 0.439098 0.679934 -0.494113
C61   C     C_3   0.774104 0.926515 0.749382 0.183680
C62   C     C_3   0.225844 0.062368 0.273682 0.180955
C63   C     C_3   0.225927 0.926746 0.252165 0.159412
C64   C     C_3   0.774034 0.061776 0.724755 0.180081
C65   C     C_3   0.274043 0.439650 0.724950 0.165331
C66   C     C_3   0.725884 0.575283 0.248030 0.170589
C67   C     C_3   0.725959 0.441403 0.277096 0.165356
C68   C     C_3   0.274117 0.574454 0.749361 0.170683
C69   C     C_1   0.875130 0.000169 0.875351 -0.162148
C70   C     C_1   0.124872 0.000099 0.124646 -0.154686
C71   C     C_1   0.375138 0.499843 0.875373 -0.156136
C72   C     C_1   0.624862 0.499834 0.124627 -0.155633
C73   C     C_3   0.708712 0.001609 0.712418 0.116101
C74   C     C_3   0.291287 0.001387 0.287460 0.144592
C75   C     C_3   0.208567 0.500649 0.713765 0.221869
C76   C     C_3   0.791433 0.500498 0.286195 0.221185
C77   C     C_3   0.791285 0.001050 0.793152 0.161995
C78   C     C_3   0.208717 0.000651 0.206756 0.197587
C79   C     C_3   0.291317 0.499631 0.793436 0.220111
C80   C     C_3   0.708683 0.499570 0.206563 0.219445
C81   C     C_3   0.775008 0.015126 0.855266 -0.329387
C82   C     C_3   0.224988 0.013072 0.144339 -0.336108
C83   C     C_3   0.275068 0.483897 0.855480 -0.399754
C84   C     C_3   0.724931 0.481136 0.145109 -0.399631
C85   C     C_3   0.725635 0.019168 0.808415 0.518273
C86   C     C_3   0.274369 0.016762 0.191020 0.517673
C87   C     C_3   0.226468 0.495969 0.812667 0.511730
C88   C     C_3   0.773531 0.493015 0.187503 0.511700
Cu1   Cu    Cu3+1 0.500000 0.072550 0.500000 0.964858
Cu2   Cu    Cu3+1 0.500000 0.927450 0.500000 0.969164
Cu3   Cu    Cu3+1 1.000000 0.572550 0.500000 0.962831
Cu4   Cu    Cu3+1 0.000000 0.427450 0.500000 0.963289
Cu5   Cu    Cu3+1 0.000010 0.000000 0.927480 0.967144
Cu6   Cu    Cu3+1 0.999990 1.000000 0.072520 0.968796
Cu7   Cu    Cu3+1 0.500010 0.500000 0.927480 0.971516
Cu8   Cu    Cu3+1 0.499990 0.500000 0.072520 0.972043
Cu9   Cu    Cu3+1 0.541320 0.000000 0.041310 0.967820
Cu10  Cu    Cu3+1 0.458680 0.000000 0.958690 0.966931
Cu11  Cu    Cu3+1 0.041320 0.500000 0.041310 0.966968
Cu12  Cu    Cu3+1 0.958680 0.500000 0.958690 0.967191
H1    H     H_    0.785000 0.051285 0.678961 0.082985
H2    H     H_    0.214734 0.918691 0.297974 0.095053
H3    H     H_    0.214580 0.052443 0.319073 0.086082
H4    H     H_    0.785165 0.917424 0.703518 0.093931
H5    H     H_    0.286708 0.585111 0.706287 0.086360
H6    H     H_    0.715944 0.456177 0.323406 0.093643
H7    H     H_    0.713293 0.587862 0.290702 0.086684
H8    H     H_    0.284060 0.452465 0.678166 0.092390
H9    H     H_    0.714316 0.048830 0.608590 0.132745
H10   H     H_    0.285570 0.920102 0.368548 0.157454
H11   H     H_    0.285771 0.051937 0.389936 0.143752
H12   H     H_    0.714334 0.917871 0.633572 0.157073
H13   H     H_    0.215656 0.576532 0.628740 0.139406
H14   H     H_    0.786524 0.451446 0.390003 0.148776
H15   H     H_    0.784346 0.579520 0.368542 0.139773
H16   H     H_    0.213480 0.447870 0.611722 0.147812
H17   H     H_    0.712935 0.881301 0.721001 0.200058
H18   H     H_    0.286899 0.115857 0.318404 0.219870
H19   H     H_    0.287272 0.880966 0.282528 0.198017
H20   H     H_    0.712789 0.114985 0.677596 0.229372
H21   H     H_    0.213863 0.384568 0.682692 0.203793
H22   H     H_    0.788312 0.621051 0.285834 0.222530
H23   H     H_    0.786137 0.385742 0.321258 0.204108
H24   H     H_    0.211689 0.621035 0.709960 0.222412
H25   H     H_    0.790526 0.064484 0.891918 0.179792
H26   H     H_    0.213533 0.968057 0.097716 0.181711
H27   H     H_    0.209564 0.062116 0.106871 0.186228
H28   H     H_    0.786340 0.970723 0.902653 0.185994
H29   H     H_    0.292503 0.517743 0.912734 0.160235
H30   H     H_    0.716650 0.423962 0.123543 0.198429
H31   H     H_    0.707493 0.513576 0.086705 0.160410
H32   H     H_    0.283351 0.427220 0.879022 0.198407
O1    O     O_R   0.500010 0.061270 0.394200 -0.582152
O2    O     O_R   0.499990 0.938730 0.605800 -0.581285
O3    O     O_R   0.499990 0.061270 0.605800 -0.582385
O4    O     O_R   0.500010 0.938730 0.394200 -0.581326
O5    O     O_R   0.000010 0.561270 0.394200 -0.582367
O6    O     O_R   0.999990 0.438730 0.605800 -0.581669
O7    O     O_R   0.999990 0.561270 0.605800 -0.582423
O8    O     O_R   0.000010 0.438730 0.394200 -0.581736
O9    O     O_R   0.560280 0.061270 0.560280 -0.582565
O10   O     O_R   0.439720 0.938730 0.439720 -0.578944
O11   O     O_R   0.439720 0.061270 0.439720 -0.582963
O12   O     O_R   0.560280 0.938730 0.560280 -0.578925
O13   O     O_R   0.060280 0.561270 0.560280 -0.581279
O14   O     O_R   0.939720 0.438730 0.439720 -0.580546
O15   O     O_R   0.939720 0.561270 0.439720 -0.581163
O16   O     O_R   0.060280 0.438730 0.560280 -0.580662
O17   O     O_R   1.000000 0.105620 0.938740 -0.582419
O18   O     O_R   1.000000 0.894380 0.061260 -0.581121
O19   O     O_R   0.000000 0.105620 0.061260 -0.581882
O20   O     O_R   1.000000 0.894380 0.938740 -0.581088
O21   O     O_R   0.500000 0.605620 0.938740 -0.581397
O22   O     O_R   0.500000 0.394380 0.061260 -0.581052
O23   O     O_R   0.500000 0.605620 0.061260 -0.581483
O24   O     O_R   0.500000 0.394380 0.938740 -0.581439
O25   O     O_R   0.939730 0.000000 0.878470 -0.585525
O26   O     O_R   0.060270 0.000000 0.121530 -0.583239
O27   O     O_R   0.439730 0.500000 0.878470 -0.583348
O28   O     O_R   0.560270 0.500000 0.121530 -0.582910
O29   O     O_R   0.939720 0.000000 0.000940 -0.577293
O30   O     O_R   0.060280 0.000000 0.999060 -0.578101
O31   O     O_R   0.439720 0.500000 0.000940 -0.577819
O32   O     O_R   0.560280 0.500000 0.999060 -0.577782
O33   O     O_R   0.534900 0.894160 0.034870 -0.583413
O34   O     O_R   0.465100 0.105840 0.965130 -0.583024
O35   O     O_R   0.465100 0.894160 0.965130 -0.583436
O36   O     O_R   0.534900 0.105840 0.034870 -0.582622
O37   O     O_R   0.034900 0.394160 0.034870 -0.582523
O38   O     O_R   0.965100 0.605840 0.965130 -0.583069
O39   O     O_R   0.965100 0.394160 0.965130 -0.583852
O40   O     O_R   0.034900 0.605840 0.034870 -0.583490
O41   O     O_R   0.534890 1.000000 0.140680 -0.584689
O42   O     O_R   0.465110 0.000000 0.859320 -0.585110
O43   O     O_R   0.034890 0.500000 0.140680 -0.584996
O44   O     O_R   0.965110 0.500000 0.859320 -0.584713
O45   O     O_R   0.465110 0.000000 0.070890 -0.583398
O46   O     O_R   0.534890 0.000000 0.929110 -0.583207
O47   O     O_R   0.965110 0.500000 0.070890 -0.583436
O48   O     O_R   0.034890 0.500000 0.929110 -0.583436
O49   O     O_3   0.789078 0.869942 0.808753 -0.722379
H33   H     H_    0.783976 0.823835 0.776949 0.327588
O50   O     O_3   0.210971 0.130307 0.235049 -0.722057
H34   H     H_    0.216005 0.165251 0.280323 0.326383
O51   O     O_3   0.211158 0.869251 0.193986 -0.727334
H35   H     H_    0.216272 0.823694 0.226720 0.329004
O52   O     O_3   0.787880 0.130836 0.761163 -0.718920
H36   H     H_    0.816230 0.137916 0.768899 0.324063
O53   O     O_3   0.290032 0.371115 0.760468 -0.730184
H37   H     H_    0.284228 0.337853 0.713329 0.327936
O54   O     O_3   0.712640 0.629471 0.186005 -0.719700
H38   H     H_    0.717334 0.676939 0.215141 0.327824
O55   O     O_3   0.709969 0.372229 0.243965 -0.729651
H39   H     H_    0.715774 0.340421 0.292233 0.329207
O56   O     O_3   0.287361 0.630302 0.809479 -0.719996
H40   H     H_    0.282668 0.676893 0.778712 0.327621
N1    N     N_2   0.709701 0.091743 0.812645 -0.407913
H41   H     H_    0.677836 0.094271 0.788532 0.258309
C89   C     C_3   0.732957 0.142185 0.881146 -0.685192
H42   H     H_    0.711575 0.184325 0.881882 0.218877
H43   H     H_    0.756771 0.170747 0.871681 0.266371
H44   H     H_    0.748010 0.114099 0.942630 0.219326
N2    N     N_2   0.290372 0.960591 0.157367 -0.438425
H45   H     H_    0.281307 0.908372 0.161112 0.264310
C90   C     C_3   0.288000 0.973177 0.077255 -0.688123
H46   H     H_    0.300480 0.925034 0.060376 0.230071
H47   H     H_    0.307433 0.020550 0.080843 0.250333
H48   H     H_    0.255131 0.981486 0.027287 0.218017
N3    N     N_2   0.290427 0.088639 0.184809 -0.409576
H49   H     H_    0.322289 0.090776 0.208763 0.258566
C91   C     C_3   0.267214 0.137923 0.115037 -0.692666
H50   H     H_    0.288661 0.179230 0.113018 0.219401
H51   H     H_    0.243543 0.167628 0.123952 0.264146
H52   H     H_    0.251999 0.108603 0.054318 0.221981
N4    N     N_2   0.709505 0.964538 0.843517 -0.437065
H53   H     H_    0.718431 0.911909 0.841104 0.263770
C92   C     C_3   0.711926 0.979292 0.923287 -0.688942
H54   H     H_    0.699361 0.932067 0.941435 0.230256
H55   H     H_    0.692584 0.027200 0.918462 0.250298
H56   H     H_    0.744817 0.987889 0.973009 0.217736
N5    N     N_2   0.218752 0.566279 0.841466 -0.427923
H57   H     H_    0.243626 0.592159 0.890671 0.273701
C93   C     C_3   0.180061 0.578027 0.842181 -0.670742
H58   H     H_    0.174519 0.637368 0.842402 0.227787
H59   H     H_    0.182281 0.553827 0.899622 0.223127
H60   H     H_    0.153029 0.554064 0.786528 0.248501
N6    N     N_2   0.792010 0.433936 0.162511 -0.425712
H61   H     H_    0.780888 0.432818 0.098695 0.253161
C94   C     C_3   0.798559 0.361531 0.197774 -0.713221
H62   H     H_    0.808115 0.324617 0.162446 0.225500
H63   H     H_    0.769471 0.339336 0.192692 0.252008
H64   H     H_    0.824635 0.361688 0.263385 0.240566
N7    N     N_2   0.781242 0.562021 0.156287 -0.427783
H65   H     H_    0.756369 0.587006 0.106168 0.273836
C95   C     C_3   0.819939 0.572419 0.155213 -0.670402
H66   H     H_    0.825465 0.631526 0.152901 0.228037
H67   H     H_    0.817737 0.546295 0.098672 0.223228
H68   H     H_    0.846971 0.549505 0.211705 0.248176
N8    N     N_2   0.207990 0.438424 0.839674 -0.425677
H69   H     H_    0.219109 0.439132 0.903497 0.253077
C96   C     C_3   0.201442 0.365068 0.806933 -0.713454
H70   H     H_    0.191888 0.329725 0.843510 0.225861
H71   H     H_    0.230532 0.342064 0.812797 0.251900
H72   H     H_    0.175367 0.363851 0.741340 0.240421

loop_
_geom_bond_atom_site_label_1
_geom_bond_atom_site_label_2
_ccdc_geom_bond_type
C27   O21   A    
C83   C87   S    
N2    H45   S    
C47   O13   A    
Cu5   Cu6   S    
C65   C79   S    
C78   C82   S    
C2    C18   S    
C35   O39   A    
C64   C77   S    
Cu5   O17   S    
Cu7   Cu8   S    
C86   N3    S    
C15   C47   S    
C66   H7    S    
C80   C84   S    
Cu4   O6    S    
C16   C48   S    
Cu3   O15   S    
Cu9   Cu10  S    
O51   H35   S    
C93   H60   S    
C58   C76   S    
C32   O28   A    
C14   C46   S    
C90   H46   S    
C92   H56   S    
C83   H32   S    
C88   N7    S    
N2    C90   S    
C58   H23   S    
C2    O2    A    
C31   O27   A    
Cu7   O27   S    
C87   N5    S    
C7    C79   S    
C83   H29   S    
C94   H64   S    
C38   O46   A    
N4    C92   S    
C59   C66   S    
C7    C71   T    
Cu10  O42   S    
C53   C64   S    
C23   C39   S    
C38   O42   A    
Cu8   O23   S    
Cu4   O16   S    
C54   C63   S    
N1    H41   S    
C33   C49   S    
C22   C38   S    
C48   O15   A    
C54   H10   S    
C30   O26   A    
C96   H70   S    
C56   H17   S    
C84   H30   S    
N1    C89   S    
N6    H61   S    
C9    C13   T    
C53   C73   S    
C82   H26   S    
C5    C69   T    
N3    C91   S    
C62   O50   S    
C54   C74   S    
C55   C74   S    
C11   C15   T    
Cu1   O9    S    
Cu8   O22   S    
N8    H69   S    
C61   C77   S    
C63   O51   S    
C48   O14   A    
Cu12  O44   S    
C45   O12   A    
C95   H66   S    
C3    C19   S    
C3    O5    A    
C1    O4    A    
N7    H65   S    
C76   C88   S    
C65   H8    S    
Cu10  O35   S    
C36   C52   S    
C55   H11   S    
C59   H22   S    
C31   C71   S    
C89   H42   S    
Cu6   O26   S    
C40   O48   A    
C54   H19   S    
Cu12  O39   S    
C28   O22   A    
C95   H67   S    
C33   O35   A    
C9    C73   S    
C11   C75   S    
C63   H2    S    
C1    O1    A    
C37   O41   A    
C30   C70   S    
C29   C69   S    
C90   H47   S    
C27   O23   A    
C64   H1    S    
C31   O31   A    
C8    C72   T    
Cu1   O1    S    
C46   O10   A    
Cu12  O38   S    
O54   H38   S    
C12   C16   T    
C26   O18   A    
C61   H4    S    
C87   N8    S    
C93   H58   S    
C32   C72   S    
C10   C14   T    
C25   C41   S    
Cu3   Cu4   S    
C40   O44   A    
C43   C49   T    
C29   O25   A    
Cu11  O40   S    
Cu6   O19   S    
O49   H33   S    
Cu4   O14   S    
C28   C44   S    
C17   C21   T    
O56   H40   S    
C96   H71   S    
C4    C20   S    
C19   C23   T    
N4    H53   S    
O50   H34   S    
C94   H62   S    
C29   O29   A    
C89   H44   S    
N5    H57   S    
Cu2   O4    S    
C34   O36   A    
C39   O47   A    
Cu11  Cu12  S    
C79   C83   S    
C77   C81   S    
C28   O24   A    
C66   O54   S    
N3    H49   S    
C36   O40   A    
C21   C37   S    
N8    C96   S    
Cu2   O10   S    
Cu7   O24   S    
Cu10  O45   S    
Cu5   O25   S    
N7    C95   S    
Cu6   O29   S    
C73   C85   S    
Cu10  O34   S    
Cu1   O3    S    
C45   O9    A    
Cu3   O7    S    
C63   C78   S    
C75   C87   S    
Cu8   O28   S    
C65   O53   S    
C60   C65   S    
C82   C86   S    
C12   C76   S    
C81   H28   S    
C35   C51   S    
C35   O37   A    
C95   H68   S    
C91   H51   S    
C67   O55   S    
C60   H16   S    
C92   H55   S    
C68   H5    S    
C30   O30   A    
C57   C68   S    
C5    C77   S    
Cu4   O8    S    
C74   C86   S    
C89   H43   S    
Cu3   O13   S    
C37   O45   A    
C26   C42   S    
C8    C80   S    
C62   H3    S    
C90   H48   S    
C44   C50   T    
O53   H37   S    
C6    C70   T    
Cu3   O5    S    
C47   O16   A    
C56   C73   S    
C84   H31   S    
C81   H25   S    
C18   C22   T    
C36   O38   A    
C62   C78   S    
C33   O33   A    
C67   C80   S    
C84   C88   S    
C25   O17   A    
C39   O43   A    
C59   H15   S    
C34   C50   S    
C57   H13   S    
C93   H59   S    
C67   H6    S    
C46   O11   A    
Cu11  O37   S    
C55   C62   S    
Cu6   O18   S    
Cu9   O36   S    
C66   C80   S    
C60   C75   S    
C61   O49   S    
C2    O3    A    
Cu8   O31   S    
C25   O19   A    
C85   N1    S    
C96   H72   S    
C57   C75   S    
C85   N4    S    
C92   H54   S    
Cu11  O48   S    
C94   H63   S    
N6    C94   S    
Cu1   O11   S    
Cu7   O32   S    
C57   H24   S    
C13   C45   S    
C10   C74   S    
Cu9   O46   S    
Cu5   O30   S    
C68   C79   S    
Cu2   O2    S    
C32   O32   A    
C26   O20   A    
C24   C40   S    
C41   C51   T    
C68   O56   S    
C60   H21   S    
C20   C24   T    
C81   C85   S    
C82   H27   S    
C64   O52   S    
C6    C78   S    
C4    O6    A    
C91   H50   S    
C88   N6    S    
C27   C43   S    
C58   C67   S    
O52   H36   S    
C91   H52   S    
Cu11  O43   S    
C1    C17   S    
N5    C93   S    
O55   H39   S    
C53   H20   S    
Cu9   O33   S    
C58   H14   S    
C56   C61   S    
Cu5   O20   S    
C53   H9    S    
C3    O8    A    
Cu7   O21   S    
Cu1   Cu2   S    
C34   O34   A    
Cu12  O47   S    
C59   C76   S    
C56   H12   S    
Cu2   O12   S    
Cu9   O41   S    
C86   N2    S    
C42   C52   T    
C4    O7    A    
C55   H18   S    
