data_mof_unit_21139.cif
_audit_creation_date              2012-12-11T14:21:11-0500
_audit_creation_method            fapswitch 2.2
_symmetry_space_group_name_H-M    P1
_symmetry_Int_Tables_number       1
_space_group_crystal_system       triclinic
_cell_length_a                    21.872226
_cell_length_b                    7.199233
_cell_length_c                    14.914358
_cell_angle_alpha                 89.999396
_cell_angle_beta                  107.208427
_cell_angle_gamma                 89.999824
_cell_volume                      2243.33401022

loop_
_atom_site_label
_atom_site_type_symbol
_atom_type_description
_atom_site_fract_x
_atom_site_fract_y
_atom_site_fract_z
_atom_type_partial_charge
O1    O     O_R   0.584770 0.505770 0.002090 -0.545397
O2    O     O_R   0.415230 0.005770 0.997910 -0.545393
O3    O     O_R   0.467060 0.173340 0.861950 -0.535923
O4    O     O_R   0.532940 0.673340 0.138050 -0.535921
C1    C     C_R   0.455141 0.344706 0.825764 0.683376
C2    C     C_R   0.544859 0.844705 0.174235 0.683401
O5    O     O_R   0.587510 0.175890 0.993210 -0.551071
O6    O     O_R   0.412490 0.675890 0.006790 -0.551066
O7    O     O_R   0.536540 0.008150 0.130100 -0.536690
O8    O     O_R   0.463460 0.508150 0.869900 -0.536691
C3    C     C_R   0.612474 0.344857 0.994507 0.640500
C4    C     C_R   0.387527 0.844856 0.005494 0.640518
O9    O     O_3   0.483140 0.340040 0.044760 -0.375226
O10   O     O_3   0.516860 0.840040 0.955240 -0.375235
V1    V     V_3+5 0.503130 0.064190 0.991700 1.402628
V2    V     V_3+5 0.496870 0.564190 0.008300 1.402647
C5    C     C_2   0.210430 0.733908 0.979152 -0.078797
C6    C     C_2   0.789584 0.233926 0.020918 -0.078846
C7    C     C_2   0.178592 0.889436 0.988151 -0.256975
C8    C     C_2   0.821405 0.389438 0.011834 -0.256940
H1    H     H_    0.186750 0.600099 0.973092 0.125350
H2    H     H_    0.813288 0.100135 0.027084 0.125310
H3    H     H_    0.200778 0.023114 0.985435 0.133906
H4    H     H_    0.799203 0.523122 0.014468 0.133921
C9    C     C_2   0.275791 0.740325 0.967663 -0.198250
C10   C     C_2   0.724214 0.240353 0.032376 -0.198087
C11   C     C_2   0.322445 0.854555 0.017846 0.272588
C12   C     C_2   0.677559 0.354560 0.982169 0.272596
H5    H     H_    0.285746 0.645440 0.917063 0.103217
H6    H     H_    0.714252 0.145489 0.082980 0.103180
C13   C     C_R   0.926995 0.878952 0.723481 -0.035723
C14   C     C_R   0.073018 0.378955 0.276516 -0.035691
C15   C     C_R   0.571223 0.857993 0.276281 -0.033795
C16   C     C_R   0.428783 0.357992 0.723715 -0.033782
C17   C     C_R   0.930523 0.736164 0.578813 -0.129158
C18   C     C_R   0.069491 0.236275 0.421211 -0.129145
C19   C     C_R   0.961465 0.793028 0.670062 -0.183108
C20   C     C_R   0.038544 0.293139 0.329962 -0.183241
C21   C     C_R   0.861864 0.916373 0.683738 -0.166357
C22   C     C_R   0.138158 0.416294 0.316234 -0.166335
C23   C     C_R   0.828921 0.860004 0.590754 0.044284
C24   C     C_R   0.171103 0.359934 0.409218 0.044266
C25   C     C_R   0.864020 0.761964 0.539475 -0.001209
C26   C     C_R   0.136002 0.261964 0.460517 -0.001175
C27   C     C_R   0.761895 0.889893 0.549162 0.026978
C28   C     C_R   0.238131 0.389793 0.450800 0.026992
C29   C     C_R   0.729859 0.803876 0.461906 -0.085649
C30   C     C_R   0.270166 0.303781 0.538059 -0.085634
C31   C     C_R   0.764320 0.673477 0.423411 -0.120312
C32   C     C_R   0.235703 0.173393 0.576553 -0.120371
C33   C     C_R   0.831769 0.675894 0.453665 0.413463
C34   C     C_R   0.168255 0.175875 0.546320 0.413511
C35   C     C_R   0.725982 0.001982 0.592846 -0.146087
C36   C     C_R   0.274045 0.501874 0.407115 -0.146086
C37   C     C_R   0.659734 0.025072 0.555559 -0.031901
C38   C     C_R   0.340289 0.525000 0.444418 -0.031887
C39   C     C_R   0.628263 0.949812 0.466272 0.066088
C40   C     C_R   0.371756 0.449763 0.533712 0.066089
C41   C     C_R   0.664373 0.850535 0.416485 0.104301
C42   C     C_R   0.335648 0.350454 0.583490 0.104307
C43   C     C_R   0.562495 0.982884 0.421960 -0.180024
C44   C     C_R   0.437518 0.482897 0.578040 -0.180027
C45   C     C_R   0.534372 0.934763 0.328576 -0.154545
C46   C     C_R   0.465633 0.434805 0.671429 -0.154517
C47   C     C_R   0.635615 0.817587 0.319497 -0.218900
C48   C     C_R   0.364400 0.317508 0.680482 -0.218878
H7    H     H_    0.663791 0.772407 0.274934 0.098953
H8    H     H_    0.336224 0.272274 0.725035 0.098910
H9    H     H_    0.484397 0.966571 0.295732 0.116482
H10   H     H_    0.515603 0.466658 0.704281 0.116441
H11   H     H_    0.958469 0.661629 0.541534 0.144273
H12   H     H_    0.041542 0.161834 0.458520 0.144327
H13   H     H_    0.011721 0.760646 0.700881 0.113594
H14   H     H_    0.988279 0.260846 0.299164 0.113585
H15   H     H_    0.837429 0.974615 0.730216 0.096902
H16   H     H_    0.162595 0.474475 0.269743 0.096879
H17   H     H_    0.748612 0.074498 0.657185 0.161213
H18   H     H_    0.251416 0.574366 0.342767 0.161185
H19   H     H_    0.532230 0.053246 0.456512 0.108071
H20   H     H_    0.467780 0.553292 0.543495 0.108074
O11   O     O_R   0.036450 0.233070 0.130130 -0.532299
O12   O     O_R   0.963550 0.733070 0.869870 -0.532306
O13   O     O_R   0.912470 0.560570 0.006790 -0.544684
O14   O     O_R   0.087530 0.060570 0.993210 -0.544682
C49   C     C_R   0.887442 0.392007 0.004772 0.723183
C50   C     C_R   0.112558 0.892008 0.995228 0.723196
O15   O     O_R   0.032920 0.562940 0.138050 -0.542985
O16   O     O_R   0.967080 0.062940 0.861950 -0.542965
O17   O     O_R   0.084790 0.730500 0.002090 -0.534753
O18   O     O_R   0.915210 0.230500 0.997910 -0.534751
C51   C     C_R   0.044694 0.393866 0.174748 0.682118
C52   C     C_R   0.955307 0.893867 0.825252 0.682125
O19   O     O_3   0.016820 0.396170 0.955260 -0.376270
O20   O     O_3   0.983180 0.896170 0.044740 -0.376262
V3    V     V_3+5 0.996880 0.672090 0.008300 1.411950
V4    V     V_3+5 0.003120 0.172090 0.991700 1.411997
C53   C     C_2   0.730519 0.514350 0.365097 0.405035
H21   H     H_    0.682101 0.479402 0.364313 0.053463
O21   O     O_2   0.756101 0.418117 0.319131 -0.516152
C54   C     C_2   0.269498 0.014230 0.634844 0.404943
H22   H     H_    0.317922 0.979316 0.635645 0.053499
O22   O     O_2   0.243902 0.917923 0.680764 -0.516149
O23   O     O_3   0.313859 0.942105 0.096363 -0.549335
C55   C     C_3   0.321283 0.136912 0.093374 0.103901
H23   H     H_    0.277178 0.201333 0.101941 0.131553
H24   H     H_    0.326243 0.191247 0.025799 0.095252
C56   C     C_3   0.377892 0.197857 0.175854 -0.321624
H25   H     H_    0.374028 0.133319 0.241695 0.224458
H26   H     H_    0.423193 0.150742 0.164109 0.202844
C57   C     C_3   0.379621 0.408168 0.187445 -0.753768
H27   H     H_    0.381105 0.475832 0.121579 0.247896
H28   H     H_    0.422970 0.448932 0.244532 0.218958
H29   H     H_    0.336407 0.456630 0.205185 0.245505
O24   O     O_3   0.686153 0.442097 0.903651 -0.549357
C58   C     C_3   0.678697 0.636899 0.906602 0.103858
H30   H     H_    0.722790 0.701366 0.898016 0.131565
H31   H     H_    0.673734 0.691262 0.974169 0.095289
C59   C     C_3   0.622076 0.697742 0.824114 -0.321599
H32   H     H_    0.625950 0.633176 0.758285 0.224472
H33   H     H_    0.576785 0.650579 0.835874 0.202827
C60   C     C_3   0.620308 0.908046 0.812480 -0.753832
H34   H     H_    0.618779 0.975742 0.878316 0.247935
H35   H     H_    0.576968 0.948714 0.755353 0.218929
H36   H     H_    0.663527 0.956568 0.794772 0.245529
O25   O     O_3   0.865636 0.568557 0.407400 -0.545913
C61   C     C_3   0.892216 0.683934 0.351470 0.087114
H37   H     H_    0.938674 0.621812 0.351191 0.136151
H38   H     H_    0.903174 0.827941 0.379601 0.100116
C62   C     C_3   0.848287 0.690730 0.250254 -0.290952
H39   H     H_    0.839493 0.547202 0.221855 0.223935
H40   H     H_    0.801647 0.753860 0.248843 0.197516
C63   C     C_3   0.878112 0.804834 0.187775 -0.821399
H41   H     H_    0.885745 0.950573 0.213139 0.229513
H42   H     H_    0.845570 0.805143 0.114861 0.215060
H43   H     H_    0.924652 0.743603 0.187425 0.244301
O26   O     O_3   0.134382 0.068663 0.592625 -0.545933
C64   C     C_3   0.107920 0.184156 0.648650 0.087125
H44   H     H_    0.061455 0.122219 0.649026 0.136157
H45   H     H_    0.097000 0.328195 0.620542 0.100107
C65   C     C_3   0.151935 0.190816 0.749816 -0.290759
H46   H     H_    0.160698 0.047265 0.778190 0.223972
H47   H     H_    0.198578 0.253806 0.751135 0.197478
C66   C     C_3   0.122227 0.305027 0.812396 -0.821823
H48   H     H_    0.114565 0.450735 0.786993 0.229635
H49   H     H_    0.154859 0.305421 0.885251 0.214954
H50   H     H_    0.075719 0.243813 0.812916 0.244338
C67   C     C_2   0.625726 0.138312 0.609735 0.338543
H51   H     H_    0.575078 0.120975 0.600317 0.043130
O27   O     O_2   0.654536 0.252410 0.667492 -0.522404
C68   C     C_2   0.374298 0.638266 0.390254 0.338549
H52   H     H_    0.424943 0.620893 0.399656 0.043113
O28   O     O_2   0.345492 0.752427 0.332529 -0.522391

loop_
_geom_bond_atom_site_label_1
_geom_bond_atom_site_label_2
_ccdc_geom_bond_type
C40   C44   A    
C66   H50   S    
C48   H8    S    
O16   V4    S    
O4    V2    S    
C61   H37   S    
O15   C51   A    
C56   H26   S    
C35   H17   S    
C67   H51   S    
O1    C3    A    
C65   C66   S    
C7    C50   S    
O2    C4    A    
C16   C48   A    
C2    O7    A    
C55   H24   S    
O24   C58   S    
C15   C47   A    
C29   C31   A    
O5    C3    A    
C64   H45   S    
C44   H20   S    
C17   C19   A    
O14   C50   A    
C30   C32   A    
O14   V4    S    
C39   C41   A    
C14   C51   S    
C40   C42   A    
C66   H48   S    
C53   H21   S    
O12   C52   A    
C24   C28   A    
C27   C29   A    
C11   O23   S    
C43   C45   A    
C8    H4    S    
C59   H32   S    
C60   H36   S    
C44   C46   A    
C57   H28   S    
C57   H27   S    
C6    C10   S    
C45   H9    S    
C38   C40   A    
C63   H41   S    
C58   H31   S    
O15   V3    S    
C32   C34   A    
C56   H25   S    
C21   H15   S    
C17   C25   A    
C15   C45   A    
C62   C63   S    
C26   C34   A    
C22   C24   A    
C42   C48   A    
O6    V2    S    
C8    C49   S    
C23   C25   A    
C24   C26   A    
C16   C46   A    
C55   H23   S    
C53   O21   D    
C30   C42   A    
C28   C30   A    
C35   C37   A    
C9    H5    S    
C64   C65   S    
C36   C38   A    
C4    C11   S    
C33   O25   S    
O16   C52   A    
C65   H46   S    
C21   C23   A    
O11   V4    S    
C61   C62   S    
C47   H7    S    
C29   C41   A    
C5    H1    S    
C13   C19   A    
C59   C60   S    
O17   V3    S    
C7    H3    S    
C46   H10   S    
C37   C67   S    
O10   V1    S    
O6    C4    A    
C58   C59   S    
O13   V3    S    
C1    C16   S    
C28   C36   A    
C54   O22   D    
O1    V2    S    
O18   V4    S    
O2    V1    S    
C57   H29   S    
C60   H34   S    
C12   O24   S    
O4    C2    A    
O13   C49   A    
C10   H6    S    
O19   V4    S    
C14   C20   A    
C37   C39   A    
O25   C61   S    
C34   O26   S    
C56   C57   S    
C68   O28   D    
C18   C26   A    
C38   C68   S    
O3    V1    S    
C62   H39   S    
C20   H14   S    
C66   H49   S    
C19   H13   S    
C61   H38   S    
O12   V3    S    
C67   O27   D    
C6    H2    S    
C10   C12   D    
C65   H47   S    
O26   C64   S    
O3    C1    A    
C50   O17   A    
C49   O18   A    
C39   C43   A    
C9    C11   D    
C64   H44   S    
C32   C54   S    
C2    C15   S    
C5    C9    S    
C18   C20   A    
O7    V1    S    
C1    O8    A    
C17   H11   S    
O8    V2    S    
C41   C47   A    
C25   C33   A    
C58   H30   S    
C3    C12   S    
C43   H19   S    
C63   H43   S    
O5    V1    S    
C54   H22   S    
C5    C7    D    
C13   C21   A    
C6    C8    D    
C14   C22   A    
O20   V3    S    
C59   H33   S    
C60   H35   S    
C31   C53   S    
C31   C33   A    
C27   C35   A    
O11   C51   A    
C22   H16   S    
C63   H42   S    
C13   C52   S    
O9    V2    S    
O23   C55   S    
C23   C27   A    
C68   H52   S    
C36   H18   S    
C55   C56   S    
C18   H12   S    
C62   H40   S    
