data_mof_unit_14459.cif
_audit_creation_date              2012-12-10T18:43:42-0500
_audit_creation_method            fapswitch 2.2
_symmetry_space_group_name_H-M    P1
_symmetry_Int_Tables_number       1
_space_group_crystal_system       triclinic
_cell_length_a                    10.394971
_cell_length_b                    10.639007
_cell_length_c                    9.903526
_cell_angle_alpha                 90.383679
_cell_angle_beta                  103.227994
_cell_angle_gamma                 90.655588
_cell_volume                      1066.07372231

loop_
_atom_site_label
_atom_site_type_symbol
_atom_type_description
_atom_site_fract_x
_atom_site_fract_y
_atom_site_fract_z
_atom_type_partial_charge
C1    C     C_R   0.502877 0.260472 0.500453 0.892917
C2    C     C_2   0.885330 0.526705 0.584549 0.113772
C3    C     C_2   0.072049 0.613024 0.503633 0.318459
C4    C     C_2   0.933558 0.613236 0.509057 0.321559
C5    C     C_R   0.407006 0.065793 0.402333 -0.187995
C6    C     C_R   0.593423 0.934172 0.597181 -0.156108
C7    C     C_R   0.401114 0.936292 0.400014 0.176307
C8    C     C_R   0.599651 0.063680 0.599061 0.148931
C9    C     C_R   0.495641 0.871986 0.498903 -0.032497
C10   C     C_R   0.504579 0.127984 0.500822 -0.065729
C11   C     C_3   0.708444 0.632794 0.913100 -0.732455
C12   C     C_R   0.497171 0.739534 0.499506 0.915649
C13   C     C_3   0.291385 0.367490 0.086753 -0.700244
C14   C     C_3   0.292958 0.869545 0.295270 -0.773119
C15   C     C_3   0.709245 0.130563 0.701860 -0.752720
C16   C     C_R   0.256785 0.507018 0.443478 0.904126
C17   C     C_R   0.743407 0.505286 0.556926 0.907154
C18   C     C_R   0.595355 0.563148 0.096718 -0.045071
C19   C     C_R   0.404573 0.436816 0.903134 -0.039154
C20   C     C_R   0.596558 0.563690 0.953787 0.215169
C21   C     C_R   0.403400 0.436327 0.046135 0.188869
C22   C     C_2   0.115956 0.532645 0.417832 0.095483
Cl1   Cl    Cl    0.835175 0.731999 0.414596 -0.612891
Cl2   Cl    Cl    0.176657 0.718777 0.618594 -0.565905
Cl3   Cl    Cl    0.988931 0.425494 0.700598 -0.611335
Cl4   Cl    Cl    0.006579 0.444797 0.287718 -0.596956
H1    H     H_    0.671497 0.612509 0.171462 0.205047
H2    H     H_    0.238127 0.304343 0.001938 0.220204
H3    H     H_    0.238006 0.803731 0.348741 0.249118
H4    H     H_    0.220877 0.936693 0.235857 0.243689
H5    H     H_    0.336024 0.816513 0.219771 0.252002
H6    H     H_    0.763512 0.195400 0.646419 0.255816
H7    H     H_    0.667761 0.184702 0.777768 0.252297
H8    H     H_    0.781527 0.063410 0.760961 0.243285
H9    H     H_    0.328382 0.387371 0.828108 0.180971
H10   H     H_    0.334550 0.118749 0.329023 0.152818
H11   H     H_    0.666082 0.881209 0.670265 0.151281
H12   H     H_    0.672046 0.693101 0.822626 0.246405
H13   H     H_    0.761760 0.695791 0.998048 0.221325
H14   H     H_    0.781545 0.564669 0.892213 0.274718
H15   H     H_    0.327538 0.307436 0.177491 0.247323
H16   H     H_    0.218394 0.435903 0.107180 0.282394
N1    N     N_R   0.499970 0.499970 0.857200 -0.096345
N2    N     N_R   0.500030 0.500030 0.142800 -0.103144
O1    O     O_R   0.499990 0.316750 0.614620 -0.611340
O2    O     O_R   0.500010 0.683250 0.385380 -0.599412
O3    O     O_R   0.499990 0.316780 0.385290 -0.618520
O4    O     O_R   0.500010 0.683220 0.614710 -0.605053
O5    O     O_R   0.317810 0.500000 0.571850 -0.569267
O6    O     O_R   0.682190 0.500000 0.428150 -0.572231
O7    O     O_R   0.317810 0.500030 0.342520 -0.611536
O8    O     O_R   0.682190 0.499970 0.657480 -0.610057
Zn1   Zn    Zn3+2 0.500000 0.499980 0.653120 0.998918
Zn2   Zn    Zn3+2 0.500000 0.500020 0.346880 0.993073

loop_
_geom_bond_atom_site_label_1
_geom_bond_atom_site_label_2
_ccdc_geom_bond_type
C17   O6    A    
C11   H12   S    
C2    C4    D    
C13   H2    S    
C18   N2    A    
C2    Cl3   S    
C21   N2    A    
C5    C7    A    
C15   H8    S    
C16   O7    A    
C14   H5    S    
C12   O4    A    
O7    Zn2   S    
O2    Zn2   S    
C6    C9    A    
C13   H15   S    
C6    H11   S    
O1    Zn1   S    
C5    C10   A    
C19   H9    S    
C16   O5    A    
C2    C17   S    
C11   H13   S    
C1    O1    A    
C3    Cl2   S    
O6    Zn2   S    
C14   H4    S    
O3    Zn2   S    
O5    Zn1   S    
C17   O8    A    
C12   O2    A    
C13   H16   S    
C19   C21   A    
C19   N1    A    
C8    C15   S    
C18   C20   A    
O4    Zn1   S    
C9    C12   S    
C11   C20   S    
C1    C10   S    
C14   H3    S    
C13   C21   S    
C11   H14   S    
C5    H10   S    
N2    Zn2   S    
C15   H6    S    
C20   N1    A    
O8    Zn1   S    
C8    C10   A    
C22   Cl4   S    
C7    C9    A    
C4    Cl1   S    
C1    O3    A    
C3    C22   D    
C6    C8    A    
N1    Zn1   S    
C7    C14   S    
C18   H1    S    
C3    C4    S    
C16   C22   S    
C15   H7    S    
