data_mof_unit_26790.cif
_audit_creation_date              2013-03-05T16:07:49-0500
_audit_creation_method            fapswitch 2.2
_symmetry_space_group_name_H-M    P1
_symmetry_Int_Tables_number       1
_space_group_crystal_system       triclinic
_cell_length_a                    8.229305
_cell_length_b                    15.044489
_cell_length_c                    18.83919
_cell_angle_alpha                 101.814341
_cell_angle_beta                  92.027343
_cell_angle_gamma                 98.707527
_cell_volume                      2251.35994318

loop_
_atom_site_label
_atom_site_type_symbol
_atom_site_description
_atom_site_fract_x
_atom_site_fract_y
_atom_site_fract_z
_atom_type_partial_charge
P1    P     P_3+3 0.039440 0.410950 0.333260 0.513870
O1    O     O_2   0.871970 0.437290 0.322980 -0.395593
O2    O     O_3   0.121420 0.444460 0.412460 -0.336944
O3    O     O_3   0.661430 0.607560 0.372520 -0.367263
O4    O     O_2   0.763321 0.535650 0.246124 -0.404126
O5    O     O_3   0.016385 0.290712 0.300344 -0.592463
O6    O     O_3   0.717856 0.704619 0.260167 -0.496587
H1    H     H_    0.715804 0.786124 0.362359 0.117646
C1    C     C_3   0.682098 0.862805 0.279482 -0.080482
H2    H     H_    0.816403 0.889582 0.282922 0.191655
P2    P     P_3+3 0.676740 0.714970 0.563520 0.444492
P3    P     P_3+3 0.131176 0.770430 0.404531 0.506052
O7    O     O_2   0.852280 0.726960 0.542370 -0.384022
O8    O     O_3   0.083990 0.657360 0.410240 -0.365638
O9    O     O_2   0.018709 0.820547 0.457811 -0.351816
O10   O     O_3   0.696451 0.750527 0.658630 -0.598518
O11   O     O_3   0.051392 0.772755 0.317540 -0.452560
C2    C     C_3   0.146138 0.726494 0.266011 0.440789
H3    H     H_    0.148493 0.655229 0.273176 0.057087
H4    H     H_    0.273133 0.765203 0.270592 0.068691
C3    C     C_3   0.072658 0.721328 0.189662 -0.735153
H5    H     H_    0.955386 0.671881 0.178424 0.254540
H6    H     H_    0.049501 0.790337 0.183428 0.296177
C4    C     C_3   0.167022 0.765522 0.657801 0.623021
H7    H     H_    0.044658 0.740717 0.630295 0.151615
C5    C     C_3   0.178247 0.866257 0.701885 -0.432072
H8    H     H_    0.250845 0.875217 0.754917 0.229658
H9    H     H_    0.243883 0.917619 0.672733 0.197335
Ba1   Ba    Ba6+2 0.853510 0.540900 0.466480 1.583251
C6    C     C_3   0.895765 0.240463 0.333345 0.566354
H10   H     H_    0.791483 0.277704 0.346389 0.030528
C7    C     C_3   0.831133 0.147161 0.281464 -0.106242
H11   H     H_    0.749157 0.103408 0.311016 0.102479
H12   H     H_    0.936189 0.110923 0.264414 0.178041
C8    C     C_3   0.715110 0.676409 0.691617 0.380077
H13   H     H_    0.838090 0.657302 0.681960 0.010038
H14   H     H_    0.622619 0.614977 0.667445 0.106946
C9    C     C_3   0.689425 0.700386 0.774470 0.016805
H15   H     H_    0.618478 0.637102 0.786782 0.152014
P4    P     P_3+3 0.150270 0.589130 0.666750 0.454732
O12   O     O_2   0.317740 0.562750 0.677070 -0.356766
O13   O     O_3   0.068290 0.555610 0.587550 -0.390204
O14   O     O_3   0.528280 0.392520 0.627490 -0.359761
O15   O     O_3   0.198570 0.708501 0.705129 -0.618714
P5    P     P_3+3 0.066216 0.224702 0.589277 0.555688
O16   O     O_3   0.609300 0.386850 0.459730 -0.397479
O17   O     O_3   0.105720 0.342720 0.589770 -0.302901
O18   O     O_2   0.188179 0.180791 0.537957 -0.302679
O19   O     O_3   0.136120 0.207785 0.673271 -0.513354
Ba2   Ba    Ba6+2 0.336320 0.459170 0.533530 1.604059
P6    P     P_3+3 0.641205 0.597808 0.279339 0.458054
C10   C     C_3   0.653005 0.773441 0.307178 0.339307
H16   H     H_    0.519015 0.753586 0.310655 -0.045065
H17   H     H_    0.621716 0.915291 0.314808 0.076996
O20   O     O_3   0.580410 0.613230 0.540280 -0.396791
C11   C     C_3   0.449533 0.313260 0.311352 0.388224
H18   H     H_    0.340428 0.336517 0.337533 0.124783
H19   H     H_    0.553617 0.371649 0.320895 0.103050
C12   C     C_3   0.406348 0.282854 0.229856 -0.836615
H20   H     H_    0.308522 0.221108 0.218260 0.298135
H21   H     H_    0.361229 0.338694 0.208437 0.188453
H22   H     H_    0.517351 0.266944 0.201283 0.270298
P7    P     P_3+3 0.518324 0.271529 0.433420 0.449624
O21   O     O_2   0.337420 0.273080 0.457680 -0.280357
O22   O     O_3   0.493582 0.239194 0.338363 -0.570765
H23   H     H_    0.160054 0.697366 0.149231 0.193557
C13   C     C_3   0.012398 0.215378 0.722181 0.170366
H24   H     H_    0.986556 0.287394 0.734724 0.089844
H25   H     H_    0.898249 0.165971 0.699969 0.023671
C14   C     C_3   0.076551 0.190735 0.791679 -0.061510
H26   H     H_    0.185254 0.242324 0.817099 0.156040
H27   H     H_    0.116807 0.122396 0.777417 0.112766
P8    P     P_3+3 0.548467 0.402822 0.721247 0.452589
C15   C     C_3   0.558920 0.232923 0.731188 0.682703
H28   H     H_    0.691091 0.263133 0.731340 0.008228
O23   O     O_2   0.435703 0.471080 0.753767 -0.395275
O24   O     O_3   0.454768 0.299938 0.743170 -0.490694
H29   H     H_    0.624072 0.125930 0.784015 0.250889
C16   C     C_3   0.543708 0.179568 0.792374 -0.846853
H30   H     H_    0.414661 0.145218 0.793542 0.228975
H31   H     H_    0.580678 0.226969 0.845940 0.263465
C17   C     C_R   0.988553 0.461795 0.047787 0.002245
C18   C     C_R   0.884849 0.419453 0.093432 0.097229
C19   C     C_R   0.720416 0.383169 0.068790 -0.103979
C20   C     C_R   0.660193 0.388032 0.999487 -0.178642
C21   C     C_R   0.764276 0.427156 0.952621 0.167343
C22   C     C_R   0.929138 0.464110 0.976570 0.061344
C23   C     C_R   0.707214 0.426880 0.881509 -0.225125
C24   C     C_R   0.814214 0.459139 0.831840 0.005425
C25   C     C_R   0.978483 0.499861 0.856298 0.019389
C26   C     C_R   0.034530 0.502732 0.929263 -0.004295
C27   C     C_R   0.762155 0.451061 0.758259 0.123327
C28   C     C_R   0.871935 0.483474 0.710286 -0.511147
C29   C     C_R   0.031241 0.530231 0.733726 0.277461
C30   C     C_R   0.085674 0.539172 0.808676 -0.044659
C31   C     C_R   0.151781 0.500783 0.072934 -0.009983
C32   C     C_R   0.209832 0.501370 0.145173 -0.004560
C33   C     C_R   0.104201 0.460443 0.192301 -0.062349
C34   C     C_R   0.945484 0.415122 0.163311 -0.055257
H32   H     H_    0.637711 0.351696 0.103408 0.140980
H33   H     H_    0.532694 0.359575 0.982011 0.140521
H34   H     H_    0.828853 0.477261 0.654289 0.175346
H35   H     H_    0.579554 0.398877 0.865154 0.167718
H36   H     H_    0.864230 0.378997 0.195380 0.183304
C35   C     C_R   0.242122 0.587029 0.838392 -0.137220
C36   C     C_R   0.300534 0.585365 0.909254 0.120103
C37   C     C_R   0.196975 0.542713 0.954752 0.010168
C38   C     C_R   0.255831 0.541342 0.026246 0.011144
C39   C     C_R   0.462698 0.624749 0.935233 -0.193215
C40   C     C_R   0.522275 0.621399 0.004748 -0.126542
C41   C     C_R   0.419394 0.580545 0.050859 0.115817
C42   C     C_R   0.373849 0.542797 0.169788 -0.047535
C43   C     C_R   0.477759 0.579683 0.121335 -0.196614
C44   C     C_R   0.428643 0.547500 0.242473 0.183228
C45   C     C_R   0.320809 0.512841 0.290019 -0.549372
C46   C     C_R   0.160623 0.467701 0.266662 0.268352
H37   H     H_    0.322331 0.623814 0.806382 0.173620
H38   H     H_    0.544824 0.657497 0.901805 0.135229
H39   H     H_    0.648828 0.651638 0.022673 0.157558
H40   H     H_    0.604755 0.609152 0.137784 0.192007
H41   H     H_    0.364909 0.517457 0.345637 0.175694
C47   C     C_R   0.354365 0.814950 0.433082 0.107356
H42   H     H_    0.393559 0.682761 0.452242 0.170968
C48   C     C_R   0.584360 0.789458 0.509215 0.339809
C49   C     C_R   0.755544 0.230942 0.527172 -0.370474
C50   C     C_R   0.853972 0.173513 0.551193 0.241506
C51   C     C_R   0.800182 0.078150 0.536125 -0.253316
C52   C     C_R   0.646006 0.039288 0.496936 0.088390
C53   C     C_R   0.559069 0.098811 0.466405 -0.083153
C54   C     C_R   0.576618 0.943666 0.485789 0.036353
C55   C     C_R   0.424809 0.909229 0.441697 -0.187161
C56   C     C_R   0.349547 0.971301 0.409019 0.319965
C57   C     C_R   0.415667 0.062938 0.422463 -0.158527
C58   C     C_R   0.648973 0.882905 0.520879 -0.265680
C59   C     C_R   0.444734 0.755005 0.460562 -0.442966
C60   C     C_R   0.616637 0.193984 0.479935 0.173474
H43   H     H_    0.753895 0.906850 0.559506 0.135209
H44   H     H_    0.795600 0.304650 0.539598 0.174833
H45   H     H_    0.882421 0.036465 0.553915 0.145676
H46   H     H_    0.349386 0.105550 0.396530 0.225344
C61   C     C_3   0.009406 0.894246 0.715037 -0.861812
H47   H     H_    0.948451 0.901066 0.663174 0.260516
H48   H     H_    0.932759 0.841636 0.737522 0.291905
H49   H     H_    0.021326 0.961133 0.754763 0.267058
N1    N     N_R   0.970970 0.224958 0.399671 0.183259
O25   O     O_R   0.020076 0.295457 0.451909 -0.347653
O26   O     O_R   0.018856 0.146861 0.402137 -0.396588
N2    N     N_R   0.740234 0.157398 0.216531 0.255122
O27   O     O_R   0.815338 0.200949 0.170893 -0.383805
O28   O     O_R   0.598609 0.104385 0.195617 -0.299764
C62   C     C_3   0.849738 0.722601 0.824285 -0.905667
H50   H     H_    0.949276 0.688425 0.798348 0.235490
H51   H     H_    0.826417 0.698587 0.875918 0.244126
H52   H     H_    0.896100 0.797864 0.840047 0.282426
C63   C     C_3   0.586805 0.778150 0.794653 -0.766721
H53   H     H_    0.558606 0.788097 0.852669 0.237863
H54   H     H_    0.654088 0.844284 0.785498 0.266673
H55   H     H_    0.469684 0.761240 0.760861 0.260705
N3    N     N_R   0.615804 0.847880 0.204143 0.276832
O29   O     O_R   0.486647 0.882773 0.188774 -0.304018
O30   O     O_R   0.695103 0.807391 0.151412 -0.368896
N4    N     N_R   0.950074 0.187679 0.843553 0.237946
O31   O     O_R   0.894426 0.110624 0.862267 -0.378792
O32   O     O_R   0.907412 0.263704 0.877913 -0.421673
C64   C     C_3   0.505698 0.166509 0.658357 -0.844114
H56   H     H_    0.594926 0.118084 0.645651 0.176388
H57   H     H_    0.382156 0.125211 0.659699 0.272770
H58   H     H_    0.500028 0.206160 0.615035 0.259637
N5    N     N_R   0.208902 0.944994 0.358491 0.244873
O33   O     O_R   0.067778 0.963462 0.381238 -0.351856
O34   O     O_R   0.232186 0.939034 0.289821 -0.364675
C65   C     C_3   0.296134 0.764617 0.602754 -0.919759
H59   H     H_    0.418427 0.794072 0.632029 0.238711
H60   H     H_    0.298472 0.693991 0.571467 0.261162
H61   H     H_    0.265927 0.808411 0.565042 0.212276

loop_
_geom_bond_atom_site_label_1
_geom_bond_atom_site_label_2
_geom_bond_distance
_ccdc_geom_bond_type
O14   P8    1.740910 S    
P7    O22   1.752877 S    
C28   C29   1.400400 A    
C45   H41   1.081718 S    
C22   C26   1.413604 A    
Ba1   O13   2.786567 S    
C63   H54   1.111972 S    
C2    C3    1.522821 S    
Ba2   O21   2.872344 S    
N5    O33   1.301438 A    
O12   Ba2   2.853093 S    
P2    C48   1.884877 S    
C47   C55   1.422795 A    
C52   C53   1.421392 A    
C58   H43   1.076503 S    
C42   C44   1.410803 A    
N1    O25   1.292824 A    
P2    O20   1.580054 S    
C25   C30   1.431115 A    
C20   C21   1.404750 A    
C65   H59   1.113097 S    
C5    H8    1.118709 S    
C64   H56   1.109148 S    
O1    Ba1   2.852458 S    
O7    Ba1   2.872353 S    
C8    H14   1.109505 S    
C4    C5    1.559427 S    
O6    C10   1.402308 S    
C2    H3    1.110601 S    
C61   H48   1.099437 S    
O10   C8    1.407834 S    
C6    H10   1.102203 S    
C3    H23   1.110045 S    
C21   C23   1.402822 A    
C36   C37   1.408561 A    
C1    N3    1.462929 S    
C11   O22   1.404776 S    
C53   C60   1.405761 A    
C11   H18   1.107995 S    
P1    O1    1.507239 D    
C62   H52   1.113259 S    
O2    Ba1   2.919624 S    
C40   C41   1.400823 A    
C30   C35   1.411603 A    
C19   C20   1.399965 A    
C8    H13   1.104369 S    
C56   C57   1.371486 A    
C15   O24   1.408606 S    
P3    O11   1.752823 S    
C62   H50   1.107718 S    
N3    O30   1.304689 A    
C14   H26   1.113201 S    
P1    C46   1.888647 S    
C5    C61   1.525793 S    
C1    H2    1.112418 S    
H1    C10   1.111348 S    
O3    Ba1   2.765246 S    
C65   H61   1.108783 S    
P4    O13   1.566323 S    
C34   H36   1.077253 S    
C31   C38   1.412097 A    
C12   H20   1.112100 S    
C64   H57   1.112325 S    
C18   C34   1.408828 A    
C3    H5    1.110515 S    
C63   H55   1.102260 S    
N5    O34   1.301401 A    
C35   H37   1.076958 S    
C54   C58   1.418305 A    
C1    C10   1.528298 S    
C51   H45   1.078042 S    
C9    C63   1.538243 S    
C14   N4    1.454758 S    
C42   C43   1.411147 A    
N1    O26   1.303512 A    
O2    Ba2   2.787156 S    
C65   H60   1.107827 S    
C39   H38   1.073502 S    
C32   C33   1.428088 A    
O17   Ba2   2.772857 S    
N4    O32   1.298058 A    
Ba1   Ba2   4.544648 S    
P5    O17   1.753999 S    
C12   H21   1.108629 S    
P6    C44   1.847421 S    
C17   C31   1.405502 A    
C15   H28   1.113189 S    
O3    P6    1.731285 S    
P1    O5    1.766681 S    
C19   H32   1.083062 S    
C26   C37   1.404375 A    
C8    C9    1.557903 S    
C4    H7    1.091741 S    
C61   H49   1.113049 S    
P4    C29   1.902407 S    
C16   H31   1.112374 S    
C32   C42   1.417025 A    
H29   C16   1.109178 S    
Ba1   O20   2.917206 S    
C13   H24   1.115077 S    
H42   C59   1.081759 S    
P1    O2    1.566310 S    
C7    H12   1.112865 S    
C40   H39   1.083680 S    
C43   H40   1.079503 S    
P2    O10   1.756040 S    
C33   C46   1.437360 A    
N3    O29   1.303261 A    
P3    O9    1.549106 D    
P5    O19   1.744846 S    
P5    C50   1.853736 S    
C37   C38   1.420343 A    
C31   C32   1.424149 A    
P1    Ba1   3.410336 S    
O11   C2    1.405668 S    
C41   C43   1.399117 A    
N2    O27   1.302376 A    
C24   C27   1.411775 A    
O13   Ba2   2.920455 S    
C53   C57   1.387190 A    
C49   C60   1.393106 A    
P4    O12   1.507609 D    
O5    C6    1.397216 S    
P3    O8    1.712864 S    
C17   C18   1.408970 A    
C64   H58   1.108689 S    
C15   C16   1.532112 S    
C3    H6    1.111865 S    
C49   C50   1.397646 A    
C4    O15   1.400915 S    
P8    O23   1.536930 D    
C16   H30   1.111515 S    
C18   C19   1.404525 A    
C56   N5    1.425292 S    
O8    Ba1   2.772351 S    
C55   C56   1.420632 A    
C9    C62   1.543806 S    
C23   H35   1.079822 S    
C20   H33   1.083697 S    
C10   H16   1.105772 S    
C6    N1    1.451590 S    
C45   C46   1.399305 A    
N4    O31   1.302281 A    
P5    O18   1.544799 D    
C12   H22   1.108929 S    
O19   C13   1.398988 S    
C48   C59   1.407004 A    
C21   C22   1.406734 A    
P8    C27   1.850636 S    
N2    O28   1.306540 A    
C52   C54   1.434843 A    
C28   H34   1.081875 S    
C11   C12   1.522281 S    
O14   Ba2   2.764562 S    
C44   C45   1.403233 A    
C51   C52   1.424438 A    
C7    N2    1.458418 S    
C49   H44   1.081983 S    
C35   C36   1.409184 A    
O16   Ba2   2.916313 S    
C5    H9    1.121973 S    
Ba2   O20   2.806169 S    
C38   C41   1.406449 A    
C48   C58   1.395121 A    
Ba1   O16   2.806645 S    
C13   C14   1.529563 S    
C7    H11   1.113786 S    
C54   C55   1.439958 A    
O6    P6    1.748543 S    
C61   H47   1.112980 S    
P7    C60   1.854111 S    
C6    C7    1.543984 S    
P2    O7    1.506434 D    
C25   C26   1.424406 A    
C9    H15   1.110322 S    
O16   P7    1.744858 S    
C50   C51   1.402466 A    
P4    Ba2   3.410964 S    
C27   C28   1.405561 A    
C11   H19   1.110970 S    
C2    H4    1.107944 S    
C62   H51   1.117884 S    
C29   C30   1.439350 A    
C4    C65   1.510342 S    
C47   C59   1.414697 A    
P7    O21   1.574794 D    
P4    O15   1.771369 S    
P3    C47   1.876553 S    
C23   C24   1.414679 A    
P2    Ba1   3.420170 S    
C57   H46   1.078176 S    
C33   C34   1.412995 A    
C63   H53   1.110097 S    
P8    O24   1.756097 S    
O4    P6    1.537973 D    
C14   H27   1.111432 S    
C1    H17   1.113705 S    
C13   H25   1.115091 S    
C24   C25   1.415850 A    
C39   C40   1.395373 A    
C15   C64   1.528528 S    
C17   C22   1.420638 A    
C36   C39   1.402537 A    
