data_mof_unit_57674.cif
_audit_creation_date              2012-12-10T19:05:23-0500
_audit_creation_method            fapswitch 2.2
_symmetry_space_group_name_H-M    P1
_symmetry_Int_Tables_number       1
_space_group_crystal_system       triclinic
_cell_length_a                    9.627826
_cell_length_b                    11.033158
_cell_length_c                    17.140191
_cell_angle_alpha                 95.979576
_cell_angle_beta                  83.795171
_cell_angle_gamma                 91.580442
_cell_volume                      1799.96269246

loop_
_atom_site_label
_atom_site_type_symbol
_atom_type_description
_atom_site_fract_x
_atom_site_fract_y
_atom_site_fract_z
_atom_type_partial_charge
C1    C     C_R   0.502039 0.736921 0.498109 0.863881
C2    C     C_R   0.544309 0.527556 0.265288 -0.254572
C3    C     C_R   0.387106 0.937529 0.518477 -0.113963
C4    C     C_R   0.480355 0.493358 0.650201 0.913320
C5    C     C_R   0.506002 0.868853 0.492510 -0.168094
C6    C     C_R   0.623028 0.933301 0.455849 -0.021764
C7    C     C_R   0.621501 0.062902 0.461156 -0.241441
C8    C     C_R   0.499646 0.128331 0.489720 -0.095403
C9    C     C_R   0.382376 0.058678 0.510612 -0.091058
C10   C     C_3   0.227654 0.066757 0.531544 0.755292
C11   C     C_3   0.238556 0.936190 0.557875 0.834842
C12   C     C_R   0.361331 0.543438 0.785738 0.362091
C13   C     C_R   0.936849 0.446674 0.437449 0.204590
C14   C     C_R   0.915285 0.573630 0.554178 0.051410
C15   C     C_R   0.062427 0.565639 0.559028 -0.042492
C16   C     C_R   0.499252 0.262228 0.496339 0.824347
C17   C     C_R   0.084010 0.453348 0.434555 0.157875
C18   C     C_3   0.092454 0.325844 0.396683 -0.272087
C19   C     C_3   0.933336 0.317581 0.404757 -0.501323
C20   C     C_R   0.521571 0.506819 0.349860 0.904410
C21   C     C_R   0.473437 0.491919 0.737076 -0.324992
C22   C     C_R   0.584957 0.448413 0.772851 -0.100809
C23   C     C_R   0.463066 0.530755 0.136550 0.340983
C24   C     C_R   0.594622 0.481053 0.855007 0.351151
C25   C     C_R   0.501357 0.570883 0.896681 -0.206229
C26   C     C_R   0.381365 0.598437 0.860791 0.411100
C27   C     C_2   0.675708 0.355360 0.725907 0.892050
C28   C     C_3   0.934458 0.523431 0.118705 -0.173199
C29   C     C_2   0.738238 0.872269 0.402257 0.892026
C30   C     C_3   0.051939 0.190434 0.601889 -0.233320
C31   C     C_3   0.224337 0.061893 0.390227 -0.408291
C32   C     C_3   0.117493 0.953965 0.686292 -0.217573
C33   C     C_3   0.153656 0.805163 0.449114 -0.212156
C34   C     C_R   0.433834 0.528271 0.218233 0.404479
C35   C     C_2   0.836449 0.677162 0.598380 0.933368
C36   C     C_2   0.113945 0.631051 0.630798 0.974495
C37   C     C_2   0.159678 0.315357 0.312377 0.963998
C38   C     C_3   0.235392 0.635989 0.253678 -0.244067
C39   C     C_3   0.799140 0.709318 0.955797 -0.289770
C40   C     C_3   0.279899 0.783554 0.873832 -0.227282
C41   C     C_3   0.374263 0.376509 0.057661 -0.265389
C42   C     C_3   0.170711 0.423300 0.771389 -0.247676
C43   C     C_3   0.447050 0.808969 0.048950 -0.347359
C44   C     C_3   0.811297 0.400231 0.870786 -0.177921
C45   C     C_R   0.680452 0.553067 0.231773 -0.332687
C46   C     C_R   0.707329 0.578128 0.152972 0.460472
C47   C     C_R   0.597133 0.570682 0.104395 -0.201470
C48   C     C_2   0.515075 0.626109 0.980285 0.457026
C49   C     C_2   0.623604 0.600570 0.020456 0.464274
Cu1   Cu    Cu3+1 0.359330 0.500020 0.500000 1.024016
Cu2   Cu    Cu3+1 0.640670 0.499980 0.500000 1.012720
H1    H     H_    0.711878 0.112403 0.437186 0.191353
H2    H     H_    0.922015 0.892561 0.336017 0.315158
H3    H     H_    0.981559 0.110304 0.590307 0.167416
H4    H     H_    0.034593 0.261167 0.562832 0.199740
H5    H     H_    0.022233 0.229940 0.663336 0.160812
H6    H     H_    0.282767 0.976769 0.374542 0.141440
H7    H     H_    0.301976 0.137074 0.386670 0.215535
H8    H     H_    0.151381 0.067307 0.344944 0.218237
H9    H     H_    0.024628 0.932131 0.653880 0.178428
H10   H     H_    0.112134 0.048845 0.714675 0.165626
H11   H     H_    0.111955 0.895500 0.735151 0.149828
H12   H     H_    0.141507 0.272417 0.436025 0.213799
H13   H     H_    0.111146 0.711341 0.441133 0.173300
H14   H     H_    0.261737 0.801756 0.420238 0.120363
H15   H     H_    0.086348 0.858933 0.418444 0.220481
H16   H     H_    0.787033 0.854367 0.602509 0.313771
H17   H     H_    0.062176 0.694965 0.745400 0.337221
H18   H     H_    0.332763 0.273844 0.238001 0.319881
H19   H     H_    0.298263 0.709222 0.283839 0.110880
H20   H     H_    0.130908 0.633062 0.287853 0.165872
H21   H     H_    0.219823 0.658513 0.193529 0.207831
H22   H     H_    0.779320 0.786634 0.002571 0.159569
H23   H     H_    0.883079 0.304936 0.349048 0.219269
H24   H     H_    0.745218 0.723412 0.903381 0.140974
H25   H     H_    0.913040 0.708484 0.936853 0.217345
H26   H     H_    0.381782 0.830630 0.882092 0.145113
H27   H     H_    0.196514 0.840166 0.908192 0.164628
H28   H     H_    0.261161 0.777788 0.810700 0.173586
H29   H     H_    0.291837 0.352390 0.017978 0.182930
H30   H     H_    0.362343 0.313568 0.104567 0.148869
H31   H     H_    0.477029 0.363010 0.021766 0.176698
H32   H     H_    0.065525 0.418952 0.750646 0.210552
H33   H     H_    0.157919 0.406732 0.834770 0.143375
H34   H     H_    0.891182 0.257037 0.449799 0.214000
H35   H     H_    0.233064 0.349686 0.735584 0.183195
H36   H     H_    0.511107 0.854808 0.002129 0.133260
H37   H     H_    0.505740 0.806410 0.101094 0.150353
H38   H     H_    0.353228 0.864998 0.068084 0.198986
H39   H     H_    0.852543 0.478969 0.838989 0.201066
H40   H     H_    0.831558 0.312301 0.834206 0.139670
H41   H     H_    0.871686 0.397714 0.922153 0.188878
H42   H     H_    0.766483 0.559820 0.267854 0.224478
H43   H     H_    0.693821 0.182204 0.675800 0.318405
H44   H     H_    0.033500 0.552511 0.086019 0.223434
H45   H     H_    0.895772 0.440001 0.084711 0.152921
H46   H     H_    0.959169 0.502474 0.177637 0.175677
N1    N     N_R   0.852130 0.499070 0.499500 -0.231706
N2    N     N_R   0.148040 0.499110 0.499500 -0.247432
O1    O     O_R   0.381190 0.680360 0.500000 -0.552624
O2    O     O_R   0.623707 0.236892 0.710109 -0.763641
O3    O     O_3   0.838827 0.619621 0.125460 -0.549925
O4    O     O_2   0.723648 0.768091 0.372086 -0.615730
O5    O     O_R   0.859026 0.938787 0.379715 -0.765118
O6    O     O_3   0.194895 0.160116 0.593874 -0.604233
O7    O     O_3   0.146108 0.068207 0.466029 -0.607758
O8    O     O_3   0.247609 0.935941 0.640182 -0.561908
O9    O     O_3   0.141044 0.844941 0.530526 -0.576735
O10   O     O_2   0.773012 0.667084 0.663143 -0.567141
O11   O     O_R   0.842795 0.789472 0.567191 -0.754755
O12   O     O_R   0.618770 0.680320 0.499990 -0.555618
O13   O     O_2   0.224621 0.686954 0.628058 -0.502672
O14   O     O_R   0.027062 0.636686 0.702027 -0.750065
O15   O     O_2   0.091995 0.331734 0.258027 -0.603775
O16   O     O_R   0.300578 0.285339 0.296462 -0.786139
O17   O     O_3   0.296962 0.520878 0.251066 -0.526263
O18   O     O_3   0.759829 0.596453 0.984357 -0.550985
O19   O     O_3   0.274307 0.667491 0.901849 -0.500845
O20   O     O_3   0.356487 0.498533 0.090005 -0.522117
O21   O     O_3   0.230280 0.539697 0.761157 -0.545656
O22   O     O_3   0.402690 0.690802 0.020919 -0.500911
O23   O     O_R   0.367430 0.500040 0.613600 -0.528912
O24   O     O_3   0.667718 0.409239 0.898522 -0.582717
O25   O     O_R   0.605020 0.500000 0.613590 -0.552151
O26   O     O_R   0.381230 0.319680 0.500010 -0.565332
O27   O     O_R   0.618810 0.319640 0.500000 -0.597334
O28   O     O_R   0.394980 0.500000 0.386410 -0.539492
O29   O     O_R   0.632570 0.499960 0.386400 -0.586658
O30   O     O_2   0.793049 0.383689 0.698182 -0.619684

loop_
_geom_bond_atom_site_label_1
_geom_bond_atom_site_label_2
_ccdc_geom_bond_type
C28   H46   S    
C40   O19   S    
C38   H19   S    
Cu1   O23   S    
C45   H42   S    
C41   H29   S    
C33   H14   S    
C7    C8    A    
C47   C49   S    
C45   C46   A    
C30   H3    S    
C29   O4    D    
Cu1   N2    S    
C43   H38   S    
C28   H44   S    
C1    C5    S    
Cu2   O29   S    
C31   H7    S    
C18   C37   S    
C7    H1    S    
C20   O29   A    
C23   O20   S    
C5    C6    A    
C18   H12   S    
H2    O5    S    
C34   O17   S    
C4    O25   A    
C17   C18   S    
C18   C19   S    
C31   H8    S    
C13   N1    A    
C12   O21   S    
C49   O18   S    
H43   O2    S    
C8    C9    A    
C32   O8    S    
C36   O13   D    
C42   H35   S    
C39   H24   S    
C9    C10   S    
C43   O22   S    
C44   H41   S    
H17   O14   S    
C2    C34   A    
Cu2   N1    S    
C8    C16   S    
C21   C22   A    
Cu2   O25   S    
C38   H20   S    
C33   O9    S    
C36   O14   S    
C1    O1    A    
C33   H15   S    
C14   N1    A    
C2    C45   A    
C38   H21   S    
C23   C47   A    
C13   C19   S    
C2    C20   S    
C42   H33   S    
C24   C25   A    
C20   O28   A    
C48   O22   S    
C37   O15   D    
C19   H34   S    
C25   C26   A    
C39   O18   S    
C30   H5    S    
C12   C21   A    
C27   O2    S    
C24   O24   S    
C29   O5    S    
C12   C26   A    
C3    C9    A    
C38   O17   S    
H16   O11   S    
C23   C34   A    
C41   H30   S    
Cu1   Cu2   S    
C40   H28   S    
C4    O23   A    
Cu1   O26   S    
C39   H25   S    
C41   O20   S    
C17   N2    A    
C25   C48   S    
C35   O11   S    
C48   C49   D    
C22   C27   S    
C30   O6    S    
C11   O8    S    
C27   O30   D    
C31   O7    S    
C40   H27   S    
C10   O7    S    
C43   H37   S    
C15   C36   S    
C14   C35   S    
C44   H39   S    
C16   O26   A    
C46   C47   A    
H18   O16   S    
Cu2   O12   S    
C14   C15   A    
Cu2   O27   S    
C19   H23   S    
C42   H32   S    
C26   O19   S    
C15   N2    A    
C3    C5    A    
C35   O10   D    
C32   H10   S    
C6    C7    A    
C37   O16   S    
C30   H4    S    
C44   O24   S    
Cu1   O1    S    
C13   C17   A    
C28   H45   S    
C43   H36   S    
C31   H6    S    
C32   H11   S    
C1    O12   A    
C4    C21   S    
C42   O21   S    
C33   H13   S    
C41   H31   S    
C22   C24   A    
C39   H22   S    
C44   H40   S    
C3    C11   S    
C10   C11   S    
C28   O3    S    
C6    C29   S    
C11   O9    S    
C32   H9    S    
C40   H26   S    
C10   O6    S    
Cu1   O28   S    
C16   O27   A    
C46   O3    S    
