data_mof_unit_18531.cif
_audit_creation_date              2012-12-10T20:34:56-0500
_audit_creation_method            fapswitch 2.2
_symmetry_space_group_name_H-M    P1
_symmetry_Int_Tables_number       1
_space_group_crystal_system       triclinic
_cell_length_a                    10.674935
_cell_length_b                    10.651954
_cell_length_c                    9.845306
_cell_angle_alpha                 89.68151
_cell_angle_beta                  90.09715
_cell_angle_gamma                 90.607193
_cell_volume                      1119.4174209

loop_
_atom_site_label
_atom_site_type_symbol
_atom_type_description
_atom_site_fract_x
_atom_site_fract_y
_atom_site_fract_z
_atom_type_partial_charge
C1    C     C_R   0.505009 0.259769 0.500096 0.879710
C2    C     C_R   0.558304 0.935312 0.616461 0.087921
C3    C     C_3   0.502873 0.925061 0.755583 -0.491063
C4    C     C_R   0.257776 0.508438 0.499880 0.843037
C5    C     C_3   0.502960 0.068039 0.756350 -0.122232
C6    C     C_R   0.392902 0.473334 0.071532 0.220927
C7    C     C_R   0.603193 0.536856 0.071922 -0.139074
C8    C     C_R   0.603299 0.536563 0.927897 -0.158610
C9    C     C_R   0.392124 0.475112 0.928929 0.223153
C10   C     C_3   0.315037 0.357538 0.924576 -0.531419
C11   C     C_3   0.318802 0.354476 0.078344 -0.515106
C12   C     C_3   0.877950 0.501912 0.501564 0.119724
C13   C     C_R   0.505625 0.740143 0.499492 0.861148
C14   C     C_R   0.742052 0.500099 0.500465 0.872100
C15   C     C_3   0.070174 0.513689 0.650764 0.032065
C16   C     C_3   0.927984 0.494431 0.649785 -0.404381
C17   C     C_3   0.067549 0.629704 0.421350 -0.043864
C18   C     C_3   0.073131 0.388284 0.433206 -0.467613
C19   C     C_3   0.120679 0.512158 0.499907 0.083272
C20   C     C_3   0.104709 0.632937 0.733614 -0.957321
C21   C     C_3   0.105665 0.642922 0.267867 -0.401386
C22   C     C_3   0.190269 0.758472 0.242714 -0.353991
C23   C     C_3   0.922915 0.628675 0.438590 -0.492863
C24   C     C_3   0.217987 0.777798 0.091890 -0.885414
C25   C     C_3   0.587298 0.130624 0.865397 -0.353091
C26   C     C_3   0.728127 0.102281 0.855035 -0.316658
C27   C     C_3   0.801941 0.171788 0.964883 -0.918779
C28   C     C_3   0.871613 0.261391 0.447844 -0.950210
C29   C     C_3   0.930216 0.391233 0.415725 0.033493
C30   C     C_R   0.558623 0.063771 0.616815 0.118224
C31   C     C_R   0.529619 0.128872 0.497894 -0.138130
C32   C     C_R   0.530189 0.065639 0.373115 -0.224751
C33   C     C_R   0.530535 0.936161 0.372679 -0.238366
C34   C     C_R   0.530400 0.871292 0.497005 -0.100175
H1    H     H_    0.909776 0.410949 0.306615 0.171043
H2    H     H_    0.687265 0.564160 0.873775 0.144527
H3    H     H_    0.219349 0.373845 0.885437 0.196361
H4    H     H_    0.363927 0.278437 0.876981 0.202934
H5    H     H_    0.225224 0.367454 0.124571 0.186887
H6    H     H_    0.373480 0.274870 0.120404 0.210206
H7    H     H_    0.903504 0.402157 0.696597 0.161925
H8    H     H_    0.882023 0.566319 0.714065 0.186859
H9    H     H_    0.103492 0.714700 0.474414 0.148288
H10   H     H_    0.895540 0.707045 0.506475 0.159844
H11   H     H_    0.116583 0.371917 0.332691 0.161558
H12   H     H_    0.872905 0.646738 0.341476 0.167683
H13   H     H_    0.101476 0.307515 0.498411 0.174940
H14   H     H_    0.048975 0.715001 0.700444 0.237430
H15   H     H_    0.083855 0.615550 0.842682 0.239991
H16   H     H_    0.204844 0.659887 0.726216 0.266631
H17   H     H_    0.263251 0.693785 0.048950 0.258412
H18   H     H_    0.129972 0.796268 0.035193 0.256296
H19   H     H_    0.282212 0.859626 0.078513 0.247214
H20   H     H_    0.143466 0.843995 0.281099 0.212775
H21   H     H_    0.279793 0.747274 0.298508 0.244943
H22   H     H_    0.153031 0.558494 0.229896 0.220382
H23   H     H_    0.519237 0.114515 0.277081 0.166918
H24   H     H_    0.022631 0.652514 0.200758 0.196724
H25   H     H_    0.790283 0.274856 0.953320 0.261929
H26   H     H_    0.769288 0.142236 0.067405 0.267833
H27   H     H_    0.903033 0.149916 0.955616 0.247511
H28   H     H_    0.744622 0.000103 0.866794 0.214376
H29   H     H_    0.764457 0.133032 0.754410 0.218840
H30   H     H_    0.576052 0.233845 0.857005 0.224614
H31   H     H_    0.552310 0.101613 0.967276 0.190096
H32   H     H_    0.769965 0.260382 0.424780 0.250556
H33   H     H_    0.915539 0.188931 0.383242 0.248874
H34   H     H_    0.519522 0.888241 0.276526 0.173947
H35   H     H_    0.885637 0.234502 0.555701 0.239386
H36   H     H_    0.406837 0.883460 0.754679 0.188576
H37   H     H_    0.567527 0.880493 0.829521 0.200488
H38   H     H_    0.406126 0.105236 0.754815 0.142922
H39   H     H_    0.687095 0.564802 0.126032 0.143271
H40   H     H_    0.109691 0.431920 0.705711 0.157766
N1    N     N_R   0.499150 0.499140 0.142800 -0.102233
N2    N     N_R   0.499150 0.499180 0.857150 -0.109756
O1    O     O_R   0.500020 0.316790 0.614690 -0.620736
O2    O     O_R   0.500000 0.316760 0.385350 -0.618898
O3    O     O_R   0.314800 0.500000 0.614670 -0.621302
O4    O     O_R   0.314790 0.499960 0.385330 -0.621675
O5    O     O_R   0.500000 0.683240 0.614650 -0.616377
O6    O     O_R   0.499980 0.683210 0.385310 -0.630937
O7    O     O_R   0.685210 0.500040 0.614670 -0.635181
O8    O     O_R   0.685200 0.500000 0.385330 -0.637288
Zn1   Zn    Zn3+2 0.500010 0.500020 0.653130 0.923815
Zn2   Zn    Zn3+2 0.499990 0.499980 0.346870 0.928534

loop_
_geom_bond_atom_site_label_1
_geom_bond_atom_site_label_2
_ccdc_geom_bond_type
C24   H18   S    
C12   C29   S    
C1    O1    A    
C28   H32   S    
C28   H35   S    
C14   O8    A    
C18   H13   S    
C6    C9    A    
C7    C8    A    
C7    H39   S    
C15   C19   S    
C12   C23   S    
C26   C27   S    
C17   C23   S    
C10   H3    S    
C14   O7    A    
C28   C29   S    
O8    Zn2   S    
C4    O4    A    
C5    H38   S    
C27   H26   S    
C30   C31   A    
C15   C16   S    
C13   O5    A    
C8    N2    A    
C18   C19   S    
C8    H2    S    
C20   H16   S    
C27   H27   S    
C4    C19   S    
C12   C16   S    
O4    Zn2   S    
C9    N2    A    
C9    C10   S    
O2    Zn2   S    
C24   H17   S    
O1    Zn1   S    
C23   H12   S    
C21   C22   S    
C1    O2    A    
C32   H23   S    
C25   C26   S    
C1    C31   S    
C15   C20   S    
C6    N1    A    
C28   H33   S    
C25   H31   S    
C4    O3    A    
C22   H20   S    
C6    C11   S    
C7    N1    A    
C24   H19   S    
O6    Zn2   S    
C13   O6    A    
C17   C21   S    
C23   H10   S    
C25   H30   S    
C3    H37   S    
C26   H29   S    
C17   H9    S    
C20   H15   S    
N1    Zn2   S    
C31   C32   A    
C3    H36   S    
C33   C34   A    
C18   C29   S    
C11   H5    S    
C20   H14   S    
C5    C25   S    
O7    Zn1   S    
C12   C14   S    
C22   C24   S    
C18   H11   S    
C16   H8    S    
O3    Zn1   S    
C5    C30   S    
C3    C5    S    
C21   H22   S    
C22   H21   S    
C29   H1    S    
C2    C30   A    
C10   H4    S    
C32   C33   A    
C2    C3    S    
C26   H28   S    
C21   H24   S    
C27   H25   S    
C2    C34   A    
N2    Zn1   S    
C17   C19   S    
C11   H6    S    
C10   C11   S    
C13   C34   S    
C15   H40   S    
C16   H7    S    
O5    Zn1   S    
C33   H34   S    
