data_mof_unit_51051.cif
_audit_creation_date              2012-10-26T19:00:11-0400
_audit_creation_method            fapswitch 2.2
_symmetry_space_group_name_H-M    P1
_symmetry_Int_Tables_number       1
_space_group_crystal_system       triclinic
_cell_length_a                    10.796685
_cell_length_b                    10.771423
_cell_length_c                    9.576765
_cell_angle_alpha                 88.690319
_cell_angle_beta                  90.987635
_cell_angle_gamma                 89.381748
_cell_volume                      1113.21016284

loop_
_atom_site_label
_atom_site_type_symbol
_atom_type_description
_atom_site_fract_x
_atom_site_fract_y
_atom_site_fract_z
_atom_type_partial_charge
C1    C     C_R   0.504678 0.262370 0.501908 0.582374
C2    C     C_R   0.856981 0.299907 0.964266 -0.099096
C3    C     C_R   0.788799 0.195707 0.927173 -0.100100
C4    C     C_R   0.262438 0.503020 0.498886 0.551900
C5    C     C_R   0.767843 0.169979 0.786458 -0.111023
C6    C     C_R   0.815512 0.247957 0.682505 -0.068855
C7    C     C_R   0.884871 0.352300 0.718674 0.045792
C8    C     C_R   0.463382 0.059411 0.613892 -0.017056
C9    C     C_R   0.519207 0.128792 0.507951 0.012738
C10   C     C_R   0.594418 0.065114 0.412843 0.184844
C11   C     C_R   0.587963 0.935020 0.406904 -0.142286
C12   C     C_R   0.171955 0.828624 0.082428 -0.103634
C13   C     C_R   0.508907 0.870148 0.497144 -0.032471
C14   C     C_R   0.453716 0.933710 0.603449 -0.009998
C15   C     C_3   0.327002 0.928776 0.662118 -0.241484
C16   C     C_R   0.501232 0.737306 0.498406 0.542423
C17   C     C_3   0.341711 0.067790 0.686601 -0.123873
C18   C     C_R   0.593076 0.555911 0.074032 0.136526
C19   C     C_R   0.414628 0.434942 0.072665 0.326729
C20   C     C_R   0.412469 0.439095 0.924716 0.002440
C21   C     C_R   0.593691 0.555065 0.926884 0.160805
C22   C     C_3   0.628824 0.688686 0.918637 -0.274506
C23   C     C_R   0.930205 0.558453 0.394942 -0.150984
C24   C     C_3   0.627737 0.689346 0.077079 -0.290838
C25   C     C_R   0.737496 0.495897 0.501138 0.549432
C26   C     C_R   0.158401 0.865478 0.221255 0.014749
C27   C     C_R   0.131369 0.775362 0.324350 -0.080293
C28   C     C_R   0.111771 0.651580 0.288386 0.042690
C29   C     C_R   0.123236 0.616699 0.149083 -0.067384
C30   C     C_R   0.155874 0.704541 0.047046 -0.134650
C31   C     C_3   0.358260 0.102554 0.841684 -0.234453
C32   C     C_3   0.449724 0.018990 0.928135 -0.315940
C33   C     C_3   0.483931 0.075879 0.066825 -0.403390
C34   C     C_R   0.871487 0.493004 0.502105 0.004498
C35   C     C_3   0.169238 0.000542 0.258465 -0.268667
C36   C     C_3   0.047824 0.051579 0.317140 -0.293567
C37   C     C_3   0.055423 0.190863 0.341563 -0.400195
C38   C     C_R   0.941457 0.430606 0.608391 -0.036574
C39   C     C_R   0.069878 0.436502 0.604839 -0.165217
C40   C     C_R   0.128495 0.502680 0.497669 0.005886
C41   C     C_R   0.058176 0.565330 0.392269 -0.025815
C42   C     C_R   0.905590 0.377743 0.860430 -0.096842
Cl1   Cl    Cl    0.701286 0.143915 0.306816 -0.740872
Cl2   Cl    Cl    0.304888 0.340277 0.153924 -0.707467
Cu1   Cu    Cu3+1 0.499990 0.499980 0.640670 0.933727
Cu2   Cu    Cu3+1 0.500010 0.500020 0.359330 1.039232
H1    H     H_    0.192125 0.896181 0.000895 0.098677
H2    H     H_    0.722753 0.701473 0.875166 0.130487
H3    H     H_    0.555273 0.749026 0.869745 0.150916
H4    H     H_    0.721009 0.702666 0.124957 0.122389
H5    H     H_    0.553156 0.749484 0.118440 0.148406
H6    H     H_    0.118612 0.802314 0.431357 0.087725
H7    H     H_    0.103720 0.522509 0.119116 0.145710
H8    H     H_    0.164804 0.677230 0.939553 0.109402
H9    H     H_    0.875818 0.609355 0.315835 0.122633
H10   H     H_    0.124548 0.386247 0.684199 0.123122
H11   H     H_    0.959449 0.457480 0.890269 0.099209
H12   H     H_    0.753196 0.134167 0.007247 0.161914
H13   H     H_    0.873104 0.319721 0.073368 0.145277
H14   H     H_    0.526341 0.168382 0.050215 0.212162
H15   H     H_    0.401595 0.085193 0.133060 0.195222
H16   H     H_    0.551785 0.013164 0.121372 0.173774
H17   H     H_    0.408725 0.927018 0.950923 0.147166
H18   H     H_    0.536809 0.004164 0.870849 0.168723
H19   H     H_    0.393201 0.198392 0.842226 0.176146
H20   H     H_    0.266354 0.102202 0.892099 0.145321
H21   H     H_    0.135322 0.211466 0.411600 0.166602
H22   H     H_    0.065249 0.242232 0.240644 0.199672
H23   H     H_    0.716069 0.088789 0.757682 0.108677
H24   H     H_    0.969238 0.223592 0.391077 0.177536
H25   H     H_    0.970108 0.034474 0.242562 0.204448
H26   H     H_    0.027431 0.003964 0.418142 0.158827
H27   H     H_    0.245769 0.010507 0.336434 0.149724
H28   H     H_    0.192332 0.057026 0.164135 0.169092
H29   H     H_    0.800175 0.226041 0.574013 0.147358
H30   H     H_    0.643539 0.885497 0.332770 0.137178
H31   H     H_    0.255866 0.909697 0.580632 0.106266
H32   H     H_    0.321091 0.867304 0.755995 0.136197
H33   H     H_    0.272514 0.127030 0.628098 0.118129
H34   H     H_    0.338575 0.394312 0.868364 0.127194
N1    N     N_R   0.500790 0.500930 0.147930 -0.209940
N2    N     N_R   0.500790 0.500890 0.852020 -0.259487
O1    O     O_R   0.500000 0.319640 0.618810 -0.521336
O2    O     O_R   0.500010 0.319680 0.381230 -0.402435
O3    O     O_R   0.319640 0.499990 0.618790 -0.532690
O4    O     O_R   0.319650 0.500030 0.381210 -0.434549
O5    O     O_R   0.499990 0.680320 0.618770 -0.505356
O6    O     O_R   0.500000 0.680360 0.381190 -0.516349
O7    O     O_R   0.680350 0.499970 0.618790 -0.492527
O8    O     O_R   0.680360 0.500010 0.381210 -0.495865

loop_
_geom_bond_atom_site_label_1
_geom_bond_atom_site_label_2
_ccdc_geom_bond_type
C31   H20   S    
C22   H2    S    
C35   H28   S    
C20   N2    A    
C18   C21   A    
C19   C20   A    
C6    H29   S    
C15   H31   S    
Cu1   Cu2   S    
C27   H6    S    
C1    O2    A    
C30   H8    S    
C26   C27   A    
C18   C24   S    
C21   C22   S    
C36   C37   S    
Cu1   O5    S    
C11   H30   S    
C5    C6    A    
C15   H32   S    
C4    O4    A    
C37   H22   S    
C28   C41   S    
C17   H33   S    
C18   N1    A    
C15   C17   S    
C7    C42   A    
C5    H23   S    
C35   H27   S    
C31   C32   S    
C8    C9    A    
C16   O5    A    
C13   C14   A    
Cu1   O7    S    
C9    C10   A    
C36   H25   S    
C25   C34   S    
C24   H5    S    
C37   H24   S    
Cu1   O1    S    
C12   H1    S    
C42   H11   S    
Cu2   O6    S    
C24   H4    S    
C20   H34   S    
C4    C40   S    
C1    C9    S    
C32   H18   S    
C39   C40   A    
C2    H13   S    
C33   H16   S    
C4    O3    A    
Cu1   N2    S    
C12   C26   A    
C35   C36   S    
Cu1   O3    S    
C29   C30   A    
Cu2   N1    S    
C39   H10   S    
C23   C34   A    
C25   O8    A    
C22   H3    S    
Cu2   O2    S    
C40   C41   A    
C33   H14   S    
C17   C31   S    
C22   C24   S    
C19   Cl2   S    
C31   H19   S    
C28   C29   A    
C8    C14   A    
C12   C30   A    
C10   Cl1   S    
C34   C38   A    
C32   H17   S    
C3    C5    A    
C23   H9    S    
C6    C7    A    
Cu2   O8    S    
C1    O1    A    
C25   O7    A    
C8    C17   S    
C23   C41   A    
C32   C33   S    
C2    C3    A    
C11   C13   A    
C38   C39   A    
C29   H7    S    
C2    C42   A    
C37   H21   S    
C7    C38   S    
C10   C11   A    
C3    H12   S    
C26   C35   S    
C21   N2    A    
C33   H15   S    
C13   C16   S    
C27   C28   A    
C16   O6    A    
C14   C15   S    
C19   N1    A    
C36   H26   S    
Cu2   O4    S    
