data_mof_unit_62455.cif
_audit_creation_date              2012-12-10T19:50:24-0500
_audit_creation_method            fapswitch 2.2
_symmetry_space_group_name_H-M    P1
_symmetry_Int_Tables_number       1
_space_group_crystal_system       triclinic
_cell_length_a                    36.649348
_cell_length_b                    18.26737
_cell_length_c                    18.268736
_cell_angle_alpha                 89.771893
_cell_angle_beta                  119.376509
_cell_angle_gamma                 89.662464
_cell_volume                      10657.4860995

loop_
_atom_site_label
_atom_site_type_symbol
_atom_type_description
_atom_site_fract_x
_atom_site_fract_y
_atom_site_fract_z
_atom_type_partial_charge
Br1   Br    Br    0.790632 0.087032 0.659272 -0.340039
Br2   Br    Br    0.302442 0.161374 0.342541 -0.387407
Br3   Br    Br    0.305247 0.840091 0.305337 -0.382467
Br4   Br    Br    0.694747 0.159935 0.699098 -0.383342
Br5   Br    Br    0.197537 0.338119 0.659336 -0.387865
Br6   Br    Br    0.802460 0.662951 0.336294 -0.388857
Br7   Br    Br    0.805228 0.340314 0.311441 -0.381170
Br8   Br    Br    0.194766 0.659866 0.692894 -0.382011
Br9   Br    Br    0.791965 0.839516 0.816339 -0.419574
Br10  Br    Br    0.208049 0.159827 0.179250 -0.421215
Br11  Br    Br    0.203993 0.840476 0.190352 -0.428245
Br12  Br    Br    0.209349 0.916710 0.343083 -0.340022
Br13  Br    Br    0.795997 0.159123 0.814101 -0.429171
Br14  Br    Br    0.291937 0.340433 0.822528 -0.421698
Br15  Br    Br    0.708071 0.658755 0.173194 -0.423074
Br16  Br    Br    0.703985 0.340157 0.196424 -0.426840
Br17  Br    Br    0.296014 0.659617 0.807880 -0.427833
Br18  Br    Br    0.200081 0.095802 0.325363 -0.320010
Br19  Br    Br    0.799883 0.907784 0.671992 -0.319877
Br20  Br    Br    0.290656 0.581736 0.656010 -0.340034
Br21  Br    Br    0.709311 0.421965 0.346098 -0.340130
Br22  Br    Br    0.700078 0.600636 0.321590 -0.320252
Br23  Br    Br    0.299897 0.402736 0.675704 -0.320008
Br24  Br    Br    0.697550 0.839895 0.653097 -0.386510
C1    C     C_R   0.499830 0.000121 0.358606 0.922713
C2    C     C_1   0.337255 0.003029 0.329542 0.024110
C3    C     C_R   0.337291 0.949412 0.172611 -0.128525
C4    C     C_R   0.282614 0.075037 0.140413 0.142454
C5    C     C_R   0.315488 0.124285 0.187061 -0.080261
C6    C     C_R   0.322643 0.184891 0.148954 -0.108317
C7    C     C_R   0.298580 0.196132 0.062632 -0.107873
C8    C     C_R   0.268138 0.145546 0.013891 -0.105734
C9    C     C_R   0.260901 0.085015 0.051833 -0.159545
C10   C     C_R   0.717389 0.921207 0.857558 0.142189
C11   C     C_R   0.684507 0.872382 0.809572 -0.080318
C12   C     C_R   0.677329 0.810615 0.846039 -0.107418
C13   C     C_1   0.162739 0.497021 0.670518 0.024055
C14   C     C_R   0.701382 0.797694 0.932055 -0.106545
C15   C     C_R   0.731845 0.847722 0.982165 -0.104368
C16   C     C_R   0.739106 0.909410 0.945861 -0.160126
C17   C     C_R   0.205195 0.559751 0.846594 0.147701
C18   C     C_R   0.162714 0.552514 0.826789 -0.128393
C19   C     C_R   0.142039 0.606519 0.846810 -0.109302
C20   C     C_R   0.162950 0.669625 0.887645 -0.076538
C21   C     C_R   0.204642 0.678527 0.908932 -0.087953
C22   C     C_R   0.225771 0.624469 0.889742 -0.085131
C23   C     C_R   0.794816 0.436518 0.155116 0.147395
C24   C     C_1   0.837260 0.502857 0.329420 0.024126
C25   C     C_R   0.774230 0.371213 0.113706 -0.084981
C26   C     C_R   0.795367 0.316044 0.096075 -0.087457
C27   C     C_R   0.837074 0.324355 0.117212 -0.075986
C28   C     C_R   0.857990 0.387995 0.156308 -0.108869
C29   C     C_R   0.837306 0.443122 0.174778 -0.128190
C30   C     C_R   0.782667 0.569647 0.137684 0.142553
C31   C     C_R   0.815548 0.619397 0.182444 -0.080229
C32   C     C_R   0.822704 0.678271 0.142088 -0.109476
C33   C     C_R   0.798637 0.687154 0.055414 -0.109796
C34   C     C_R   0.768192 0.635892 0.008612 -0.107578
C35   C     C_1   0.625404 0.998323 0.628580 -0.124951
C36   C     C_R   0.760954 0.577091 0.048799 -0.158528
C37   C     C_R   0.217360 0.426543 0.860448 0.142440
C38   C     C_R   0.184477 0.377151 0.814357 -0.080226
C39   C     C_R   0.177311 0.317059 0.853137 -0.108690
C40   C     C_R   0.201374 0.306507 0.939571 -0.108418
C41   C     C_R   0.231830 0.357283 0.987741 -0.106336
C42   C     C_R   0.239077 0.417301 0.949127 -0.159282
C43   C     C_1   0.374594 0.001658 0.371367 -0.124908
C44   C     C_1   0.125402 0.498353 0.628667 -0.124939
C45   C     C_1   0.874598 0.501622 0.371296 -0.124952
C46   C     C_1   0.499577 0.000316 0.281944 -0.173803
C47   C     C_1   0.500425 0.999684 0.718058 -0.173903
C48   C     C_1   0.999580 0.500317 0.281947 -0.173664
C49   C     C_R   0.500171 0.999879 0.641395 0.922907
C50   C     C_1   0.000422 0.499683 0.718055 -0.173786
C51   C     C_1   0.499530 0.000248 0.217150 -0.168672
C52   C     C_1   0.500471 0.999752 0.782852 -0.168952
C53   C     C_1   0.999532 0.500250 0.217151 -0.168260
C54   C     C_1   0.000469 0.499751 0.782850 -0.168554
C55   C     C_R   0.000109 0.141045 0.999986 0.934386
C56   C     C_R   0.999891 0.858955 0.000013 0.934068
C57   C     C_R   0.500109 0.641045 0.999986 0.934372
C58   C     C_R   0.499890 0.358955 0.000013 0.934061
C59   C     C_R   0.918818 0.000235 0.919172 0.896115
C60   C     C_R   0.999832 0.500121 0.358609 0.922481
C61   C     C_R   0.081181 0.999763 0.080829 0.896154
C62   C     C_R   0.418818 0.500231 0.919170 0.896105
C63   C     C_R   0.581181 0.499766 0.080831 0.896131
C64   C     C_R   0.500158 0.858729 0.000077 0.921670
C65   C     C_R   0.499842 0.141271 0.999922 0.921578
C66   C     C_R   0.000158 0.358729 0.000077 0.921609
C67   C     C_R   0.999842 0.641271 0.999922 0.921500
C68   C     C_R   0.499834 0.000064 0.141032 0.923052
C69   C     C_R   0.500166 0.999936 0.858968 0.923106
C70   C     C_R   0.999834 0.500066 0.141032 0.922957
C71   C     C_R   0.000169 0.499879 0.641393 0.922657
C72   C     C_R   0.000166 0.499935 0.858968 0.922994
C73   C     C_1   0.000352 0.217497 0.000021 -0.154008
C74   C     C_1   0.999648 0.782503 0.999978 -0.154357
C75   C     C_1   0.500352 0.717497 0.000021 -0.153910
C76   C     C_1   0.499648 0.282503 0.999978 -0.154243
C77   C     C_R   0.581151 0.999606 0.580959 0.894173
C78   C     C_R   0.418848 0.000393 0.419026 0.893994
C79   C     C_R   0.081151 0.499607 0.580980 0.893964
C80   C     C_R   0.918849 0.500391 0.419013 0.893803
C81   C     C_1   0.500428 0.782269 0.000157 -0.155385
C82   C     C_1   0.836985 0.000460 0.840450 0.125381
C83   C     C_1   0.499572 0.217730 0.999843 -0.155750
C84   C     C_1   0.000428 0.282269 0.000157 -0.155416
C85   C     C_1   0.999572 0.717731 0.999843 -0.155799
C86   C     C_3   0.723721 0.069328 0.697833 0.028372
C87   C     C_3   0.276270 0.931492 0.304079 0.028173
C88   C     C_3   0.273259 0.067373 0.309781 0.012286
C89   C     C_3   0.726729 0.933752 0.688397 0.012036
C90   C     C_3   0.223732 0.568140 0.695173 0.028112
C91   C     C_3   0.776258 0.432724 0.306658 0.027950
C92   C     C_3   0.773265 0.568857 0.307156 0.012589
C93   C     C_1   0.163012 0.999478 0.159572 0.125418
C94   C     C_3   0.226727 0.432165 0.691003 0.012345
C95   C     C_3   0.774972 0.927460 0.743655 0.429954
C96   C     C_3   0.225016 0.073458 0.254331 0.430071
C97   C     C_3   0.227217 0.928734 0.258816 0.407116
C98   C     C_3   0.772773 0.072174 0.743183 0.407180
C99   C     C_3   0.274969 0.426159 0.746498 0.430089
C100  C     C_3   0.725024 0.574651 0.251498 0.430175
C101  C     C_3   0.727206 0.430099 0.261489 0.407092
C102  C     C_3   0.272784 0.570850 0.740403 0.407095
C103  C     C_1   0.874433 0.000482 0.876040 -0.082736
C104  C     C_1   0.336985 0.500506 0.840423 0.125453
C105  C     C_1   0.125563 0.999487 0.123969 -0.082707
C106  C     C_1   0.374433 0.500498 0.876026 -0.082704
C107  C     C_1   0.625565 0.499469 0.123981 -0.082648
C108  C     C_3   0.708402 0.996542 0.720969 -0.054011
C109  C     C_3   0.291594 0.003208 0.278968 -0.054065
C110  C     C_3   0.208401 0.496890 0.721095 -0.053992
C111  C     C_3   0.791599 0.502847 0.278842 -0.053967
C112  C     C_3   0.791166 0.999784 0.796918 -0.063470
C113  C     C_3   0.208829 0.000116 0.203096 -0.063430
C114  C     C_3   0.291166 0.499889 0.796913 -0.063444
C115  C     C_1   0.663014 0.499431 0.159591 0.125509
C116  C     C_3   0.708832 0.500009 0.203093 -0.063441
C117  C     C_3   0.775920 0.998583 0.863040 -0.517961
C118  C     C_3   0.224088 0.999069 0.136997 -0.518033
C119  C     C_3   0.275908 0.501846 0.862996 -0.517963
C120  C     C_3   0.724103 0.495868 0.137116 -0.517992
C121  C     C_3   0.726127 0.992780 0.821687 0.051684
C122  C     C_3   0.273881 0.004688 0.178204 0.051631
C123  C     C_3   0.226114 0.496358 0.821871 0.051611
C124  C     C_3   0.773898 0.501129 0.178104 0.051576
C125  C     C_R   0.705200 0.054342 0.848832 0.148148
C126  C     C_1   0.662742 0.996862 0.670385 0.023978
C127  C     C_R   0.662719 0.046246 0.828703 -0.128619
C128  C     C_R   0.642046 0.098603 0.850829 -0.109809
C129  C     C_R   0.662963 0.160841 0.894169 -0.077313
C130  C     C_R   0.704655 0.170510 0.915843 -0.088530
C131  C     C_R   0.725778 0.118093 0.894531 -0.085232
C132  C     C_R   0.294822 0.941854 0.152777 0.147818
C133  C     C_R   0.274270 0.877373 0.108944 -0.085222
C134  C     C_R   0.295402 0.823830 0.089090 -0.088216
C135  C     C_R   0.337075 0.833039 0.110383 -0.076804
C136  C     C_R   0.357968 0.895930 0.151909 -0.109540
H1    H     H_    0.712409 0.067888 0.629128 0.166765
H2    H     H_    0.210123 0.952742 0.094659 0.191293
H3    H     H_    0.207588 0.044231 0.091965 0.214412
H4    H     H_    0.792413 0.952633 0.906807 0.214377
H5    H     H_    0.289888 0.548480 0.904827 0.191261
H6    H     H_    0.710119 0.448501 0.096553 0.191244
H7    H     H_    0.707624 0.539926 0.090412 0.214482
H8    H     H_    0.292394 0.456990 0.908517 0.214421
H9    H     H_    0.645008 0.998660 0.796075 0.112256
H10   H     H_    0.609643 0.090693 0.834245 0.138593
H11   H     H_    0.646870 0.201646 0.910957 0.143073
H12   H     H_    0.287576 0.934518 0.372706 0.166691
H13   H     H_    0.720632 0.219440 0.948705 0.130014
H14   H     H_    0.757482 0.131381 0.912691 0.160639
H15   H     H_    0.242588 0.864393 0.091260 0.160830
H16   H     H_    0.279449 0.774398 0.057688 0.130119
H17   H     H_    0.353173 0.791368 0.094722 0.143070
H18   H     H_    0.390356 0.903473 0.168192 0.138709
H19   H     H_    0.354988 0.997423 0.203887 0.112120
H20   H     H_    0.337396 0.115478 0.252177 0.160350
H21   H     H_    0.347635 0.222360 0.186398 0.151830
H22   H     H_    0.304353 0.242846 0.033217 0.163218
H23   H     H_    0.279156 0.051305 0.373464 0.165990
H24   H     H_    0.250419 0.152676 0.946381 0.164228
H25   H     H_    0.238298 0.045238 0.011294 0.134101
H26   H     H_    0.662606 0.882352 0.744690 0.160552
H27   H     H_    0.652322 0.773533 0.807580 0.151951
H28   H     H_    0.695580 0.750090 0.960206 0.162518
H29   H     H_    0.749553 0.839251 0.049482 0.165419
H30   H     H_    0.761724 0.948656 0.987479 0.134104
H31   H     H_    0.145005 0.504357 0.796056 0.112057
H32   H     H_    0.109635 0.599218 0.830532 0.138750
H33   H     H_    0.146853 0.711701 0.902781 0.143037
H34   H     H_    0.720811 0.951391 0.625148 0.165876
H35   H     H_    0.220609 0.728127 0.939798 0.130119
H36   H     H_    0.257475 0.637237 0.907376 0.160711
H37   H     H_    0.742511 0.358857 0.096333 0.160672
H38   H     H_    0.779391 0.266055 0.066564 0.130198
H39   H     H_    0.853180 0.281413 0.103302 0.142966
H40   H     H_    0.890404 0.394837 0.172438 0.138890
H41   H     H_    0.855021 0.491622 0.204196 0.111928
H42   H     H_    0.837451 0.612250 0.247848 0.160101
H43   H     H_    0.847693 0.716207 0.178096 0.151651
H44   H     H_    0.804397 0.732542 0.024269 0.163862
H45   H     H_    0.212427 0.564467 0.626585 0.166631
H46   H     H_    0.750466 0.641145 0.940886 0.162513
H47   H     H_    0.738341 0.536663 0.009784 0.134089
H48   H     H_    0.162572 0.385466 0.749148 0.160283
H49   H     H_    0.152311 0.279459 0.816118 0.151775
H50   H     H_    0.195595 0.260185 0.969502 0.163478
H51   H     H_    0.249551 0.350698 0.055323 0.163719
H52   H     H_    0.261694 0.457262 0.989221 0.134083
H53   H     H_    0.787551 0.437951 0.375110 0.166524
H54   H     H_    0.779158 0.555026 0.371402 0.166143
H55   H     H_    0.220822 0.447564 0.627132 0.166033
H56   H     H_    0.789899 0.044087 0.906664 0.191320
O1    O     O_R   0.500010 0.060620 0.392670 -0.614597
O2    O     O_R   0.438570 0.939380 0.438570 -0.597482
O3    O     O_R   0.438570 0.060620 0.438570 -0.613469
O4    O     O_R   0.561430 0.939380 0.561430 -0.614078
O5    O     O_R   0.061430 0.560620 0.561430 -0.597674
O6    O     O_R   0.938570 0.439380 0.438570 -0.598065
O7    O     O_R   0.938570 0.560620 0.438570 -0.612579
O8    O     O_R   0.061430 0.439380 0.561430 -0.613175
O9    O     O_R   0.000000 0.107140 0.939380 -0.613043
O10   O     O_R   0.000000 0.892860 0.060620 -0.613157
O11   O     O_R   0.000000 0.107140 0.060620 -0.613164
O12   O     O_R   0.499990 0.939380 0.607330 -0.614593
O13   O     O_R   0.000000 0.892860 0.939380 -0.613174
O14   O     O_R   0.500000 0.607140 0.939380 -0.612926
O15   O     O_R   0.500000 0.392860 0.060620 -0.613057
O16   O     O_R   0.500000 0.607140 0.060620 -0.613224
O17   O     O_R   0.500000 0.392860 0.939380 -0.613211
O18   O     O_R   0.938580 0.000000 0.877970 -0.588002
O19   O     O_R   0.061420 0.000000 0.122030 -0.588036
O20   O     O_R   0.438580 0.500000 0.877970 -0.588038
O21   O     O_R   0.561420 0.500000 0.122030 -0.588084
O22   O     O_R   0.938570 0.000000 0.999140 -0.626620
O23   O     O_R   0.499990 0.060620 0.607330 -0.613067
O24   O     O_R   0.061430 0.000000 0.000860 -0.626574
O25   O     O_R   0.438570 0.500000 0.999140 -0.626561
O26   O     O_R   0.561430 0.500000 0.000860 -0.626475
O27   O     O_R   0.534690 0.892630 0.034650 -0.609339
O28   O     O_R   0.465310 0.107370 0.965350 -0.609537
O29   O     O_R   0.465310 0.892630 0.965350 -0.611910
O30   O     O_R   0.534690 0.107370 0.034650 -0.612166
O31   O     O_R   0.034690 0.392630 0.034650 -0.609850
O32   O     O_R   0.965310 0.607370 0.965350 -0.610075
O33   O     O_R   0.965310 0.392630 0.965350 -0.611372
O34   O     O_R   0.500010 0.939380 0.392670 -0.613365
O35   O     O_R   0.034690 0.607370 0.034650 -0.611611
O36   O     O_R   0.534680 0.000000 0.141990 -0.602127
O37   O     O_R   0.465320 0.000000 0.858010 -0.602084
O38   O     O_R   0.034680 0.500000 0.141990 -0.602312
O39   O     O_R   0.965320 0.500000 0.858010 -0.602277
O40   O     O_R   0.465320 0.000000 0.072630 -0.626305
O41   O     O_R   0.534680 0.000000 0.927370 -0.626571
O42   O     O_R   0.965320 0.500000 0.072630 -0.625917
O43   O     O_R   0.034680 0.500000 0.927370 -0.626162
O44   O     O_R   0.000010 0.560620 0.392670 -0.614235
O45   O     O_R   0.999990 0.439380 0.607330 -0.614242
O46   O     O_R   0.999990 0.560620 0.607330 -0.613659
O47   O     O_R   0.000010 0.439380 0.392670 -0.613954
O48   O     O_R   0.561430 0.060620 0.561430 -0.597158
Zn1   Zn    Zn3+2 0.500000 0.080950 0.500000 1.028638
Zn2   Zn    Zn3+2 0.453690 0.000000 0.953700 1.034233
Zn3   Zn    Zn3+2 0.046310 0.500000 0.046300 1.034240
Zn4   Zn    Zn3+2 0.953690 0.500000 0.953700 1.034359
Zn5   Zn    Zn3+2 0.500000 0.919050 0.500000 1.027734
Zn6   Zn    Zn3+2 0.000000 0.580950 0.500000 1.028702
Zn7   Zn    Zn3+2 0.000000 0.419050 0.500000 1.027746
Zn8   Zn    Zn3+2 0.000010 0.000000 0.919080 1.034608
Zn9   Zn    Zn3+2 0.999990 0.000000 0.080920 1.034426
Zn10  Zn    Zn3+2 0.500010 0.500000 0.919080 1.034769
Zn11  Zn    Zn3+2 0.499990 0.500000 0.080920 1.034525
Zn12  Zn    Zn3+2 0.546310 0.000000 0.046300 1.034014

loop_
_geom_bond_atom_site_label_1
_geom_bond_atom_site_label_2
_ccdc_geom_bond_type
C21   H35   S    
C113  C118  S    
C133  C134  A    
C63   O21   A    
C89   C108  S    
Br18  C96   S    
C87   C97   S    
C108  C126  S    
C17   C18   A    
C118  C122  S    
C24   C111  S    
C1    O1    A    
O29   Zn2   S    
C44   C79   S    
C24   C45   T    
C120  C124  S    
O42   Zn4   S    
C64   O27   A    
C26   H38   S    
O17   Zn10  S    
C23   C25   A    
C92   C111  S    
C30   C36   A    
C21   C22   A    
C65   O30   A    
C119  C123  S    
C110  C123  S    
C99   C114  S    
Br2   C88   S    
C20   H33   S    
C23   C124  S    
C52   C69   S    
C10   C16   A    
C2    C43   T    
O33   Zn4   S    
C30   C124  S    
C132  C133  A    
C12   H27   S    
C3    H19   S    
C87   H12   S    
O12   Zn5   S    
C125  C127  A    
C6    C7    A    
C90   C102  S    
C10   C121  S    
C69   O37   A    
Br17  C102  S    
C35   C126  T    
O39   Zn4   S    
C34   H46   S    
C68   O40   A    
Br7   C91   S    
C30   C31   A    
C13   C44   T    
C53   C70   S    
C32   C33   A    
O23   Zn1   S    
C10   C11   A    
C89   H34   S    
C97   C113  S    
C25   C26   A    
C104  C114  S    
Br1   C98   S    
C119  H5    S    
O40   Zn2   S    
O34   Zn5   S    
C61   C105  S    
C64   O29   A    
C89   C95   S    
C73   C84   T    
C37   C42   A    
C71   O46   A    
Br12  C97   S    
C11   C12   A    
C54   C72   S    
O48   Zn1   S    
O41   Zn12  S    
C57   O16   A    
C128  C129  A    
C127  C128  A    
C60   O47   A    
C86   C108  S    
C94   H55   S    
C28   H40   S    
O10   Zn9   S    
O22   Zn9   S    
C93   C105  T    
Br16  C101  S    
C88   C109  S    
C80   O7    A    
O20   Zn10  S    
C94   C110  S    
C117  C121  S    
C23   C29   A    
O31   Zn3   S    
O47   Zn7   S    
C59   O22   A    
Br19  C95   S    
Br24  C89   S    
C74   C85   T    
C61   O19   A    
O14   Zn10  S    
O16   Zn11  S    
C40   H50   S    
Br11  C97   S    
C96   C113  S    
C135  H17   S    
C18   H31   S    
C117  H56   S    
C80   O6    A    
C86   H1    S    
C100  C116  S    
C88   H23   S    
C125  C131  A    
C68   O36   A    
C101  C116  S    
C75   C81   T    
C66   O33   A    
C93   C113  S    
O38   Zn3   S    
O2    Zn5   S    
C41   H51   S    
Br15  C100  S    
C37   C123  S    
C120  H7    S    
C27   C28   A    
C35   C77   S    
C107  C115  T    
O26   Zn10  S    
O7    Zn6   S    
C92   H54   S    
C39   H49   S    
C98   C112  S    
Br3   C87   S    
C118  H3    S    
C32   H43   S    
C78   O2    A    
C62   C106  S    
C63   O26   A    
Br23  C99   S    
C57   C75   S    
C38   H48   S    
C109  C122  S    
C31   H42   S    
C34   C36   A    
C82   C103  T    
C5    H20   S    
C62   O20   A    
C39   C40   A    
C120  H6    S    
C58   O15   A    
C86   C98   S    
C19   C20   A    
O9    Zn8   S    
Br20  C102  S    
C48   C53   T    
C79   O8    A    
O46   Zn6   S    
C128  H10   S    
C1    O34   A    
C55   C73   S    
C135  C136  A    
C17   C123  S    
C59   O18   A    
C17   C22   A    
C136  H18   S    
C66   O31   A    
C65   C83   S    
C38   C39   A    
C26   C27   A    
C90   C110  S    
C65   O28   A    
O15   Zn11  S    
C129  H11   S    
C36   H47   S    
C25   H37   S    
O18   Zn8   S    
O4    Zn5   S    
O36   Zn12  S    
Br6   C92   S    
C130  C131  A    
C48   C60   S    
C27   H39   S    
C51   C68   S    
C133  H15   S    
C69   O41   A    
O6    Zn7   S    
C67   O35   A    
C131  H14   S    
C134  H16   S    
C63   C107  S    
C91   H53   S    
C4    C9    A    
C111  C124  S    
O1    Zn1   S    
C57   O14   A    
C7    H22   S    
C50   C54   T    
C134  C135  A    
Br9   C95   S    
C6    H21   S    
C64   C81   S    
C58   O17   A    
C18   C19   A    
C108  C121  S    
O11   Zn9   S    
Br21  C101  S    
C4    C5    A    
O35   Zn3   S    
C47   C52   T    
C15   C16   A    
C28   C29   A    
C62   O25   A    
C88   C96   S    
C45   C80   S    
C3    C132  A    
C49   O23   A    
Br4   C86   S    
C67   O32   A    
C102  C114  S    
C76   C83   T    
Br14  C99   S    
C92   C100  S    
C130  H13   S    
C56   C74   S    
O3    Zn1   S    
C58   C76   S    
C50   C71   S    
C60   O44   A    
C7    C8    A    
C87   C109  S    
C20   C21   A    
C116  C120  S    
C72   O39   A    
C59   C103  S    
C104  C106  T    
C19   H32   S    
C49   O12   A    
C115  C116  S    
C14   H28   S    
C56   O13   A    
Br22  C100  S    
O32   Zn4   S    
Br8   C90   S    
O37   Zn2   S    
C4    C122  S    
C95   C112  S    
C127  H9    S    
C90   H45   S    
Br5   C94   S    
C114  C119  S    
C61   O24   A    
C56   O10   A    
C8    C9    A    
O24   Zn8   S    
C70   O38   A    
C3    C136  A    
C66   C84   S    
C2    C109  S    
C72   O43   A    
C79   O5    A    
O8    Zn7   S    
Br13  C98   S    
C77   O4    A    
C67   C85   S    
C33   C34   A    
C14   C15   A    
C91   C111  S    
C11   H26   S    
O19   Zn9   S    
C91   C101  S    
C33   H44   S    
C12   C14   A    
O13   Zn8   S    
C112  C117  S    
O21   Zn11  S    
O28   Zn2   S    
C94   C99   S    
O44   Zn6   S    
C37   C38   A    
C29   H41   S    
C119  H8    S    
O45   Zn7   S    
O43   Zn3   S    
O25   Zn11  S    
C40   C41   A    
C31   C32   A    
C5    C6    A    
O30   Zn12  S    
C78   O3    A    
C71   O45   A    
C16   H30   S    
C118  H2    S    
C46   C51   T    
C117  H4    S    
C41   C42   A    
C70   O42   A    
C77   O48   A    
C47   C49   S    
C22   H36   S    
C55   O11   A    
C15   H29   S    
C13   C110  S    
C9    H25   S    
C1    C46   S    
C122  C132  S    
C8    H24   S    
C129  C130  A    
C42   H52   S    
O27   Zn12  S    
C55   O9    A    
Br10  C96   S    
C121  C125  S    
O5    Zn6   S    
C43   C78   S    
C82   C112  S    
