data_mof_unit_22911.cif
_audit_creation_date              2012-12-11T14:01:23-0500
_audit_creation_method            fapswitch 2.2
_symmetry_space_group_name_H-M    P1
_symmetry_Int_Tables_number       1
_space_group_crystal_system       triclinic
_cell_length_a                    18.987281
_cell_length_b                    10.97564
_cell_length_c                    18.726362
_cell_angle_alpha                 90.120523
_cell_angle_beta                  90.261172
_cell_angle_gamma                 89.829139
_cell_volume                      3902.46174546

loop_
_atom_site_label
_atom_site_type_symbol
_atom_type_description
_atom_site_fract_x
_atom_site_fract_y
_atom_site_fract_z
_atom_type_partial_charge
C1    C     C_R   0.272893 0.040614 0.854253 0.565761
C2    C     C_R   0.727148 0.040630 0.145777 0.567354
C3    C     C_R   0.772895 0.540608 0.854256 0.566984
C4    C     C_R   0.227144 0.540621 0.145774 0.578057
C5    C     C_R   0.484959 0.054862 0.073103 -0.080641
C6    C     C_R   0.514385 0.054806 0.927456 -0.080760
C7    C     C_R   0.985024 0.554879 0.073067 -0.080970
C8    C     C_R   0.014453 0.554791 0.927420 -0.080835
C9    C     C_R   0.991278 0.664801 0.036479 -0.077102
C10   C     C_R   0.007971 0.664751 0.964262 -0.077124
C11   C     C_R   0.491201 0.164792 0.036522 -0.077283
C12   C     C_R   0.507892 0.164759 0.964306 -0.076878
C13   C     C_2   0.244446 0.574521 0.917853 -0.095252
C14   C     C_2   0.755820 0.574038 0.082193 -0.095352
C15   C     C_2   0.744462 0.074548 0.917866 -0.095346
C16   C     C_2   0.255817 0.074049 0.082189 -0.095208
C17   C     C_2   0.247995 0.574999 0.073942 -0.109712
C18   C     C_2   0.752106 0.574943 0.926208 -0.108406
C19   C     C_2   0.748008 0.075033 0.073954 -0.108297
C20   C     C_2   0.252101 0.074956 0.926203 -0.108434
C21   C     C_2   0.280607 0.491563 0.032421 -0.106219
C22   C     C_2   0.719753 0.491462 0.967486 -0.104519
C23   C     C_2   0.780635 0.991614 0.032436 -0.104811
C24   C     C_2   0.219750 0.991475 0.967481 -0.104670
C25   C     C_2   0.291158 0.508694 0.955566 0.147344
C26   C     C_2   0.709226 0.508417 0.044370 0.146403
C27   C     C_2   0.791185 0.008747 0.955582 0.146844
C28   C     C_2   0.209223 0.008433 0.044365 0.146326
C29   C     C_2   0.485934 0.828706 0.571421 -0.091611
C30   C     C_2   0.487372 0.839791 0.415195 -0.103147
C31   C     C_2   0.013108 0.339294 0.585153 -0.104580
C32   C     C_2   0.014524 0.329155 0.428835 -0.107843
C33   C     C_2   0.467775 0.741988 0.451800 -0.160416
C34   C     C_2   0.453349 0.749099 0.527530 -0.149191
C35   C     C_2   0.047532 0.249499 0.472462 -0.153744
C36   C     C_2   0.032962 0.241695 0.548158 -0.158393
C37   C     C_2   0.242212 0.556720 0.586780 -0.107080
C38   C     C_2   0.745596 0.612248 0.430668 -0.090749
C39   C     C_2   0.754671 0.112392 0.569133 -0.090735
C40   C     C_2   0.245316 0.112676 0.430875 -0.101653
C41   C     C_2   0.221950 0.520294 0.434439 -0.106064
C42   C     C_2   0.742810 0.604266 0.586094 -0.107772
C43   C     C_2   0.757223 0.104937 0.413737 -0.107382
C44   C     C_2   0.242685 0.105172 0.586391 -0.101939
C45   C     C_R   0.472737 0.821981 0.852935 0.551409
C46   C     C_R   0.527259 0.822037 0.147077 0.550195
C47   C     C_R   0.972748 0.321981 0.852926 0.548828
C48   C     C_R   0.027267 0.322038 0.147071 0.553184
C49   C     C_2   0.168351 0.527984 0.480304 -0.161472
C50   C     C_2   0.782113 0.682055 0.549579 -0.166645
C51   C     C_2   0.717716 0.182626 0.450537 -0.166757
C52   C     C_2   0.282468 0.182149 0.549790 -0.159017
C53   C     C_2   0.179386 0.566619 0.554273 -0.147171
C54   C     C_2   0.770244 0.700737 0.474071 -0.150343
C55   C     C_2   0.729736 0.201105 0.526062 -0.149706
C56   C     C_2   0.271453 0.200088 0.474100 -0.155740
C57   C     C_R   0.260030 0.633616 0.850220 0.561709
C58   C     C_R   0.740043 0.633556 0.149808 0.563052
C59   C     C_R   0.760034 0.133625 0.850224 0.563757
C60   C     C_R   0.240043 0.133559 0.149807 0.566187
C61   C     C_R   0.270745 0.048654 0.649896 0.559550
C62   C     C_R   0.729193 0.048669 0.350170 0.556663
C63   C     C_R   0.770836 0.548354 0.649748 0.556375
C64   C     C_R   0.208533 0.497173 0.359848 0.560329
C65   C     C_R   0.467966 0.823128 0.646175 0.547124
C66   C     C_R   0.527589 0.824740 0.350496 0.551414
C67   C     C_R   0.972532 0.324450 0.649606 0.550353
C68   C     C_R   0.032161 0.323395 0.353938 0.537128
C69   C     C_R   0.259333 0.632965 0.647814 0.547405
C70   C     C_R   0.738534 0.641746 0.356009 0.547648
C71   C     C_R   0.761523 0.141547 0.643922 0.547889
C72   C     C_R   0.238423 0.142102 0.356157 0.540916
C73   C     C_R   0.495510 0.829900 0.075004 -0.040318
C74   C     C_R   0.504445 0.829862 0.925037 -0.041465
C75   C     C_R   0.995550 0.329906 0.074981 -0.042042
C76   C     C_R   0.004487 0.329861 0.925012 -0.040924
C77   C     C_R   0.495294 0.942335 0.037684 -0.021073
C78   C     C_R   0.504338 0.942313 0.962608 -0.021431
C79   C     C_R   0.995350 0.442341 0.037656 -0.021619
C80   C     C_R   0.004395 0.442310 0.962580 -0.020902
C81   C     C_R   0.508180 0.720271 0.963842 0.191060
C82   C     C_R   0.492078 0.720307 0.035963 0.191782
C83   C     C_R   0.008229 0.220274 0.963818 0.191524
C84   C     C_R   0.992125 0.220310 0.035939 0.191274
Cr1   Cr    Cr6+3 0.230530 0.836340 0.748870 1.044134
Cr2   Cr    Cr6+3 0.769470 0.836340 0.251130 1.045742
Cr3   Cr    Cr6+3 0.730530 0.336340 0.748870 1.045463
Cr4   Cr    Cr6+3 0.269470 0.336340 0.251130 1.041944
Cr5   Cr    Cr6+3 0.387420 0.989430 0.750820 1.043689
Cr6   Cr    Cr6+3 0.612580 0.989430 0.249180 1.041959
Cr7   Cr    Cr6+3 0.887420 0.489430 0.750820 1.038276
Cr8   Cr    Cr6+3 0.112580 0.489430 0.249180 1.039732
Cr9   Cr    Cr6+3 0.385640 0.677860 0.749230 1.096337
Cr10  Cr    Cr6+3 0.614360 0.677860 0.250770 1.100993
Cr11  Cr    Cr6+3 0.885640 0.177860 0.749230 1.099233
Cr12  Cr    Cr6+3 0.114360 0.177860 0.250770 1.096262
H1    H     H_    0.114486 0.519473 0.461211 0.140033
H2    H     H_    0.828384 0.724457 0.573139 0.157547
H3    H     H_    0.671160 0.224836 0.427246 0.157966
H4    H     H_    0.328902 0.223933 0.573403 0.156599
H5    H     H_    0.136366 0.615906 0.579360 0.153813
H6    H     H_    0.787731 0.787668 0.452865 0.154414
H7    H     H_    0.712031 0.288014 0.547575 0.154629
H8    H     H_    0.291044 0.285344 0.452642 0.150538
H9    H     H_    0.276318 0.532523 0.450945 0.101610
H10   H     H_    0.694314 0.567785 0.563699 0.106557
H11   H     H_    0.805949 0.068624 0.435909 0.107605
H12   H     H_    0.193963 0.069457 0.564094 0.102293
H13   H     H_    0.283978 0.500370 0.564915 0.092561
H14   H     H_    0.727590 0.524631 0.450092 0.087704
H15   H     H_    0.772874 0.024776 0.549395 0.087022
H16   H     H_    0.225369 0.026551 0.450552 0.099446
H17   H     H_    0.470299 0.058718 0.128817 0.136817
H18   H     H_    0.529056 0.058623 0.871760 0.136785
H19   H     H_    0.970357 0.558752 0.128778 0.137270
H20   H     H_    0.029118 0.558589 0.871720 0.135517
H21   H     H_    0.983938 0.750291 0.064447 0.192267
H22   H     H_    0.015147 0.750198 0.936495 0.192646
H23   H     H_    0.483856 0.250275 0.064496 0.192001
H24   H     H_    0.515062 0.250212 0.936543 0.192991
H25   H     H_    0.299730 0.406478 0.055021 0.182318
H26   H     H_    0.700821 0.406460 0.944660 0.183456
H27   H     H_    0.799767 0.906534 0.055035 0.182885
H28   H     H_    0.200821 0.906470 0.944657 0.183544
H29   H     H_    0.228958 0.660899 0.052511 0.123673
H30   H     H_    0.770953 0.660757 0.947875 0.122677
H31   H     H_    0.728964 0.160929 0.052525 0.123599
H32   H     H_    0.270947 0.160773 0.947868 0.122563
H33   H     H_    0.195356 0.602596 0.942733 0.084089
H34   H     H_    0.804858 0.601839 0.057360 0.084126
H35   H     H_    0.695370 0.102613 0.942747 0.084174
H36   H     H_    0.304856 0.101852 0.057356 0.083843
H37   H     H_    0.468174 0.651751 0.427794 0.158868
H38   H     H_    0.418545 0.679363 0.548471 0.154295
H39   H     H_    0.082643 0.179998 0.451239 0.158102
H40   H     H_    0.032533 0.151298 0.571720 0.156006
H41   H     H_    0.482906 0.930671 0.437933 0.111767
H42   H     H_    0.520699 0.899713 0.552276 0.095451
H43   H     H_    0.979510 0.400056 0.448270 0.095696
H44   H     H_    0.017670 0.430259 0.562822 0.100898
O1    O     O_R   0.215090 0.709860 0.828130 -0.531605
O2    O     O_R   0.784910 0.709860 0.171870 -0.529267
O3    O     O_R   0.715090 0.209860 0.828130 -0.529181
O4    O     O_R   0.284910 0.209860 0.171870 -0.528692
O5    O     O_R   0.445660 0.919250 0.676780 -0.497567
O6    O     O_R   0.554340 0.919250 0.323220 -0.503416
O7    O     O_R   0.945660 0.419250 0.676780 -0.504928
O8    O     O_R   0.054340 0.419250 0.323220 -0.521021
O9    O     O_R   0.456260 0.718170 0.670000 -0.510908
O10   O     O_R   0.543740 0.718170 0.330000 -0.508058
O11   O     O_R   0.956260 0.218170 0.670000 -0.509139
O12   O     O_R   0.043740 0.218170 0.330000 -0.505193
O13   O     O_R   0.320940 0.626760 0.674370 -0.506354
O14   O     O_R   0.679060 0.626760 0.325630 -0.494426
O15   O     O_R   0.820940 0.126760 0.674370 -0.494192
O16   O     O_R   0.179060 0.126760 0.325630 -0.501849
O17   O     O_3   0.334530 0.834540 0.749640 -0.267886
O18   O     O_3   0.665470 0.834540 0.250360 -0.269130
O19   O     O_3   0.834530 0.334540 0.749640 -0.268104
O20   O     O_3   0.165470 0.334540 0.250360 -0.293087
O21   O     O_R   0.236990 0.958390 0.823710 -0.490761
O22   O     O_R   0.763010 0.958390 0.176290 -0.489526
O23   O     O_R   0.736990 0.458390 0.823710 -0.489404
O24   O     O_R   0.263010 0.458390 0.176290 -0.483665
O25   O     O_R   0.332380 0.074750 0.830850 -0.486535
O26   O     O_R   0.667620 0.074750 0.169150 -0.486406
O27   O     O_R   0.832380 0.574750 0.830850 -0.485999
O28   O     O_R   0.167620 0.574750 0.169150 -0.480719
O29   O     O_R   0.445800 0.917770 0.825070 -0.516605
O30   O     O_R   0.554200 0.917770 0.174930 -0.517845
O31   O     O_R   0.945800 0.417770 0.825070 -0.517744
O32   O     O_R   0.054200 0.417770 0.174930 -0.515672
O33   O     O_R   0.456410 0.716580 0.829970 -0.438098
O34   O     O_R   0.543590 0.716580 0.170030 -0.439258
O35   O     O_R   0.956410 0.216580 0.829970 -0.440265
O36   O     O_R   0.043590 0.216580 0.170030 -0.436154
O37   O     O_R   0.321080 0.625290 0.822650 -0.436670
O38   O     O_R   0.678920 0.625290 0.177350 -0.436274
O39   O     O_R   0.821080 0.125290 0.822650 -0.436338
O40   O     O_R   0.178920 0.125290 0.177350 -0.432473
O41   O     O_R   0.214930 0.711450 0.668160 -0.513598
O42   O     O_R   0.785070 0.711450 0.331840 -0.515519
O43   O     O_R   0.714930 0.211450 0.668160 -0.515876
O44   O     O_R   0.285070 0.211450 0.331840 -0.520192
O45   O     O_R   0.236850 0.959870 0.675420 -0.496937
O46   O     O_R   0.763150 0.959870 0.324580 -0.503763
O47   O     O_R   0.736850 0.459870 0.675420 -0.504166
O48   O     O_R   0.263150 0.459870 0.324580 -0.499415
O49   O     O_R   0.332230 0.076350 0.670880 -0.508588
O50   O     O_R   0.667770 0.076350 0.329120 -0.507488
O51   O     O_R   0.832230 0.576350 0.670880 -0.507802
O52   O     O_R   0.167770 0.576350 0.329120 -0.490099
Br1   Br    Br    0.540605 0.569858 0.920737 -0.389693
Br2   Br    Br    0.459939 0.570063 0.078714 -0.387588
Br3   Br    Br    0.040655 0.069870 0.920703 -0.392175
Br4   Br    Br    0.959971 0.070071 0.078681 -0.388413
Br5   Br    Br    0.368251 0.421862 0.912634 -0.440431
Br6   Br    Br    0.632390 0.421709 0.087107 -0.439857
Br7   Br    Br    0.868293 0.921940 0.912661 -0.440532
Br8   Br    Br    0.132383 0.921731 0.087097 -0.434963

loop_
_geom_bond_atom_site_label_1
_geom_bond_atom_site_label_2
_ccdc_geom_bond_type
C16   C28   D    
Cr3   O23   S    
C38   C70   S    
Cr9   O33   S    
C72   O16   A    
C37   C69   S    
Cr8   O8    S    
C9    H21   S    
Cr9   O9    S    
C35   C36   S    
C11   H23   S    
C2    O22   A    
Cr7   O7    S    
C81   C82   A    
C3    O27   A    
C62   O50   A    
C77   C78   A    
C31   C67   S    
C29   H42   S    
Cr1   O1    S    
C28   Br8   S    
C75   C79   A    
C41   H9    S    
C10   H22   S    
Cr5   O49   S    
Cr7   O27   S    
Cr8   O32   S    
C47   C76   S    
C66   O10   A    
Cr3   O43   S    
C49   C53   S    
C75   C84   A    
Cr4   O44   S    
C13   C57   S    
C34   H38   S    
Cr12  O12   S    
C55   H7    S    
C24   H28   S    
Cr1   O21   S    
C3    C18   S    
C16   C60   S    
C7    H19   S    
Cr11  O35   S    
C6    H18   S    
C48   O32   A    
Cr11  O11   S    
C70   O42   A    
C39   C55   D    
C20   C24   D    
C53   H5    S    
C40   C56   D    
C4    O24   A    
Cr2   O22   S    
C23   C27   S    
C38   H14   S    
C18   C22   D    
Cr12  O36   S    
C9    C10   A    
C2    O26   A    
Cr7   O19   S    
C68   O8    A    
C3    O23   A    
C32   C68   S    
C37   C53   D    
C44   C52   D    
C39   H15   S    
C59   O3    A    
Cr10  O18   S    
C30   H41   S    
C12   H24   S    
Cr6   O26   S    
C83   Br3   S    
C47   O31   A    
C48   C75   S    
C13   C25   D    
Cr1   O17   S    
C26   Br6   S    
C36   H40   S    
C76   C83   A    
C41   C49   D    
C64   O52   A    
C61   O45   A    
C22   H26   S    
C37   H13   S    
C44   H12   S    
C51   H3    S    
C14   C58   S    
C50   H2    S    
C66   O6    A    
C67   O11   A    
C32   C35   D    
C71   O43   A    
C27   Br7   S    
C56   H8    S    
C32   H43   S    
C40   H16   S    
C35   H39   S    
Cr9   O37   S    
C19   C23   D    
Cr3   O47   S    
C51   C55   S    
C18   H30   S    
Cr4   O24   S    
C81   Br1   S    
C29   C34   D    
C52   H4    S    
C69   O13   A    
C46   O30   A    
C45   C74   S    
Cr6   O18   S    
Cr5   O5    S    
C17   H29   S    
C68   O12   A    
C45   O33   A    
Cr2   O18   S    
Cr8   O28   S    
C15   C27   D    
C83   C84   A    
C38   C54   D    
C1    O25   A    
Cr10  O14   S    
C71   O15   A    
Cr6   O30   S    
C46   O34   A    
C33   C34   S    
C58   O38   A    
C50   C54   S    
C14   C26   D    
Cr9   O17   S    
C42   H10   S    
C72   O44   A    
C64   O48   A    
C42   C50   D    
C29   C65   S    
C4    C17   S    
C30   C66   S    
Cr11  O39   S    
Cr12  O20   S    
Cr10  O34   S    
Cr2   O46   S    
C63   O47   A    
Cr7   O31   S    
C5    C11   A    
C67   O7    A    
Cr11  O19   S    
C76   C80   A    
C74   C81   A    
C5    C77   A    
C6    C12   A    
C73   C82   A    
Cr2   O2    S    
C7    C79   A    
Cr6   O50   S    
C7    C9    A    
C14   H34   S    
C21   C25   S    
C1    C20   S    
Cr1   O41   S    
C58   O2    A    
C40   C72   S    
C30   C33   D    
C5    H17   S    
C2    C19   S    
C70   O14   A    
C15   C59   S    
C54   H6    S    
C33   H37   S    
C24   C28   S    
Cr2   O42   S    
Cr10  O38   S    
C45   O29   A    
C23   H27   S    
C11   C12   A    
C25   Br5   S    
Cr5   O17   S    
C57   O1    A    
C44   C61   S    
C60   O40   A    
C74   C78   A    
C41   C64   S    
C62   O46   A    
C20   H32   S    
Cr8   O20   S    
Cr12  O40   S    
C59   O39   A    
Cr5   O29   S    
Cr6   O6    S    
Cr1   O45   S    
C60   O4    A    
C57   O37   A    
C43   C51   D    
Cr12  O16   S    
Cr7   O51   S    
C84   Br4   S    
C63   O51   A    
C52   C56   S    
C19   H31   S    
Cr3   O19   S    
Cr9   O13   S    
Cr11  O15   S    
Cr4   O20   S    
C21   H25   S    
C16   H36   S    
C17   C21   D    
C82   Br2   S    
C49   H1    S    
C6    C78   A    
C8    H20   S    
C47   O35   A    
C1    O21   A    
C79   C80   A    
C4    O28   A    
Cr10  O10   S    
Cr4   O48   S    
C15   H35   S    
C73   C77   A    
C8    C10   A    
C22   C26   S    
C8    C80   A    
C65   O9    A    
C39   C71   S    
C31   C36   D    
C61   O49   A    
Cr3   O3    S    
C31   H44   S    
C43   H11   S    
C65   O5    A    
C42   C63   S    
Cr4   O4    S    
C46   C73   S    
C13   H33   S    
Cr8   O52   S    
C43   C62   S    
C69   O41   A    
C48   O36   A    
Cr5   O25   S    
