data_mof_unit_24871.cif
_audit_creation_date              2012-12-10T17:04:34-0500
_audit_creation_method            fapswitch 2.2
_symmetry_space_group_name_H-M    P1
_symmetry_Int_Tables_number       1
_space_group_crystal_system       triclinic
_cell_length_a                    14.94156
_cell_length_b                    10.744778
_cell_length_c                    10.025324
_cell_angle_alpha                 89.970109
_cell_angle_beta                  89.878087
_cell_angle_gamma                 90.018688
_cell_volume                      1609.49911284

loop_
_atom_site_label
_atom_site_type_symbol
_atom_type_description
_atom_site_fract_x
_atom_site_fract_y
_atom_site_fract_z
_atom_type_partial_charge
C1    C     C_R   0.502394 0.262705 0.499890 0.933076
C2    C     C_R   0.185397 0.435181 0.598588 -0.220655
C3    C     C_R   0.231270 0.502299 0.501125 -0.064004
C4    C     C_R   0.326870 0.500068 0.500185 0.884080
C5    C     C_R   0.186235 0.573306 0.406289 -0.247310
C6    C     C_2   0.507502 0.932977 0.387898 -0.141319
C7    C     C_2   0.491242 0.868952 0.499499 -0.326222
C8    C     C_2   0.502240 0.066884 0.387195 -0.149043
C9    C     C_2   0.512066 0.131303 0.499988 -0.322888
C10   C     C_2   0.561879 0.553195 0.924768 -0.124603
C11   C     C_2   0.558962 0.559356 0.074795 -0.126065
C12   C     C_R   0.906767 0.583602 0.410432 0.091226
C13   C     C_R   0.498414 0.737320 0.499876 0.938536
C14   C     C_R   0.673099 0.500279 0.499922 0.892142
C15   C     C_R   0.813759 0.575827 0.407378 -0.221610
C16   C     C_R   0.768671 0.503066 0.500652 -0.077384
C17   C     C_R   0.813912 0.435233 0.597290 -0.219611
C18   C     C_R   0.906511 0.437871 0.601435 0.000606
C19   C     C_R   0.953224 0.511431 0.506708 0.000852
C20   C     C_3   0.881911 0.350592 0.898922 0.070821
C21   C     C_3   0.951828 0.335097 0.009208 -0.354971
C22   C     C_3   0.914838 0.376530 0.143932 -0.909432
C23   C     C_R   0.953258 0.366672 0.696812 0.486509
C24   C     C_2   0.910416 0.740703 0.219105 0.925179
C25   C     C_R   0.046312 0.366126 0.694843 -0.297245
C26   C     C_R   0.092791 0.437212 0.600863 0.043314
C27   C     C_R   0.046420 0.509822 0.506068 0.059145
C28   C     C_R   0.093602 0.578591 0.408921 0.143616
C29   C     C_R   0.048066 0.651839 0.316268 -0.301075
C30   C     C_R   0.954792 0.656996 0.316932 -0.129309
H1    H     H_    0.775311 0.625402 0.333049 0.172847
H2    H     H_    0.082129 0.308345 0.765534 0.164804
H3    H     H_    0.221921 0.379832 0.670873 0.149958
H4    H     H_    0.223503 0.625947 0.332291 0.154051
H5    H     H_    0.085495 0.706704 0.244394 0.158513
H6    H     H_    0.523480 0.886968 0.294307 0.178825
H7    H     H_    0.817964 0.308108 0.932811 0.182388
H8    H     H_    0.867659 0.451467 0.882086 0.126633
H9    H     H_    0.972310 0.235861 0.016196 0.254609
H10   H     H_    0.011851 0.391828 0.984730 0.204224
H11   H     H_    0.888883 0.473009 0.136952 0.256212
H12   H     H_    0.470155 0.911871 0.592187 0.151009
H13   H     H_    0.968725 0.373303 0.219969 0.271897
H14   H     H_    0.859686 0.313957 0.176151 0.276590
H15   H     H_    0.979530 0.672524 0.061414 0.298265
H16   H     H_    0.490482 0.112379 0.291996 0.174766
H17   H     H_    0.529663 0.088755 0.594418 0.156026
H18   H     H_    0.618183 0.597100 0.875042 0.170629
H19   H     H_    0.445172 0.465579 0.898021 0.162954
H20   H     H_    0.609877 0.614507 0.124208 0.168145
H21   H     H_    0.455698 0.443637 0.102311 0.162853
H22   H     H_    0.776293 0.378798 0.667414 0.179550
N1    N     N_2   0.500970 0.501330 0.852150 -0.194620
N2    N     N_2   0.500990 0.501360 0.147810 -0.196005
O1    O     O_R   0.499990 0.319060 0.613040 -0.618156
O2    O     O_2   0.853382 0.814072 0.256891 -0.576788
O3    O     O_R   0.934740 0.740040 0.084305 -0.770595
O4    O     O_R   0.500010 0.319100 0.386900 -0.613355
O5    O     O_R   0.367830 0.499950 0.613080 -0.621581
O6    O     O_R   0.367860 0.499990 0.386940 -0.620144
O7    O     O_R   0.499990 0.680900 0.613100 -0.609832
O8    O     O_R   0.500010 0.680940 0.386960 -0.614705
O9    O     O_R   0.632140 0.500010 0.613060 -0.622587
O10   O     O_R   0.632170 0.500050 0.386920 -0.618312
O11   O     O_3   0.908945 0.286378 0.782411 -0.634458
Zn1   Zn    Zn3+2 0.499980 0.499970 0.650990 0.950229
Zn2   Zn    Zn3+2 0.500020 0.500030 0.349010 0.948806

loop_
_geom_bond_atom_site_label_1
_geom_bond_atom_site_label_2
_ccdc_geom_bond_type
C8    C9    D    
C12   C19   A    
C15   H1    S    
C6    C7    D    
N1    Zn1   S    
C24   O2    D    
C5    C28   A    
C20   H8    S    
C29   H5    S    
C22   H13   S    
C21   H9    S    
C12   C15   A    
H21   N2    S    
C14   O10   A    
C5    H4    S    
C4    O6    A    
C25   H2    S    
C2    C3    A    
C1    O1    A    
O9    Zn1   S    
C13   O7    A    
C2    C26   A    
C11   H20   S    
C1    O4    A    
C20   H7    S    
C11   N2    D    
C23   O11   S    
C26   C27   A    
C29   C30   A    
C21   H10   S    
O8    Zn2   S    
H19   N1    S    
C14   O9    A    
C17   H22   S    
C19   C27   A    
C6    H6    S    
C17   C18   A    
C14   C16   S    
C23   C25   A    
O5    Zn1   S    
C10   H18   S    
H15   O3    S    
C24   C30   S    
C9    H17   S    
C10   C11   S    
C13   O8    A    
C18   C23   A    
C22   H11   S    
O10   Zn2   S    
O4    Zn2   S    
C7    C13   S    
O1    Zn1   S    
C1    C9    S    
C20   C21   S    
C4    O5    A    
C18   C19   A    
C20   O11   S    
C7    H12   S    
C27   C28   A    
C10   N1    D    
C24   O3    S    
C6    C8    S    
N2    Zn2   S    
C8    H16   S    
C12   C30   A    
C25   C26   A    
C21   C22   S    
O7    Zn1   S    
C22   H14   S    
C28   C29   A    
C15   C16   A    
O6    Zn2   S    
C2    H3    S    
C16   C17   A    
C3    C5    A    
C3    C4    S    
