data_mof_unit_34318.cif
_audit_creation_date              2013-03-05T15:41:13-0500
_audit_creation_method            fapswitch 2.2
_symmetry_space_group_name_H-M    P1
_symmetry_Int_Tables_number       1
_space_group_crystal_system       triclinic
_cell_length_a                    16.842393
_cell_length_b                    16.842305
_cell_length_c                    16.755574
_cell_angle_alpha                 68.678129
_cell_angle_beta                  68.675165
_cell_angle_gamma                 68.385561
_cell_volume                      3968.85726141

loop_
_atom_site_label
_atom_site_type_symbol
_atom_site_description
_atom_site_fract_x
_atom_site_fract_y
_atom_site_fract_z
_atom_type_partial_charge
O1    O     O_R   0.124540 0.978640 0.385460 -0.550362
O2    O     O_R   0.875460 0.021360 0.614540 -0.529725
O3    O     O_R   0.978640 0.385460 0.124540 -0.526037
O4    O     O_R   0.021360 0.614540 0.875460 -0.580121
O5    O     O_R   0.385460 0.124540 0.978640 -0.549281
O6    O     O_R   0.614540 0.875460 0.021360 -0.544230
O7    O     O_R   0.614540 0.021360 0.875460 -0.526093
O8    O     O_R   0.385460 0.978640 0.124540 -0.580097
O9    O     O_R   0.875460 0.614540 0.021360 -0.549272
O10   O     O_R   0.124540 0.385460 0.978640 -0.544206
O11   O     O_R   0.021360 0.875460 0.614540 -0.550516
O12   O     O_R   0.978640 0.124540 0.385460 -0.529532
C1    C     C_R   0.325156 0.938959 0.455743 -0.052923
C2    C     C_R   0.680175 0.030760 0.548891 -0.072213
C3    C     C_R   0.015187 0.426593 0.309442 -0.072496
C4    C     C_R   0.053380 0.549140 0.675538 -0.060848
C5    C     C_R   0.436498 0.312850 0.997634 -0.063597
C6    C     C_R   0.549066 0.678464 0.041823 -0.086886
C7    C     C_R   0.573452 0.984774 0.690547 -0.072383
C8    C     C_R   0.450859 0.946637 0.324444 -0.061007
C9    C     C_R   0.687122 0.563415 0.002476 -0.063457
C10   C     C_R   0.321539 0.450926 0.958144 -0.086900
C11   C     C_R   0.060976 0.674866 0.544274 -0.052993
C12   C     C_R   0.969277 0.319823 0.451074 -0.071818
Cu1   Cu    Cu3+1 0.995180 0.995180 0.424630 1.062753
Cu2   Cu    Cu3+1 0.004820 0.004820 0.575370 1.061982
Cu3   Cu    Cu3+1 0.995180 0.424630 0.995180 1.019086
Cu4   Cu    Cu3+1 0.004820 0.575370 0.004820 0.967576
Cu5   Cu    Cu3+1 0.424630 0.995180 0.995180 0.967559
Cu6   Cu    Cu3+1 0.575370 0.004820 0.004820 1.018790
C13   C     C_R   0.026525 0.828882 0.565087 0.850035
C14   C     C_R   0.971884 0.172047 0.435641 0.851154
C15   C     C_R   0.830536 0.568440 0.017184 0.861573
C16   C     C_R   0.171179 0.434938 0.973273 0.968102
C17   C     C_R   0.568290 0.018017 0.829912 0.863729
C18   C     C_R   0.433703 0.976011 0.170925 0.950455
C19   C     C_R   0.431555 0.169462 0.982816 0.861909
C20   C     C_R   0.565064 0.828821 0.026715 0.968040
C21   C     C_R   0.981993 0.431710 0.170080 0.863800
C22   C     C_R   0.023988 0.566295 0.829073 0.950235
C23   C     C_R   0.171121 0.973455 0.434920 0.850031
C24   C     C_R   0.827944 0.028168 0.564338 0.850578
O13   O     O_R   0.013780 0.867370 0.487190 -0.580167
O14   O     O_R   0.986220 0.132630 0.512810 -0.590444
O15   O     O_R   0.867370 0.487190 0.013780 -0.614803
O16   O     O_R   0.132630 0.512810 0.986220 -0.612380
O17   O     O_R   0.487190 0.013780 0.867370 -0.624656
O18   O     O_R   0.512810 0.986220 0.132630 -0.599888
O19   O     O_R   0.512810 0.132630 0.986220 -0.614812
O20   O     O_R   0.487190 0.867370 0.013780 -0.612410
O21   O     O_R   0.986220 0.512810 0.132630 -0.624697
O22   O     O_R   0.013780 0.487190 0.867370 -0.599787
O23   O     O_R   0.132630 0.986220 0.512810 -0.580435
O24   O     O_R   0.867370 0.013780 0.487190 -0.589241
C25   C     C_R   0.411413 0.948436 0.413917 0.045171
C26   C     C_R   0.602692 0.001579 0.596929 0.037700
C27   C     C_R   0.998388 0.397343 0.403056 0.037474
C28   C     C_R   0.051510 0.588608 0.586090 0.045255
C29   C     C_R   0.403089 0.406089 0.980652 0.022611
C30   C     C_R   0.593889 0.596870 0.019396 0.022668
C31   C     C_R   0.268785 0.957896 0.399931 -0.197441
C32   C     C_R   0.729346 0.039599 0.598087 -0.174232
C33   C     C_R   0.983276 0.390852 0.265701 -0.167731
C34   C     C_R   0.038096 0.602974 0.731091 -0.122278
C35   C     C_R   0.391511 0.264458 0.983230 -0.160807
C36   C     C_R   0.601090 0.731353 0.037691 -0.126246
C37   C     C_R   0.609147 0.016755 0.734276 -0.167838
C38   C     C_R   0.397025 0.961900 0.268908 -0.122173
C39   C     C_R   0.735532 0.608457 0.016786 -0.160911
C40   C     C_R   0.268645 0.398908 0.962277 -0.126164
C41   C     C_R   0.042066 0.731225 0.600083 -0.197437
C42   C     C_R   0.960496 0.270630 0.401863 -0.173028
C43   C     C_R   0.512637 0.932319 0.736749 -0.063212
C44   C     C_R   0.544304 0.927258 0.295392 -0.045509
C45   C     C_R   0.088781 0.699424 0.448977 -0.005436
C46   C     C_R   0.952431 0.293645 0.545842 -0.027651
C47   C     C_R   0.728432 0.487228 0.968545 -0.061522
C48   C     C_R   0.295228 0.545907 0.936681 -0.052215
C49   C     C_R   0.300616 0.911128 0.551043 -0.005508
C50   C     C_R   0.706335 0.047592 0.454129 -0.025847
C51   C     C_R   0.512556 0.271515 0.031754 -0.061514
C52   C     C_R   0.454087 0.704814 0.063220 -0.052168
C53   C     C_R   0.067586 0.487457 0.263249 -0.063140
C54   C     C_R   0.072917 0.455679 0.704511 -0.045755
C55   C     C_R   0.304547 0.973975 0.306088 0.378094
C56   C     C_R   0.685324 0.047764 0.685450 0.430714
C57   C     C_R   0.952364 0.314621 0.314493 0.430110
C58   C     C_R   0.025996 0.695459 0.693923 0.378098
C59   C     C_R   0.306541 0.307189 0.969308 0.415330
C60   C     C_R   0.692808 0.693450 0.030660 0.415369
H1    H     H_    0.354102 0.892531 0.810757 0.166363
H2    H     H_    0.703898 0.961702 0.222295 0.157195
H3    H     H_    0.118937 0.734713 0.266151 0.194842
H4    H     H_    0.986803 0.225850 0.711372 0.200900
H5    H     H_    0.786089 0.307730 0.986677 0.172785
H6    H     H_    0.222744 0.708998 0.972707 0.153078
H7    H     H_    0.265440 0.880801 0.733889 0.194873
H8    H     H_    0.773532 0.014537 0.288133 0.200231
H9    H     H_    0.691943 0.213676 0.014126 0.172356
H10   H     H_    0.291077 0.777351 0.027032 0.153019
H11   H     H_    0.107215 0.646060 0.189268 0.166403
H12   H     H_    0.039287 0.295684 0.777274 0.157349
C61   C     C_R   0.669821 0.014106 0.413234 0.015598
C62   C     C_R   0.349071 0.921261 0.599734 0.017641
C63   C     C_R   0.042255 0.413516 0.667586 0.039360
C64   C     C_R   0.065267 0.546032 0.307433 0.041325
C65   C     C_R   0.411741 0.669530 0.029783 0.061749
C66   C     C_R   0.571484 0.321704 0.011825 0.030962
C67   C     C_R   0.586396 0.958002 0.332296 0.039334
C68   C     C_R   0.454078 0.934571 0.692579 0.041376
C69   C     C_R   0.330514 0.588279 0.970089 0.061643
C70   C     C_R   0.678188 0.428331 0.988544 0.030522
C71   C     C_R   0.986086 0.330072 0.586688 0.015735
C72   C     C_R   0.078579 0.651015 0.400290 0.017687
C73   C     C_R   0.709694 0.003623 0.326143 -0.164369
C74   C     C_R   0.324369 0.901595 0.693571 -0.164916
C75   C     C_R   0.028950 0.329260 0.711618 -0.138956
C76   C     C_R   0.091967 0.624049 0.261122 -0.121041
C77   C     C_R   0.326372 0.712291 0.016313 -0.106576
C78   C     C_R   0.662080 0.283799 0.008440 -0.132479
C79   C     C_R   0.670468 0.971711 0.288091 -0.137490
C80   C     C_R   0.376092 0.907812 0.738900 -0.121058
C81   C     C_R   0.287780 0.673685 0.983477 -0.106582
C82   C     C_R   0.716007 0.337676 0.992161 -0.132672
C83   C     C_R   0.997096 0.289965 0.673576 -0.162737
C84   C     C_R   0.098184 0.675761 0.306458 -0.164826
C85   C     C_R   0.545086 0.970022 0.417870 0.029391
C86   C     C_R   0.477652 0.958500 0.599255 0.026707
C87   C     C_R   0.009701 0.409809 0.538948 0.035737
C88   C     C_R   0.051557 0.572710 0.446664 0.034362
C89   C     C_R   0.412228 0.543596 0.989951 0.022071
C90   C     C_R   0.586776 0.463386 0.000218 0.032311
C91   C     C_R   0.590195 0.990299 0.461031 0.036078
C92   C     C_R   0.427369 0.948296 0.553357 0.034450
C93   C     C_R   0.456402 0.587773 0.010008 0.022117
C94   C     C_R   0.536514 0.413144 0.999989 0.032265
C95   C     C_R   0.030005 0.454907 0.582104 0.029801
C96   C     C_R   0.041351 0.522438 0.400759 0.026732
C97   C     C_R   0.460936 0.955678 0.462077 -0.020710
C98   C     C_R   0.556099 0.985144 0.552003 -0.016554
C99   C     C_R   0.014763 0.443961 0.447998 -0.016534
C100  C     C_R   0.044240 0.539103 0.537931 -0.020645
C101  C     C_R   0.450629 0.454463 0.989692 -0.027207
C102  C     C_R   0.545503 0.549326 0.010374 -0.027130
O25   O     O_3   0.247829 0.020080 0.250321 -0.557667
C103  C     C_3   0.226649 0.962384 0.221506 -0.065841
H13   H     H_    0.239704 0.983444 0.148158 0.162850
H14   H     H_    0.154437 0.970564 0.243008 0.202945
H15   H     H_    0.263155 0.891718 0.242362 0.138553
O26   O     O_3   0.716969 0.087012 0.722626 -0.564176
C104  C     C_3   0.666184 0.176480 0.712496 -0.243562
H16   H     H_    0.594892 0.182662 0.747552 0.122782
H17   H     H_    0.673145 0.212811 0.641083 0.207507
H18   H     H_    0.689872 0.209219 0.742597 0.194707
O27   O     O_3   0.913294 0.282866 0.277241 -0.564411
C105  C     C_3   0.823765 0.333444 0.287421 -0.243487
H19   H     H_    0.817395 0.404839 0.252719 0.122760
H20   H     H_    0.787383 0.326108 0.358864 0.208161
H21   H     H_    0.791253 0.309857 0.256977 0.194967
O28   O     O_3   0.979881 0.752174 0.749697 -0.557690
C106  C     C_3   0.037567 0.773365 0.778513 -0.065908
H22   H     H_    0.029386 0.845577 0.757005 0.202879
H23   H     H_    0.108236 0.736860 0.757665 0.138556
H24   H     H_    0.016495 0.760319 0.851861 0.162859
O29   O     O_3   0.256212 0.256127 0.973026 -0.537854
C107  C     C_3   0.261869 0.257634 0.886247 -0.204260
H25   H     H_    0.288022 0.189211 0.878779 0.174128
H26   H     H_    0.304483 0.298233 0.831904 0.136629
H27   H     H_    0.194040 0.282009 0.877770 0.203196
O30   O     O_3   0.743873 0.743780 0.026934 -0.537837
C108  C     C_3   0.742314 0.738181 0.113716 -0.204519
H28   H     H_    0.810713 0.711810 0.121308 0.174082
H29   H     H_    0.701480 0.695778 0.168086 0.137073
H30   H     H_    0.718145 0.806066 0.122054 0.203333
C109  C     C_2   0.537267 0.850543 0.808121 0.863232
O31   O     O_2   0.601280 0.836751 0.834343 -0.606705
O32   O     O_R   0.495306 0.783557 0.836532 -0.769768
H31   H     H_    0.528739 0.725870 0.871134 0.339630
C110  C     C_2   0.593582 0.841780 0.272023 0.821172
O33   O     O_2   0.560037 0.808224 0.243493 -0.592614
O34   O     O_R   0.674509 0.794497 0.293110 -0.777800
H32   H     H_    0.694457 0.730679 0.290841 0.320565
C111  C     C_2   0.147812 0.758567 0.402614 0.822868
O35   O     O_2   0.131580 0.821675 0.340000 -0.648923
O36   O     O_R   0.221242 0.742618 0.432129 -0.732005
H33   H     H_    0.257012 0.786915 0.395211 0.334261
C112  C     C_2   0.881702 0.248352 0.601738 0.871386
O37   O     O_2   0.813717 0.270370 0.579014 -0.622585
O38   O     O_R   0.894126 0.178404 0.677091 -0.773262
H34   H     H_    0.843135 0.150628 0.707245 0.363216
C113  C     C_2   0.802300 0.490797 0.885049 0.888574
O39   O     O_2   0.826228 0.558606 0.846099 -0.595001
O40   O     O_R   0.839153 0.420018 0.846449 -0.785784
H35   H     H_    0.879624 0.435833 0.784955 0.336182
C114  C     C_2   0.260065 0.598866 0.857224 0.852553
O41   O     O_2   0.241268 0.562902 0.817567 -0.581915
O42   O     O_R   0.258431 0.688310 0.821433 -0.788324
H36   H     H_    0.247928 0.713145 0.760295 0.340193
C115  C     C_2   0.241401 0.852172 0.597407 0.822879
O43   O     O_2   0.178307 0.868446 0.660023 -0.648938
O44   O     O_R   0.257266 0.778765 0.567890 -0.732075
H37   H     H_    0.212931 0.743039 0.604813 0.334193
C116  C     C_2   0.751636 0.118236 0.398178 0.870003
O45   O     O_2   0.728383 0.187018 0.419748 -0.622492
O46   O     O_R   0.822773 0.104946 0.323964 -0.771758
H38   H     H_    0.850004 0.156297 0.293255 0.362931
C117  C     C_2   0.508744 0.197775 0.115355 0.888147
O47   O     O_2   0.441043 0.173606 0.153927 -0.595031
O48   O     O_R   0.579058 0.161442 0.154552 -0.785826
H39   H     H_    0.562934 0.121243 0.216141 0.336250
C118  C     C_2   0.401088 0.739975 0.142677 0.852595
O49   O     O_2   0.437026 0.758729 0.182391 -0.582052
O50   O     O_R   0.311626 0.741656 0.178395 -0.788278
H40   H     H_    0.286755 0.752130 0.239548 0.340197
C119  C     C_2   0.149378 0.462879 0.191860 0.863302
O51   O     O_2   0.163246 0.398834 0.165653 -0.606721
O52   O     O_R   0.216292 0.504940 0.163410 -0.769760
H41   H     H_    0.274000 0.471549 0.128789 0.339620
C120  C     C_2   0.158418 0.406528 0.727865 0.821097
O53   O     O_2   0.191801 0.440095 0.756558 -0.592437
O54   O     O_R   0.205924 0.325722 0.706577 -0.777774
H42   H     H_    0.269716 0.305881 0.708900 0.320661

loop_
_geom_bond_atom_site_label_1
_geom_bond_atom_site_label_2
_geom_bond_distance
_ccdc_geom_bond_type
C7    C26   1.414632 A    
H5    C82   1.082711 S    
C11   C28   1.405731 A    
C2    C26   1.418923 A    
C108  H28   1.108660 S    
C1    C49   1.434837 A    
C90   C102  1.399657 A    
O29   C107  1.413550 S    
C73   C79   1.396078 A    
O5    C19   1.300308 A    
C30   C102  1.409438 A    
C15   O15   1.290869 A    
O44   H37   1.013246 S    
C66   C78   1.408811 A    
C21   O21   1.296296 A    
C23   C31   1.486879 S    
C95   C100  1.405109 A    
C45   C111  1.479631 S    
Cu1   O13   1.982874 S    
C44   C67   1.405384 A    
O25   C103  1.423525 S    
O36   H33   1.013256 S    
Cu2   O14   1.982873 S    
C43   C68   1.415916 A    
C14   C42   1.508268 S    
O50   H40   1.010612 S    
C35   C59   1.407969 A    
C108  H29   1.116229 S    
Cu4   O16   1.980155 S    
Cu5   Cu6   2.668161 S    
C71   C87   1.408001 A    
Cu5   O17   1.977033 S    
H11   C76   1.083314 S    
Cu6   O18   1.977031 S    
C105  H19   1.112379 S    
C55   O25   1.401316 S    
C66   C94   1.397366 A    
C94   C101  1.399656 A    
C89   C93   1.411232 A    
C111  O36   1.396315 S    
C107  H27   1.106287 S    
C72   C84   1.414876 A    
Cu4   O21   1.977069 S    
C64   C96   1.404752 A    
C50   C116  1.487983 S    
C87   C99   1.401660 A    
O30   C108  1.413589 S    
C2    C32   1.436675 A    
O34   H32   1.011917 S    
C4    C54   1.414430 A    
C25   C97   1.413428 A    
O8    C18   1.293829 A    
C104  H18   1.108270 S    
H3    C84   1.077237 S    
C65   C93   1.399681 A    
C106  H23   1.109673 S    
H9    C78   1.082730 S    
C62   C74   1.414903 A    
C105  H20   1.112856 S    
C67   C85   1.400978 A    
C13   O13   1.286789 A    
C44   C110  1.485945 S    
C20   C36   1.491503 S    
C12   C27   1.418860 A    
H1    C80   1.083313 S    
C19   C35   1.491465 S    
C104  H16   1.112224 S    
O6    C20   1.302319 A    
C7    C37   1.426301 A    
C48   C69   1.421530 A    
C16   O16   1.290694 A    
C2    C50   1.432285 A    
C16   C40   1.491435 S    
O5    Cu5   1.973276 S    
O10   Cu3   1.973267 S    
C15   C39   1.491501 S    
C24   C32   1.508363 S    
C51   C117  1.495645 S    
Cu3   Cu4   2.668139 S    
C33   C57   1.416822 A    
Cu3   O15   1.980156 S    
C104  H17   1.112783 S    
C51   C66   1.408133 A    
O11   C13   1.295986 A    
C115  O43   1.220157 D    
O7    Cu6   1.966516 S    
C64   C76   1.403906 A    
C107  H26   1.115905 S    
C38   C55   1.417207 A    
C3    C27   1.414594 A    
C1    C31   1.443411 A    
C63   C75   1.400329 A    
O38   H34   1.010047 S    
C85   C97   1.405101 A    
C29   C101  1.409397 A    
C8    C25   1.408414 A    
C6    C52   1.435264 A    
C65   C77   1.411338 A    
C106  H24   1.108373 S    
O4    Cu4   1.966536 S    
O48   H39   1.010258 S    
C103  H14   1.105419 S    
Cu5   O20   1.980172 S    
C108  H30   1.106514 S    
C49   C115  1.479597 S    
C50   C61   1.417333 A    
C69   C81   1.411356 A    
C117  O47   1.224002 D    
C47   C113  1.495569 S    
C11   C41   1.443283 A    
C7    C43   1.421807 A    
Cu1   O24   1.982822 S    
C10   C48   1.435275 A    
C9    C30   1.415675 A    
C109  O32   1.396798 S    
C10   C29   1.415804 A    
C45   C72   1.431297 A    
C12   C46   1.432355 A    
C3    C53   1.421752 A    
O11   Cu2   1.975133 S    
O52   H41   1.010905 S    
C22   O22   1.297380 A    
C63   C95   1.401038 A    
C113  O39   1.224089 D    
C9    C39   1.424052 A    
C43   C109  1.497090 S    
C47   C70   1.408141 A    
C61   C73   1.413807 A    
C119  O51   1.222768 D    
C113  O40   1.395784 S    
C111  O35   1.220147 D    
O4    C22   1.293841 A    
O54   H42   1.011922 S    
C54   C120  1.485996 S    
C86   C92   1.419593 A    
C120  O54   1.401016 S    
C103  H15   1.109673 S    
C116  O46   1.397549 S    
C28   C100  1.413376 A    
C118  O49   1.222956 D    
C17   C37   1.501260 S    
C90   C94   1.401833 A    
C59   O29   1.386247 S    
C60   O30   1.386255 S    
C18   C38   1.490046 S    
C46   C71   1.417674 A    
C14   O14   1.286716 A    
C8    C44   1.414348 A    
O2    Cu2   1.975103 S    
H10   C77   1.082537 S    
C4    C28   1.408387 A    
C52   C65   1.421506 A    
C70   C90   1.397320 A    
H7    C74   1.077237 S    
C41   C58   1.424854 A    
C46   C112  1.488836 S    
C23   O23   1.286758 A    
C19   O19   1.290947 A    
H12   C75   1.083834 S    
C62   C92   1.410657 A    
O9    C15   1.300396 A    
O10   C16   1.302265 A    
C69   C89   1.399706 A    
C93   C102  1.399747 A    
O6    Cu6   1.973276 S    
Cu6   O19   1.980173 S    
C5    C29   1.415674 A    
O40   H35   1.010238 S    
C107  H25   1.108385 S    
C57   O27   1.381803 S    
C49   C62   1.431396 A    
C40   C59   1.415455 A    
C54   C63   1.405632 A    
O8    Cu5   1.966514 S    
C39   C60   1.407979 A    
C88   C96   1.419524 A    
Cu2   O23   1.982823 S    
C92   C97   1.399608 A    
C42   C57   1.411783 A    
C89   C101  1.399759 A    
Cu3   O22   1.977070 S    
C12   C42   1.436657 A    
C117  O48   1.395650 S    
C103  H13   1.108370 S    
C74   C80   1.397480 A    
H4    C83   1.076081 S    
O1    C23   1.296041 A    
C120  O53   1.222835 D    
O46   H38   1.009986 S    
C37   C56   1.416933 A    
H6    C81   1.082534 S    
C118  O50   1.397964 S    
O7    C17   1.299359 A    
C8    C38   1.421986 A    
C105  H21   1.108428 S    
C85   C91   1.409671 A    
C11   C45   1.434760 A    
C96   C99   1.411194 A    
C52   C118  1.496497 S    
C53   C119  1.497120 S    
O1    Cu1   1.975103 S    
C70   C82   1.408861 A    
C20   O20   1.290678 A    
C77   C81   1.406984 A    
C110  O33   1.222822 D    
C6    C36   1.432505 A    
C21   C33   1.501146 S    
C72   C88   1.410672 A    
C5    C35   1.423924 A    
C22   C34   1.490074 S    
C53   C64   1.415844 A    
C27   C99   1.414243 A    
O12   Cu1   1.975133 S    
O28   C106  1.423524 S    
C56   O26   1.381843 S    
C31   C55   1.424867 A    
Cu1   Cu2   2.654796 S    
C112  O37   1.222768 D    
C76   C84   1.397416 A    
C109  O31   1.222761 D    
C106  H22   1.105421 S    
H2    C79   1.083792 S    
C24   O24   1.286689 A    
C67   C79   1.400227 A    
H8    C73   1.076031 S    
O2    C24   1.308832 A    
C26   C98   1.414311 A    
C71   C83   1.413893 A    
O3    Cu3   1.966535 S    
C36   C60   1.415447 A    
C34   C58   1.417270 A    
C18   O18   1.297383 A    
C5    C51   1.427824 A    
C48   C114  1.496506 S    
C58   O28   1.401312 S    
C61   C91   1.407890 A    
O42   H36   1.010615 S    
C88   C100  1.399638 A    
C13   C41   1.486847 S    
C6    C30   1.415828 A    
C68   C80   1.403938 A    
C112  O38   1.398079 S    
C119  O52   1.396793 S    
O3    C21   1.299315 A    
C114  O41   1.222944 D    
C87   C95   1.409746 A    
C91   C98   1.401648 A    
O32   H31   1.010909 S    
C9    C47   1.427905 A    
O27   C105  1.414484 S    
C115  O44   1.396312 S    
C3    C33   1.426214 A    
O26   C104  1.414596 S    
C110  O34   1.400995 S    
C32   C56   1.411845 A    
C4    C34   1.422070 A    
C116  O45   1.221986 D    
C114  O42   1.397955 S    
C17   O17   1.296326 A    
C75   C83   1.396143 A    
C10   C40   1.432478 A    
O12   C14   1.308706 A    
C78   C82   1.403472 A    
O9    Cu4   1.973267 S    
C68   C86   1.404729 A    
C86   C98   1.411197 A    
C1    C25   1.405758 A    
