data_mof_unit_49585.cif
_audit_creation_date              2013-03-05T16:10:18-0500
_audit_creation_method            fapswitch 2.2
_symmetry_space_group_name_H-M    P1
_symmetry_Int_Tables_number       1
_space_group_crystal_system       triclinic
_cell_length_a                    8.404454
_cell_length_b                    15.153012
_cell_length_c                    18.971198
_cell_angle_alpha                 103.013274
_cell_angle_beta                  91.712847
_cell_angle_gamma                 98.913526
_cell_volume                      2320.28529228

loop_
_atom_site_label
_atom_site_type_symbol
_atom_site_description
_atom_site_fract_x
_atom_site_fract_y
_atom_site_fract_z
_atom_type_partial_charge
P1    P     P_3+3 0.039430 0.410940 0.333230 0.542247
O1    O     O_2   0.871960 0.437280 0.322960 -0.372179
O2    O     O_3   0.121410 0.444460 0.412450 -0.337333
O3    O     O_3   0.661450 0.607570 0.372550 -0.327056
O4    O     O_2   0.735069 0.523023 0.245678 -0.349865
O5    O     O_3   0.018889 0.290061 0.305019 -0.555608
O6    O     O_3   0.734212 0.695941 0.257927 -0.514073
C1    C     C_3   0.674175 0.799455 0.186239 -0.955072
H1    H     H_    0.674013 0.744908 0.136283 0.247451
P2    P     P_3+3 0.676770 0.715000 0.563590 0.515796
P3    P     P_3+3 0.133092 0.775167 0.420494 0.483191
O7    O     O_2   0.852310 0.726980 0.542430 -0.400125
O8    O     O_3   0.084010 0.657370 0.410280 -0.402004
O9    O     O_2   0.006022 0.820200 0.466608 -0.355023
O10   O     O_3   0.682149 0.740781 0.659179 -0.549189
O11   O     O_3   0.100673 0.798575 0.335476 -0.468378
C2    C     C_3   0.150622 0.729151 0.282631 0.540990
H2    H     H_    0.059248 0.665479 0.272952 0.121304
H3    H     H_    0.269595 0.713996 0.299134 -0.029280
C3    C     C_3   0.166696 0.760386 0.212077 -0.931428
H4    H     H_    0.049540 0.775575 0.193614 0.277503
H5    H     H_    0.259783 0.822951 0.220196 0.297912
C4    C     C_3   0.249498 0.742412 0.629994 0.417330
H6    H     H_    0.351377 0.709447 0.607515 0.113795
H7    H     H_    0.149352 0.729626 0.587591 0.104717
C5    C     C_3   0.305600 0.845659 0.656026 -1.000390
H8    H     H_    0.418404 0.859444 0.691559 0.288781
H9    H     H_    0.328358 0.877700 0.609685 0.212174
H10   H     H_    0.211485 0.878226 0.687022 0.258090
Ba1   Ba    Ba6+2 0.853520 0.540910 0.466490 1.661088
C6    C     C_3   0.891566 0.242605 0.334927 0.377223
H11   H     H_    0.801850 0.286876 0.353892 0.104604
C7    C     C_3   0.813605 0.156293 0.277613 -0.764789
H12   H     H_    0.751746 0.173962 0.232331 0.234285
H13   H     H_    0.723717 0.110982 0.300864 0.253452
H14   H     H_    0.905459 0.114766 0.255510 0.261041
C8    C     C_3   0.839613 0.761608 0.692695 0.342066
H15   H     H_    0.927170 0.801356 0.664682 0.061490
H16   H     H_    0.883716 0.697563 0.695661 0.107400
C9    C     C_3   0.836641 0.820054 0.769443 -0.749363
H17   H     H_    0.799224 0.886372 0.766108 0.198599
H18   H     H_    0.960039 0.835442 0.796622 0.174902
P4    P     P_3+3 0.150290 0.589140 0.666780 0.484903
O12   O     O_2   0.317750 0.562750 0.677090 -0.326244
O13   O     O_3   0.068300 0.555620 0.587560 -0.415604
O14   O     O_3   0.528270 0.392500 0.627460 -0.378546
O15   O     O_3   0.196780 0.709137 0.689587 -0.571922
P5    P     P_3+3 0.056836 0.228019 0.597747 0.471383
O16   O     O_3   0.609290 0.386840 0.459690 -0.349430
O17   O     O_3   0.105700 0.342700 0.589730 -0.283803
O18   O     O_2   0.173812 0.176992 0.549275 -0.447979
O19   O     O_3   0.112183 0.214661 0.685190 -0.586936
Ba2   Ba    Ba6+2 0.336320 0.459170 0.533520 1.625678
P6    P     P_3+3 0.632109 0.595552 0.279225 0.495861
C10   C     C_3   0.627922 0.757583 0.250545 0.404775
H19   H     H_    0.500208 0.724126 0.239636 -0.007325
H20   H     H_    0.586446 0.843899 0.176310 0.249121
O20   O     O_3   0.580430 0.613240 0.540320 -0.312007
C11   C     C_3   0.422561 0.203588 0.296165 0.278419
H21   H     H_    0.482460 0.174823 0.246933 0.043855
C12   C     C_3   0.279268 0.128209 0.297310 -0.725767
H22   H     H_    0.188681 0.157126 0.331365 0.185123
H23   H     H_    0.323134 0.074998 0.320692 0.222596
P7    P     P_3+3 0.519793 0.268862 0.442464 0.491734
O21   O     O_2   0.337390 0.273050 0.457610 -0.310972
O22   O     O_3   0.543282 0.214345 0.351808 -0.632030
H24   H     H_    0.203811 0.705724 0.169518 0.209089
C13   C     C_3   0.081870 0.288067 0.740894 0.411801
C14   C     C_3   0.168951 0.286430 0.812792 -0.908179
H25   H     H_    0.299767 0.307198 0.812947 0.287372
H26   H     H_    0.128801 0.336271 0.858480 0.225304
H27   H     H_    0.144334 0.216648 0.823577 0.274686
P8    P     P_3+3 0.549298 0.411345 0.723008 0.479023
C15   C     C_3   0.478724 0.233839 0.679371 0.528404
H28   H     H_    0.578714 0.231584 0.643377 0.096971
O23   O     O_2   0.404962 0.455713 0.753989 -0.428130
O24   O     O_3   0.518975 0.302816 0.743481 -0.564120
H29   H     H_    0.376160 0.247109 0.648771 0.173949
H30   H     H_    0.549458 0.121088 0.719129 0.257033
C16   C     C_3   0.439076 0.140032 0.697045 -0.978861
H31   H     H_    0.392176 0.087363 0.646957 0.235193
H32   H     H_    0.346445 0.140561 0.737487 0.291252
C17   C     C_R   0.981160 0.481162 0.050855 0.020654
C18   C     C_R   0.886259 0.432031 0.093354 -0.222473
C19   C     C_R   0.755661 0.462301 0.957888 -0.189715
C20   C     C_R   0.921100 0.488441 0.981397 0.073656
C21   C     C_R   0.700371 0.459904 0.887669 -0.153730
C22   C     C_R   0.805861 0.486921 0.838056 0.012095
C23   C     C_R   0.970805 0.522094 0.861501 0.025030
C24   C     C_R   0.028492 0.522592 0.933689 0.027167
C25   C     C_R   0.750579 0.480153 0.765700 0.229693
C26   C     C_R   0.859579 0.512910 0.719638 -0.422936
C27   C     C_R   0.023014 0.547749 0.739126 0.106658
C28   C     C_R   0.078234 0.555379 0.812694 -0.013387
C29   C     C_R   0.144638 0.514122 0.075061 0.050078
C30   C     C_R   0.201959 0.508805 0.146284 0.020194
C31   C     C_R   0.099245 0.463898 0.191296 -0.136138
C32   C     C_R   0.947133 0.416431 0.158074 0.011912
H33   H     H_    0.572666 0.437757 0.873141 0.166667
C33   C     C_R   0.235911 0.595929 0.839713 -0.031435
C34   C     C_R   0.292508 0.595499 0.909686 -0.197177
C35   C     C_R   0.193143 0.555962 0.957327 0.030480
C36   C     C_R   0.251946 0.550362 0.027906 0.065325
C37   C     C_R   0.416814 0.574966 0.051714 -0.209913
C38   C     C_R   0.365307 0.543662 0.170344 -0.011876
C39   C     C_R   0.471643 0.570775 0.120656 -0.160963
C40   C     C_R   0.418465 0.550144 0.243123 0.105261
C41   C     C_R   0.309650 0.518688 0.290350 -0.408295
C42   C     C_R   0.155183 0.468831 0.265702 0.220280
H34   H     H_    0.318571 0.628462 0.807110 0.182354
H35   H     H_    0.351133 0.526667 0.346312 0.197586
H36   H     H_    0.664046 0.444381 0.993143 0.138600
H37   H     H_    0.768950 0.393775 0.072147 0.144217
H38   H     H_    0.415525 0.628250 0.925272 0.125620
H39   H     H_    0.508304 0.596435 0.017702 0.131487
C43   C     C_R   0.845645 0.174400 0.561575 0.260751
C44   C     C_R   0.776235 0.082095 0.557932 -0.048302
C45   C     C_R   0.643508 0.892406 0.538177 -0.035760
C46   C     C_R   0.794335 0.930230 0.575980 -0.108227
C47   C     C_R   0.859848 0.022761 0.585309 -0.180933
C48   C     C_R   0.580181 0.796765 0.523721 0.259666
H40   H     H_    0.867571 0.889006 0.596819 0.144465
C49   C     C_R   0.431896 0.763495 0.483647 -0.518328
C50   C     C_R   0.603037 0.197279 0.497810 0.134038
C51   C     C_R   0.532227 0.105573 0.494354 -0.007929
C52   C     C_R   0.620125 0.047048 0.522689 0.041109
C53   C     C_R   0.378409 0.069555 0.460639 -0.112133
C54   C     C_R   0.312845 0.978171 0.452121 -0.122507
C55   C     C_R   0.400364 0.917576 0.475729 0.032245
C56   C     C_R   0.554376 0.952307 0.512567 0.010279
C57   C     C_R   0.338690 0.823098 0.462449 0.151105
C58   C     C_R   0.758245 0.227884 0.529606 -0.370544
H41   H     H_    0.193842 0.956094 0.425026 0.186815
H42   H     H_    0.305097 0.111178 0.440082 0.175694
H43   H     H_    0.819519 0.290184 0.520852 0.194531
C59   C     C_2   0.642461 0.834073 0.317535 0.977218
O25   O     O_2   0.544609 0.886827 0.325326 -0.677087
O26   O     O_R   0.772069 0.847738 0.368633 -0.695115
H44   H     H_    0.778145 0.906839 0.407043 0.333535
C60   C     C_2   0.958616 0.212783 0.397508 0.839796
O27   O     O_2   0.037643 0.270615 0.445976 -0.551340
O28   O     O_R   0.936596 0.119602 0.399226 -0.827798
H45   H     H_    0.001066 0.106449 0.440244 0.336996
H46   H     H_    0.796852 0.841445 0.196965 0.261848
C61   C     C_2   0.723505 0.771787 0.813766 1.204469
O29   O     O_2   0.601687 0.802228 0.833720 -0.633345
O30   O     O_R   0.758756 0.692569 0.832416 -0.829265
H47   H     H_    0.673716 0.666141 0.862188 0.299208
C62   C     C_2   0.385442 0.291682 0.281909 1.035937
O31   O     O_2   0.415108 0.362938 0.328656 -0.600929
O32   O     O_R   0.333107 0.292387 0.211436 -0.758159
H48   H     H_    0.345448 0.355990 0.202165 0.324414
C63   C     C_2   0.204787 0.080070 0.222562 1.094987
O33   O     O_2   0.148273 0.122997 0.183400 -0.549890
O34   O     O_R   0.200342 0.985500 0.198322 -0.790962
H49   H     H_    0.146810 0.960427 0.147641 0.325202
H50   H     H_    0.125589 0.355540 0.728381 0.102321
C64   C     C_2   0.905747 0.278711 0.750697 0.918075
O35   O     O_2   0.821395 0.301324 0.707298 -0.696470
O36   O     O_R   0.838940 0.244930 0.808137 -0.783724
H51   H     H_    0.718822 0.244545 0.809903 0.357909
C65   C     C_2   0.804357 0.501152 0.646267 1.131716
O37   O     O_2   0.716849 0.550571 0.629554 -0.573510
O38   O     O_R   0.845433 0.428435 0.596713 -0.771972
H52   H     H_    0.817088 0.431640 0.546129 0.342375
C66   C     C_2   0.861792 0.333040 0.174979 1.063197
O39   O     O_2   0.927586 0.265344 0.166446 -0.576723
O40   O     O_R   0.697181 0.326683 0.186033 -0.788175
H53   H     H_    0.639393 0.261152 0.176727 0.299281
H54   H     H_    0.599926 0.588997 0.134297 0.171506
H55   H     H_    0.978397 0.046581 0.612874 0.177368
H56   H     H_    0.383415 0.690946 0.472933 0.162146

loop_
_geom_bond_atom_site_label_1
_geom_bond_atom_site_label_2
_geom_bond_distance
_ccdc_geom_bond_type
C66   O40   1.397273 S    
C10   H19   1.105807 S    
C33   H34   1.079392 S    
C27   C28   1.431300 A    
Ba2   O20   2.835575 S    
C14   H27   1.111280 S    
P3    O8    1.733534 S    
C3    H24   1.108693 S    
C29   C30   1.444441 A    
C53   H42   1.070691 S    
O6    C10   1.414239 S    
C21   C22   1.396587 A    
C19   H36   1.077827 S    
C54   C55   1.399826 A    
C7    H14   1.103996 S    
C37   C39   1.391913 A    
C31   C32   1.418335 A    
C19   C20   1.414846 A    
C43   C44   1.415142 A    
C38   C40   1.415651 A    
C5    H8    1.110801 S    
C34   C35   1.416740 A    
C51   C52   1.419553 A    
C9    C61   1.501787 S    
P1    Ba1   3.414489 S    
O38   H52   0.995442 S    
P2    O20   1.585346 S    
C60   O28   1.403231 S    
C55   C56   1.417743 A    
C8    C9    1.527486 S    
P2    O10   1.764585 S    
C62   O32   1.397763 S    
C11   O22   1.406252 S    
C7    H13   1.110083 S    
P3    O9    1.544128 D    
C52   C56   1.423681 A    
C10   C59   1.502296 S    
C2    C3    1.519918 S    
C41   C42   1.405504 A    
C50   C58   1.385637 A    
C14   H26   1.112277 S    
P1    O1    1.539810 D    
C4    C5    1.524276 S    
C23   C28   1.430418 A    
C12   H23   1.107355 S    
P2    Ba1   3.427606 S    
C45   C46   1.408921 A    
C24   C35   1.419734 A    
C6    C60   1.487234 S    
Ba1   O13   2.824976 S    
P1    C42   1.916578 S    
O12   Ba2   2.842962 S    
P4    Ba2   3.415064 S    
P5    O18   1.542523 D    
O10   C8    1.408966 S    
O30   H47   1.013648 S    
C1    H1    1.108232 S    
C15   O24   1.406944 S    
O32   H48   1.008464 S    
C6    C7    1.540633 S    
C63   O34   1.397149 S    
Ba2   O21   2.864868 S    
C44   C52   1.422036 A    
C21   H33   1.081477 S    
C49   H56   1.082350 S    
O19   C13   1.411909 S    
P5    C43   1.873677 S    
O3    P6    1.744530 S    
P2    C48   1.860948 S    
P5    O17   1.764431 S    
O5    C6    1.402025 S    
O13   Ba2   2.957119 S    
C11   H21   1.108384 S    
O16   P7    1.781576 S    
C15   C16   1.522677 S    
C64   O36   1.401234 S    
C34   H38   1.076703 S    
C39   H54   1.079121 S    
C35   C36   1.438356 A    
C13   C64   1.486276 S    
P4    C27   1.920644 S    
C1    C10   1.530521 S    
C61   O30   1.396097 S    
C29   C36   1.425203 A    
C61   O29   1.222767 D    
C65   O38   1.374001 S    
C11   C62   1.496320 S    
Ba1   Ba2   4.644806 S    
C11   C12   1.530341 S    
O17   Ba2   2.814207 S    
C4    O15   1.395018 S    
C15   H28   1.098338 S    
C19   C21   1.388451 A    
P1    O5    1.768138 S    
O4    P6    1.540888 D    
C60   O27   1.214417 D    
P8    C25   1.896311 S    
C59   O26   1.394890 S    
C20   C24   1.420089 A    
C44   C47   1.398639 A    
C25   C26   1.396965 A    
C13   C14   1.535541 S    
P7    C50   1.863513 S    
O7    Ba1   2.864571 S    
P3    C57   1.848059 S    
P1    O2    1.573938 S    
C45   C48   1.425509 A    
P7    O22   1.763594 S    
C64   O35   1.210500 D    
O2    Ba1   2.956189 S    
P4    O12   1.540176 D    
C8    H15   1.103122 S    
C45   C56   1.417271 A    
C1    H20   1.111483 S    
C37   H39   1.077088 S    
C31   C42   1.456382 A    
P3    O11   1.750079 S    
O8    Ba1   2.813456 S    
C17   C18   1.401861 A    
C43   C58   1.394071 A    
C22   C25   1.412227 A    
C28   C33   1.400582 A    
C40   C41   1.404463 A    
C17   C29   1.412225 A    
C30   C31   1.435685 A    
C2    H2    1.111988 S    
C1    H46   1.111362 S    
C3    H4    1.109544 S    
P4    O13   1.573965 S    
C32   C66   1.459263 S    
P2    O7    1.534891 D    
P6    C40   1.870280 S    
C16   H32   1.108904 S    
O40   H53   1.009727 S    
Ba1   O16   2.836174 S    
C3    H5    1.109855 S    
C66   O39   1.220890 D    
P8    O23   1.544791 D    
C13   H50   1.111213 S    
O34   H49   1.013841 S    
C30   C38   1.414676 A    
C65   O37   1.210736 D    
C46   H40   1.068265 S    
C26   C65   1.417275 S    
C9    H17   1.112712 S    
C49   C57   1.398232 A    
C6    H11   1.101027 S    
C16   H31   1.110797 S    
C12   C63   1.508117 S    
C46   C47   1.394135 A    
C47   H55   1.081133 S    
C38   C39   1.402515 A    
C5    H9    1.103937 S    
C41   H35   1.081797 S    
O1    Ba1   2.842403 S    
C18   C32   1.398486 A    
O36   H51   1.010236 S    
C63   O33   1.221881 D    
C8    H16   1.103272 S    
C18   H37   1.078937 S    
C54   H41   1.079158 S    
P7    O21   1.576367 D    
O2    Ba2   2.825632 S    
O11   C2    1.405352 S    
C58   H43   1.053113 S    
O16   Ba2   2.950622 S    
Ba1   O20   2.951482 S    
O14   Ba2   2.818371 S    
C9    H18   1.111193 S    
C26   C27   1.399693 A    
C2    H3    1.111470 S    
C7    H12   1.095429 S    
C4    H7    1.109902 S    
C12   H22   1.092856 S    
C14   H25   1.095434 S    
C48   C49   1.400481 A    
O26   H44   1.012579 S    
C4    H6    1.105880 S    
H30   C16   1.109958 S    
P5    O19   1.773002 S    
C17   C20   1.430468 A    
C22   C23   1.425145 A    
C5    H10   1.110425 S    
C15   H29   1.093998 S    
C36   C37   1.410540 A    
C51   C53   1.397474 A    
P8    O24   1.756140 S    
O28   H45   1.008439 S    
C59   O25   1.222690 D    
C33   C34   1.398429 A    
O6    P6    1.762585 S    
C23   C24   1.437058 A    
C62   O31   1.219278 D    
P4    O15   1.749742 S    
O14   P8    1.769348 S    
O3    Ba1   2.818895 S    
C53   C54   1.380104 A    
C50   C51   1.410633 A    
C55   C57   1.407652 A    
