data_mof_unit_9128.cif
_audit_creation_date              2012-12-11T15:12:51-0500
_audit_creation_method            fapswitch 2.2
_symmetry_space_group_name_H-M    P1
_symmetry_Int_Tables_number       1
_space_group_crystal_system       triclinic
_cell_length_a                    22.351389
_cell_length_b                    6.941715
_cell_length_c                    19.349085
_cell_angle_alpha                 89.997958
_cell_angle_beta                  99.216981
_cell_angle_gamma                 89.999607
_cell_volume                      2963.38425401

loop_
_atom_site_label
_atom_site_type_symbol
_atom_type_description
_atom_site_fract_x
_atom_site_fract_y
_atom_site_fract_z
_atom_type_partial_charge
O1    O     O_R   0.448420 0.506120 0.415750 -0.536017
O2    O     O_R   0.551580 0.006120 0.584250 -0.536015
O3    O     O_R   0.436490 0.174470 0.555610 -0.537158
O4    O     O_R   0.563510 0.674470 0.444390 -0.537156
C1    C     C_R   0.420972 0.344709 0.575618 0.714716
C2    C     C_R   0.579027 0.844712 0.424382 0.714720
O5    O     O_R   0.441310 0.176330 0.414520 -0.535930
O6    O     O_R   0.558690 0.676330 0.585480 -0.535932
O7    O     O_R   0.556430 0.007110 0.442150 -0.532426
O8    O     O_R   0.443570 0.507110 0.557850 -0.532425
C3    C     C_R   0.426734 0.345141 0.388377 0.686270
C4    C     C_R   0.573267 0.845134 0.611623 0.686270
O9    O     O_3   0.537770 0.339560 0.509230 -0.365176
O10   O     O_3   0.462230 0.839560 0.490770 -0.365178
V1    V     V_3+5 0.492990 0.064280 0.498290 1.480025
V2    V     V_3+5 0.507010 0.564280 0.501710 1.480028
C5    C     C_R   0.868481 0.966769 0.694738 -0.052671
C6    C     C_R   0.131508 0.466529 0.305266 -0.052664
H1    H     H_    0.955359 0.993341 0.759425 0.155251
H2    H     H_    0.044629 0.493078 0.240580 0.155287
H3    H     H_    0.888311 0.989087 0.647919 0.205398
H4    H     H_    0.111674 0.488737 0.352087 0.205401
C7    C     C_R   0.884871 0.940607 0.820982 -0.058420
C8    C     C_R   0.115128 0.440572 0.179018 -0.058429
C9    C     C_R   0.590482 0.824797 0.740107 -0.143863
C10   C     C_R   0.409525 0.324951 0.259891 -0.143867
C11   C     C_R   0.627263 0.825966 0.805182 -0.096736
C12   C     C_R   0.372745 0.326168 0.194815 -0.096735
C13   C     C_R   0.689595 0.853762 0.810712 -0.139759
C14   C     C_R   0.310411 0.353904 0.189286 -0.139758
C15   C     C_R   0.717214 0.881636 0.750519 0.079538
C16   C     C_R   0.282788 0.381669 0.249480 0.079535
C17   C     C_R   0.678930 0.881529 0.683697 0.001927
C18   C     C_R   0.321069 0.381499 0.316303 0.001923
C19   C     C_R   0.781368 0.909300 0.754563 0.027198
C20   C     C_R   0.218631 0.409278 0.245437 0.027197
C21   C     C_R   0.805654 0.937464 0.691486 0.026524
C22   C     C_R   0.194339 0.437306 0.308517 0.026522
C23   C     C_R   0.766872 0.936350 0.626322 0.384156
C24   C     C_R   0.233119 0.436136 0.373682 0.384167
C25   C     C_R   0.704797 0.908641 0.622995 -0.225179
C26   C     C_R   0.295198 0.408492 0.377008 -0.225173
C27   C     C_R   0.822460 0.910464 0.819100 -0.184937
C28   C     C_R   0.177542 0.410516 0.180898 -0.184932
C29   C     C_R   0.907354 0.969121 0.758633 -0.145435
C30   C     C_R   0.092638 0.468935 0.241370 -0.145448
C31   C     C_R   0.615280 0.852735 0.679019 -0.071421
C32   C     C_R   0.384721 0.352768 0.320981 -0.071416
H5    H     H_    0.807617 0.890092 0.868874 0.089597
H6    H     H_    0.192390 0.390260 0.131122 0.089591
H7    H     H_    0.542193 0.801754 0.737332 0.136275
H8    H     H_    0.457816 0.301962 0.262665 0.136267
H9    H     H_    0.714757 0.852406 0.863019 0.108250
H10   H     H_    0.285251 0.352587 0.136978 0.108251
H11   H     H_    0.607262 0.804515 0.851999 0.145218
H12   H     H_    0.392751 0.304803 0.147996 0.145219
H13   H     H_    0.676729 0.908656 0.571875 0.139925
H14   H     H_    0.323264 0.408462 0.428129 0.139914
C33   C     C_3   0.802920 0.732384 0.255260 -0.265784
C34   C     C_3   0.197077 0.232392 0.744741 -0.265722
C35   C     C_3   0.793439 0.099638 0.258265 0.317680
C36   C     C_3   0.206558 0.599640 0.741727 0.317768
C37   C     C_3   0.745540 0.077089 0.308397 -0.361378
C38   C     C_3   0.254465 0.577102 0.691604 -0.361377
H15   H     H_    0.779787 0.721065 0.361147 0.224569
H16   H     H_    0.220206 0.221105 0.638853 0.224641
H17   H     H_    0.849588 0.727259 0.285010 0.252320
H18   H     H_    0.150408 0.227275 0.714994 0.252353
H19   H     H_    0.779787 0.225847 0.223820 0.069689
H20   H     H_    0.220201 0.725856 0.776168 0.069640
H21   H     H_    0.767441 0.079392 0.364201 0.201999
H22   H     H_    0.232571 0.579438 0.635797 0.201982
H23   H     H_    0.714080 0.202236 0.301588 0.172108
H24   H     H_    0.285928 0.702238 0.698423 0.172088
C39   C     C_1   0.625125 0.855084 0.379438 -0.120814
C40   C     C_1   0.374875 0.355077 0.620561 -0.120810
C41   C     C_3   0.792952 0.917783 0.209896 0.060283
C42   C     C_3   0.207047 0.417787 0.790102 0.060266
C43   C     C_3   0.755774 0.718223 0.306128 -0.382578
C44   C     C_3   0.244221 0.218236 0.693870 -0.382502
C45   C     C_3   0.709448 0.886341 0.293818 0.094692
C46   C     C_3   0.290551 0.386338 0.706181 0.094680
C47   C     C_3   0.679414 0.881432 0.215292 0.283626
C48   C     C_3   0.320584 0.381404 0.784708 0.283618
C49   C     C_3   0.728275 0.903258 0.166493 -0.446710
C50   C     C_3   0.271724 0.403254 0.833505 -0.446724
C51   C     C_1   0.663242 0.867387 0.341280 0.051452
C52   C     C_1   0.336757 0.367380 0.658719 0.051458
C53   C     C_1   0.838556 0.931022 0.161452 0.037526
C54   C     C_1   0.161444 0.431029 0.838547 0.037493
C55   C     C_1   0.875877 0.940321 0.122164 -0.126179
C56   C     C_1   0.124123 0.440329 0.877835 -0.126194
H25   H     H_    0.725612 0.777011 0.130641 0.152178
H26   H     H_    0.274385 0.277014 0.869364 0.152182
H27   H     H_    0.719109 0.032941 0.132639 0.196823
H28   H     H_    0.280891 0.532944 0.867352 0.196826
H29   H     H_    0.656321 0.740100 0.204295 0.124989
H30   H     H_    0.343670 0.240058 0.795706 0.124988
H31   H     H_    0.798384 0.603592 0.220536 0.157444
H32   H     H_    0.201615 0.103596 0.779468 0.157397
H33   H     H_    0.731678 0.577690 0.298309 0.162474
H34   H     H_    0.268314 0.077694 0.701685 0.162439
O11   O     O_R   0.056480 0.288780 0.942210 -0.538707
O12   O     O_R   0.943520 0.788780 0.057790 -0.538707
O13   O     O_R   0.058700 0.616820 0.085490 -0.539274
O14   O     O_R   0.941300 0.116820 0.914510 -0.539282
C57   C     C_R   0.073095 0.448344 0.111878 0.700464
C58   C     C_R   0.926904 0.948351 0.888122 0.700455
O15   O     O_R   0.063520 0.618570 0.944410 -0.532571
O16   O     O_R   0.936480 0.118570 0.055590 -0.532564
O17   O     O_R   0.948420 0.787670 0.915740 -0.532324
O18   O     O_R   0.051580 0.287670 0.084260 -0.532328
C59   C     C_R   0.078865 0.449854 0.923919 0.723679
C60   C     C_R   0.921135 0.949851 0.076081 0.723684
O19   O     O_3   0.962260 0.453430 0.990800 -0.369131
O20   O     O_3   0.037740 0.953430 0.009200 -0.369132
V3    V     V_3+5 0.007000 0.728750 0.001710 1.470107
V4    V     V_3+5 0.993000 0.228750 0.998290 1.470110
S1    S     S_3+6 0.866745 0.161720 0.307124 0.027392
O21   O     O_2   0.911085 0.199806 0.258000 -0.311091
O22   O     O_2   0.860519 0.342482 0.348175 -0.318323
O23   O     O_3   0.894188 0.985412 0.362994 -0.458192
H35   H     H_    0.872993 0.000258 0.403869 0.379630
S2    S     S_3+6 0.133254 0.661684 0.692851 0.027377
O24   O     O_2   0.088889 0.699618 0.741957 -0.311056
O25   O     O_2   0.139469 0.842523 0.651834 -0.318368
O26   O     O_3   0.105855 0.485417 0.636945 -0.458228
H36   H     H_    0.127009 0.500509 0.596048 0.379719
Cl1   Cl    Cl    0.793772 0.969043 0.546128 -0.643852
Cl2   Cl    Cl    0.206213 0.468678 0.453879 -0.643907
Cl3   Cl    Cl    0.621848 0.062495 0.195328 -0.669397
Cl4   Cl    Cl    0.378159 0.562431 0.804672 -0.669389

loop_
_geom_bond_atom_site_label_1
_geom_bond_atom_site_label_2
_ccdc_geom_bond_type
O18   V4    S    
H15   C43   S    
C11   C13   A    
C33   H31   S    
C57   O18   A    
O1    C3    A    
O2    C4    A    
C26   H14   S    
C2    O7    A    
C36   S2    S    
C12   H12   S    
O15   V3    S    
C2    C39   S    
C23   C25   A    
C42   C54   S    
O5    C3    A    
C14   H10   S    
C41   C53   S    
C13   H9    S    
C37   C45   S    
C7    C29   A    
C16   C20   A    
C58   O17   A    
O11   C59   A    
C48   C50   S    
C11   H11   S    
C35   S1    S    
C28   H6    S    
C7    C27   A    
O20   V3    S    
C36   H20   S    
C35   C37   S    
C36   C38   S    
C50   H26   S    
C33   H17   S    
C49   H25   S    
C35   C41   S    
O19   V3    S    
C18   C26   A    
C8    C57   S    
C15   C17   A    
C53   C55   T    
C19   C27   A    
C56   C59   S    
O16   C60   A    
C46   C52   S    
C10   C32   A    
C42   C50   S    
C24   C26   A    
C41   C49   S    
O6    V2    S    
C22   C24   A    
O14   V4    S    
O13   V3    S    
O16   V4    S    
C3    C32   S    
C4    C31   S    
C6    C30   A    
C45   C47   S    
S1    O22   D    
S2    O24   D    
C44   C46   S    
C33   C43   S    
C43   C45   S    
C27   H5    S    
O5    V1    S    
C37   H23   S    
C34   H32   S    
C48   Cl4   S    
C5    H3    S    
C40   C52   T    
C44   H34   S    
C16   C18   A    
O4    V2    S    
C9    H7    S    
C47   Cl3   S    
C10   H8    S    
O13   C57   A    
C54   C56   T    
O6    C4    A    
O19   V4    S    
C34   C42   S    
O1    V2    S    
C5    C21   A    
O2    V1    S    
C38   C46   S    
C45   C51   S    
C50   H28   S    
S2    O26   S    
O12   C60   A    
C39   C51   T    
C47   C49   S    
C37   H21   S    
C46   C48   S    
O9    V1    S    
C8    C28   A    
O10   V2    S    
C20   C28   A    
O4    C2    A    
C18   C32   A    
O26   H36   S    
O3    V1    S    
S2    O25   D    
O12   V3    S    
S1    O23   S    
C35   H19   S    
C24   Cl2   S    
C9    C31   A    
C34   C44   S    
C19   C21   A    
C6    H4    S    
C36   C42   S    
C5    C29   A    
O3    C1    A    
H16   C44   S    
S1    O21   D    
H1    C29   S    
O15   C59   A    
C9    C11   A    
C23   Cl1   S    
C10   C12   A    
C55   C60   S    
O17   V3    S    
C17   C25   A    
C33   C41   S    
C1    C40   S    
C20   C22   A    
C6    C22   A    
C48   H30   S    
C1    O8    A    
C13   C15   A    
O8    V2    S    
C14   C16   A    
C49   H27   S    
O14   C58   A    
C17   C31   A    
C7    C58   S    
C12   C14   A    
O20   V4    S    
C15   C19   A    
C38   H22   S    
O7    V1    S    
C25   H13   S    
O11   V4    S    
C34   H18   S    
C21   C23   A    
C47   H29   S    
O9    V2    S    
C38   H24   S    
O10   V1    S    
C43   H33   S    
O23   H35   S    
H2    C30   S    
C8    C30   A    
