data_mof_unit_21974.cif
_audit_creation_date              2012-12-11T16:37:23-0500
_audit_creation_method            fapswitch 2.2
_symmetry_space_group_name_H-M    P1
_symmetry_Int_Tables_number       1
_space_group_crystal_system       triclinic
_cell_length_a                    19.501534
_cell_length_b                    6.969601
_cell_length_c                    17.729003
_cell_angle_alpha                 90.000568
_cell_angle_beta                  108.881258
_cell_angle_gamma                 90.020673
_cell_volume                      2280.02656049

loop_
_atom_site_label
_atom_site_type_symbol
_atom_type_description
_atom_site_fract_x
_atom_site_fract_y
_atom_site_fract_z
_atom_type_partial_charge
O1    O     O_R   0.561710 0.369960 0.440200 -0.543299
O2    O     O_R   0.061710 0.630040 0.940200 -0.544794
O3    O     O_R   0.412630 0.033330 0.406330 -0.541207
O4    O     O_R   0.912630 0.966670 0.906330 -0.530753
O5    O     O_R   0.438290 0.869790 0.559800 -0.538629
O6    O     O_R   0.938290 0.130210 0.059800 -0.531557
C1    C     C_R   0.384802 0.203077 0.383776 0.680903
C2    C     C_R   0.884308 0.796633 0.884032 0.694010
O7    O     O_R   0.559570 0.039810 0.430640 -0.546553
O8    O     O_R   0.059570 0.960190 0.930640 -0.548249
O9    O     O_R   0.586280 0.876320 0.584290 -0.537739
O10   O     O_R   0.086280 0.123680 0.084290 -0.537715
C3    C     C_R   0.580926 0.208984 0.415544 0.678756
C4    C     C_R   0.080850 0.791042 0.915467 0.670633
O11   O     O_R   0.413720 0.363440 0.415710 -0.547006
O12   O     O_R   0.913720 0.636560 0.915710 -0.540791
O13   O     O_3   0.508590 0.205630 0.550380 -0.345628
O14   O     O_3   0.008590 0.794370 0.050380 -0.356849
V1    V     V_3+5 0.498410 0.928130 0.490650 1.435172
V2    V     V_3+5 0.998410 0.071870 0.990650 1.458343
O15   O     O_R   0.587370 0.546990 0.593670 -0.523849
O16   O     O_R   0.087370 0.453010 0.093670 -0.540004
C5    C     C_R   0.614641 0.716824 0.617355 0.705565
C6    C     C_R   0.115464 0.283345 0.116062 0.683975
O17   O     O_R   0.440430 0.540520 0.569360 -0.540552
O18   O     O_R   0.940430 0.459480 0.069360 -0.540374
C7    C     C_R   0.419024 0.709266 0.584473 0.715956
C8    C     C_R   0.919872 0.290556 0.085441 0.771411
V3    V     V_3+5 0.501590 0.428960 0.509350 1.465615
V4    V     V_3+5 0.001590 0.571040 0.009350 1.463498
O19   O     O_3   0.491410 0.701330 0.449620 -0.381188
O20   O     O_3   0.991410 0.298670 0.949620 -0.374825
C9    C     C_R   0.285336 0.902503 0.681302 -0.132860
C10   C     C_R   0.785524 0.098189 0.181579 -0.145907
H1    H     H_    0.256302 0.035343 0.680172 0.103727
H2    H     H_    0.755792 0.966167 0.179724 0.103763
C11   C     C_R   0.332523 0.891423 0.636459 -0.089217
C12   C     C_R   0.832650 0.109238 0.136664 -0.104017
H3    H     H_    0.338840 0.016633 0.603112 0.120461
H4    H     H_    0.838236 0.984783 0.102529 0.125732
C13   C     C_R   0.369863 0.720451 0.633388 -0.030623
C14   C     C_R   0.870855 0.279299 0.134517 -0.041702
C15   C     C_R   0.359029 0.560983 0.676763 -0.158497
C16   C     C_R   0.861042 0.437802 0.178977 -0.164868
H5    H     H_    0.387090 0.427252 0.676057 0.133372
H6    H     H_    0.889884 0.570687 0.179066 0.139937
C17   C     C_R   0.312588 0.572849 0.722624 -0.137799
C18   C     C_R   0.814603 0.425976 0.224858 -0.134860
H7    H     H_    0.307240 0.448244 0.756717 0.101697
H8    H     H_    0.809942 0.549783 0.259717 0.105961
C19   C     C_R   0.274778 0.743736 0.725456 0.087140
C20   C     C_R   0.775852 0.256085 0.226672 0.086814
C21   C     C_R   0.185243 0.594833 0.784451 -0.137593
C22   C     C_R   0.686737 0.405728 0.286013 -0.141264
H9    H     H_    0.189384 0.459256 0.756474 0.104950
H10   H     H_    0.691565 0.541749 0.258705 0.102070
C23   C     C_R   0.138864 0.606240 0.830290 -0.161856
C24   C     C_R   0.640046 0.394318 0.331497 -0.161278
H11   H     H_    0.109690 0.478594 0.837056 0.122810
H12   H     H_    0.611329 0.522404 0.338685 0.122058
C25   C     C_R   0.129522 0.780254 0.865986 -0.048848
C26   C     C_R   0.629851 0.219801 0.366333 -0.050781
C27   C     C_R   0.168044 0.942484 0.854902 -0.162009
C28   C     C_R   0.667855 0.057082 0.354749 -0.161252
H13   H     H_    0.162695 0.078397 0.882107 0.116597
H14   H     H_    0.661875 0.920750 0.381294 0.118416
C29   C     C_R   0.215311 0.930455 0.810047 -0.139162
C30   C     C_R   0.715392 0.069053 0.310213 -0.137293
H15   H     H_    0.245456 0.057461 0.804956 0.099047
H16   H     H_    0.745076 0.941570 0.304669 0.101378
C31   C     C_R   0.224583 0.756460 0.773899 0.093854
C32   C     C_R   0.725498 0.243535 0.274923 0.093732
C33   C     C_R   0.795996 0.603547 0.775219 0.031325
C34   C     C_R   0.272952 0.382424 0.303802 -0.000133
C35   C     C_R   0.816194 0.778888 0.815121 -0.116103
C36   C     C_R   0.316777 0.218991 0.315654 -0.083083
C37   C     C_R   0.765697 0.927884 0.792358 -0.194429
C38   C     C_R   0.292876 0.074048 0.257168 -0.166165
H17   H     H_    0.773796 0.053776 0.828294 0.184457
H18   H     H_    0.324558 0.944771 0.261108 0.115923
C39   C     C_R   0.700729 0.906669 0.728338 -0.186248
C40   C     C_R   0.228014 0.096794 0.191641 -0.145476
H19   H     H_    0.661429 0.019505 0.714907 0.191237
H20   H     H_    0.212139 0.982818 0.147923 0.117168
C41   C     C_R   0.683029 0.734713 0.685482 -0.114085
C42   C     C_R   0.184724 0.264926 0.182403 -0.085307
C43   C     C_R   0.730901 0.582219 0.711814 0.029185
C44   C     C_R   0.210831 0.404511 0.240653 -0.013701
C45   C     C_3   0.714543 0.394013 0.741569 -0.250683
C46   C     C_3   0.193525 0.595034 0.267963 -0.205198
C47   C     C_3   0.786052 0.414682 0.810291 -0.243665
C48   C     C_3   0.264506 0.571249 0.339838 -0.221288
H21   H     H_    0.715719 0.281842 0.697783 0.144528
H22   H     H_    0.196470 0.711358 0.226392 0.147879
H23   H     H_    0.829106 0.313805 0.806915 0.149882
H24   H     H_    0.308081 0.673504 0.339405 0.143088
C49   C     C_2   0.645690 0.400278 0.764189 0.415753
H25   H     H_    0.639999 0.504363 0.807317 0.043982
O21   O     O_2   0.594707 0.294800 0.731972 -0.536053
C50   C     C_2   0.123357 0.590874 0.286339 0.476882
H26   H     H_    0.112015 0.475371 0.321672 0.039079
O22   O     O_2   0.078390 0.716955 0.260929 -0.528279
C51   C     C_2   0.778704 0.428590 0.892597 0.395336
H27   H     H_    0.758412 0.558641 0.911634 0.041520
O23   O     O_2   0.793542 0.291451 0.937603 -0.555253
C52   C     C_2   0.255533 0.550686 0.420651 0.388632
H28   H     H_    0.259035 0.410802 0.448685 0.044243
O24   O     O_2   0.243992 0.692248 0.455201 -0.529056

loop_
_geom_bond_atom_site_label_1
_geom_bond_atom_site_label_2
_ccdc_geom_bond_type
C24   C26   A    
V4    O20   S    
C27   H13   S    
O11   V3    S    
O13   V3    S    
O4    C2    A    
V1    O19   S    
C49   H25   S    
C17   H7    S    
O9    V1    S    
C19   C31   S    
C28   C30   A    
C36   C38   A    
C12   C14   A    
O3    C1    A    
C22   C24   A    
C38   H18   S    
C23   H11   S    
C52   H28   S    
C24   H12   S    
C48   H24   S    
C42   C44   A    
O9    C5    A    
C25   C27   A    
C7    C13   S    
C33   C43   A    
O7    C3    A    
C39   H19   S    
O5    C7    A    
O7    V1    S    
O6    C8    A    
C3    C26   S    
O8    V2    S    
C26   C28   A    
O3    V1    S    
O14   V4    S    
C45   C47   S    
C13   C15   A    
C29   C31   A    
C52   O24   D    
C37   H17   S    
C34   C48   S    
C2    O12   A    
C11   C13   A    
C33   C35   A    
C14   C16   A    
C46   C50   S    
C49   O21   D    
C16   H6    S    
C46   H22   S    
C27   C29   A    
C21   H9    S    
O17   V3    S    
C22   H10   S    
C41   C43   A    
C33   C47   S    
O8    C4    A    
C21   C23   A    
O13   V1    S    
C17   C19   A    
C1    O11   A    
C40   C42   A    
C4    C25   S    
O15   V3    S    
C2    C35   S    
C9    C11   A    
C9    C19   A    
C45   C49   S    
C29   H15   S    
C28   H14   S    
C20   C32   S    
C15   H5    S    
C38   C40   A    
C46   C48   S    
C37   C39   A    
C30   C32   A    
O10   V2    S    
O1    V3    S    
C51   O23   D    
C35   C37   A    
C34   C36   A    
C48   C52   S    
C44   C46   S    
O18   V4    S    
C40   H20   S    
O15   C5    A    
O16   C6    A    
O1    C3    A    
O12   V4    S    
C21   C31   A    
C50   O22   D    
V2    O20   S    
O16   V4    S    
C10   C12   A    
C10   C20   A    
C47   C51   S    
C23   C25   A    
C1    C36   S    
O5    V1    S    
O17   C7    A    
O6    V2    S    
O10   C6    A    
O18   C8    A    
O2    V4    S    
C43   C45   S    
C11   H3    S    
C12   H4    S    
C15   C17   A    
C18   H8    S    
C50   H26   S    
C9    H1    S    
C10   H2    S    
O14   V2    S    
C45   H21   S    
O2    C4    A    
C47   H23   S    
O4    V2    S    
C18   C20   A    
C22   C32   A    
V3    O19   S    
C5    C41   S    
C51   H27   S    
C30   H16   S    
C34   C44   A    
C6    C42   S    
C39   C41   A    
C16   C18   A    
C8    C14   S    
