data_mof_unit_58168.cif
_audit_creation_date              2012-12-10T18:22:28-0500
_audit_creation_method            fapswitch 2.2
_symmetry_space_group_name_H-M    P1
_symmetry_Int_Tables_number       1
_space_group_crystal_system       triclinic
_cell_length_a                    23.533341
_cell_length_b                    10.693625
_cell_length_c                    9.482075
_cell_angle_alpha                 91.489635
_cell_angle_beta                  88.766507
_cell_angle_gamma                 90.122763
_cell_volume                      2384.86572407

loop_
_atom_site_label
_atom_site_type_symbol
_atom_type_description
_atom_site_fract_x
_atom_site_fract_y
_atom_site_fract_z
_atom_type_partial_charge
C1    C     C_R   0.501102 0.260074 0.498347 0.875736
C2    C     C_R   0.498888 0.739926 0.501652 0.874928
C3    C     C_R   0.238286 0.518554 0.631172 0.114375
C4    C     C_R   0.759573 0.521320 0.625880 0.132249
C5    C     C_R   0.297499 0.517406 0.629561 -0.183607
C6    C     C_R   0.700379 0.521706 0.624414 -0.173451
C7    C     C_R   0.328405 0.501451 0.502372 -0.142318
C8    C     C_R   0.671482 0.500707 0.497884 -0.147996
C9    C     C_R   0.299053 0.487842 0.375315 -0.314594
C10   C     C_R   0.702798 0.479085 0.372072 -0.310859
C11   C     C_R   0.239280 0.486662 0.375262 0.532303
C12   C     C_R   0.762386 0.482221 0.371252 0.522897
C13   C     C_R   0.209121 0.504308 0.503589 0.236131
C14   C     C_R   0.790757 0.501240 0.498851 0.229835
C15   C     C_3   0.524890 0.045378 0.616930 0.489393
C16   C     C_3   0.475088 0.954619 0.383061 0.489769
C17   C     C_3   0.552903 0.956892 0.505129 0.016872
C18   C     C_3   0.447075 0.043107 0.494861 0.017726
C19   C     C_3   0.498385 0.876118 0.504116 -0.191474
C20   C     C_3   0.501594 0.123880 0.495876 -0.191448
C21   C     C_3   0.470114 0.965929 0.614887 0.009678
C22   C     C_3   0.529864 0.034068 0.385103 0.009229
C23   C     C_R   0.391081 0.500485 0.501107 0.832693
C24   C     C_R   0.608883 0.499997 0.498884 0.833953
C25   C     C_3   0.467614 0.589740 0.055942 -0.102959
C26   C     C_3   0.532409 0.410257 0.944070 -0.102922
C27   C     C_3   0.449978 0.483717 0.953828 0.210053
C28   C     C_3   0.550062 0.516252 0.046252 0.211495
C29   C     C_3   0.518445 0.603667 0.953099 0.215261
C30   C     C_3   0.481597 0.396325 0.046928 0.215889
C31   C     C_R   0.879859 0.612334 0.498580 0.558123
C32   C     C_R   0.120080 0.393240 0.511196 0.582232
C33   C     C_R   0.879683 0.389572 0.503914 0.604393
C34   C     C_R   0.120107 0.615813 0.500513 0.588117
C35   C     C_R   0.939784 0.386508 0.509327 -0.114653
C36   C     C_R   0.059948 0.619188 0.505360 -0.110273
C37   C     C_R   0.969746 0.501972 0.508744 -0.103314
C38   C     C_R   0.029996 0.503772 0.510033 -0.102479
C39   C     C_R   0.939460 0.615908 0.507242 -0.157570
C40   C     C_R   0.060264 0.390005 0.516159 -0.159838
C41   C     C_R   0.970949 0.273367 0.518810 0.041398
C42   C     C_R   0.028624 0.732889 0.509280 0.038863
C43   C     C_R   0.030186 0.276255 0.528703 0.520802
C44   C     C_R   0.969209 0.730471 0.516964 0.521714
Cu1   Cu    Cu3+1 0.500010 0.499990 0.643150 0.981787
Cu2   Cu    Cu3+1 0.499990 0.500010 0.356850 0.982646
H1    H     H_    0.440558 0.663872 0.106395 0.176691
H2    H     H_    0.559444 0.336087 0.893618 0.176430
H3    H     H_    0.319092 0.530860 0.728055 0.210625
H4    H     H_    0.677082 0.538076 0.722977 0.171498
H5    H     H_    0.322552 0.479335 0.276214 0.166773
H6    H     H_    0.681308 0.457645 0.274864 0.206584
N1    N     N_R   0.851726 0.500943 0.499333 -0.443797
N2    N     N_R   0.148147 0.504518 0.504598 -0.443058
N3    N     N_3   0.500040 0.499970 0.858290 -0.181431
N4    N     N_3   0.499960 0.500030 0.141710 -0.181583
O1    O     O_R   0.500030 0.316850 0.620870 -0.562798
O2    O     O_R   0.499970 0.683150 0.379130 -0.563116
O3    O     O_R   0.500000 0.316860 0.379090 -0.558933
O4    O     O_R   0.500000 0.683140 0.620910 -0.559176
O5    O     O_R   0.417890 0.499960 0.620920 -0.564123
O6    O     O_R   0.582110 0.500040 0.379080 -0.559695
O7    O     O_R   0.417870 0.499970 0.379140 -0.589199
O8    O     O_R   0.582130 0.500030 0.620860 -0.593365
O9    O     O_2   0.849819 0.718940 0.488109 -0.505444
O10   O     O_2   0.150446 0.286337 0.511489 -0.502737
O11   O     O_2   0.848791 0.283317 0.503582 -0.547263
O12   O     O_2   0.150970 0.721712 0.491497 -0.554083
N5    N     N_3   0.944274 0.152802 0.521877 -0.491816
H7    H     H_    0.916757 0.149689 0.609611 0.242586
H8    H     H_    0.922436 0.136641 0.428327 0.288682
N6    N     N_3   0.055214 0.853686 0.509908 -0.487490
H9    H     H_    0.081234 0.862570 0.597480 0.245336
H10   H     H_    0.078667 0.864052 0.416095 0.285726
N7    N     N_3   0.393270 0.461267 0.901083 -0.569395
H11   H     H_    0.365485 0.458470 0.988405 0.185473
H12   H     H_    0.393057 0.371850 0.853881 0.215928
N8    N     N_3   0.606804 0.538261 0.099272 -0.571414
H13   H     H_    0.634652 0.540992 0.012058 0.187169
H14   H     H_    0.607123 0.627621 0.146602 0.215929
N9    N     N_3   0.540941 0.719648 0.897985 -0.586963
H15   H     H_    0.551757 0.776461 0.984665 0.182500
H16   H     H_    0.578790 0.698136 0.843071 0.223317
N10   N     N_3   0.459083 0.280364 0.102066 -0.587270
H17   H     H_    0.448322 0.223482 0.015398 0.181764
H18   H     H_    0.421203 0.301877 0.156849 0.221277
O13   O     O_3   0.058543 0.165013 0.548429 -0.504535
C45   C     C_3   0.061895 0.146758 0.695005 -0.200351
H19   H     H_    0.019221 0.127333 0.742255 0.139393
H20   H     H_    0.081789 0.228154 0.750793 0.134311
H21   H     H_    0.089174 0.064478 0.712311 0.184058
O14   O     O_3   0.940370 0.842632 0.534385 -0.504611
C46   C     C_3   0.932432 0.867220 0.680586 -0.194598
H22   H     H_    0.973346 0.893343 0.730071 0.142078
H23   H     H_    0.912749 0.786651 0.735811 0.124999
H24   H     H_    0.902834 0.947039 0.695921 0.187681
N11   N     N_3   0.208342 0.533969 0.763563 -0.573469
H25   H     H_    0.182942 0.613800 0.759603 0.243241
H26   H     H_    0.181703 0.456622 0.776939 0.220807
N12   N     N_3   0.787357 0.540166 0.757668 -0.605081
H27   H     H_    0.813590 0.463251 0.773563 0.230948
H28   H     H_    0.812974 0.619833 0.751185 0.229730
O15   O     O_3   0.208993 0.478538 0.251279 -0.560688
C47   C     C_3   0.226221 0.373123 0.168510 -0.270361
H29   H     H_    0.232017 0.288534 0.232931 0.173178
H30   H     H_    0.265531 0.393833 0.106507 0.149044
H31   H     H_    0.192456 0.351040 0.091852 0.195065
O16   O     O_3   0.793575 0.457133 0.248466 -0.558419
C48   C     C_3   0.787870 0.557942 0.156843 -0.286961
H32   H     H_    0.798890 0.648844 0.209576 0.181927
H33   H     H_    0.744351 0.561586 0.113809 0.162112
H34   H     H_    0.817969 0.543724 0.066246 0.199115
N13   N     N_3   0.610260 0.906577 0.510481 -0.583615
H35   H     H_    0.638399 0.982033 0.504168 0.264087
H36   H     H_    0.617004 0.850946 0.419430 0.220006
N14   N     N_3   0.389718 0.093421 0.489501 -0.586793
H37   H     H_    0.361579 0.017961 0.495765 0.262875
H38   H     H_    0.382967 0.149021 0.580572 0.220355
O17   O     O_3   0.552097 0.105554 0.731447 -0.571658
C49   C     C_3   0.566683 0.017936 0.832404 -0.316697
H39   H     H_    0.589424 0.935705 0.784806 0.200166
H40   H     H_    0.528474 0.988533 0.893132 0.154261
H41   H     H_    0.595758 0.063783 0.908473 0.188939
O18   O     O_3   0.447877 0.894445 0.268547 -0.571002
C50   C     C_3   0.433280 0.982068 0.167604 -0.318658
H42   H     H_    0.471485 0.011480 0.106867 0.154764
H43   H     H_    0.410538 0.064294 0.215213 0.198531
H44   H     H_    0.404203 0.936221 0.091543 0.188541
N15   N     N_3   0.435206 0.927994 0.735189 -0.571288
H45   H     H_    0.428570 0.007202 0.800283 0.210466
H46   H     H_    0.458388 0.864348 0.792299 0.257981
N16   N     N_3   0.564772 0.071997 0.264799 -0.569572
H47   H     H_    0.571407 0.992786 0.199710 0.210834
H48   H     H_    0.541591 0.135640 0.207685 0.257941

loop_
_geom_bond_atom_site_label_1
_geom_bond_atom_site_label_2
_ccdc_geom_bond_type
O13   C45   S    
Cu1   O4    S    
C46   H22   S    
C8    C24   S    
Cu2   O3    S    
C18   C21   S    
C36   C42   A    
C9    H5    S    
C25   N4    S    
C10   H6    S    
C26   N3    S    
C47   H30   S    
N11   H25   S    
C28   N4    S    
C17   N13   S    
Cu1   Cu2   S    
O16   C48   S    
Cu1   O1    S    
Cu2   O6    S    
C41   N5    S    
C28   C29   S    
C35   C37   A    
N10   H18   S    
N13   H35   S    
C1    O3    A    
N8    H14   S    
N14   H37   S    
C18   C20   S    
C31   O9    S    
N5    H8    S    
N12   H27   S    
N11   H26   S    
C40   C43   A    
N14   H38   S    
N16   H47   S    
C50   H44   S    
C24   O6    A    
C15   O17   S    
C28   N8    S    
C25   H1    S    
C34   C36   A    
C3    C13   A    
C49   H41   S    
C26   H2    S    
C22   N16   S    
C23   O7    A    
C46   H23   S    
Cu2   O2    S    
C27   C30   S    
C33   N1    A    
C41   C43   A    
C5    H3    S    
C42   C44   A    
C27   N7    S    
C32   N2    A    
C47   H29   S    
N9    H16   S    
C49   H40   S    
N9    H15   S    
C5    C7    A    
C25   C29   S    
C15   C20   S    
N10   H17   S    
N6    H10   S    
C48   H34   S    
C34   O12   S    
C12   O16   S    
N8    H13   S    
C17   C19   S    
C6    C8    A    
C29   N3    S    
C30   N4    S    
C6    H4    S    
N7    H11   S    
C29   N9    S    
C37   C38   A    
C1    O1    A    
C9    C11   A    
C3    N11   S    
C45   H21   S    
C23   O5    A    
C42   N6    S    
C31   N1    A    
N7    H12   S    
C21   N15   S    
C10   C12   A    
C16   C18   S    
N12   H28   S    
C45   H20   S    
C26   C30   S    
C46   H24   S    
C4    N12   S    
C50   H42   S    
C4    C6    A    
C18   N14   S    
C36   C38   A    
C49   H39   S    
C33   O11   S    
C32   O10   S    
N15   H45   S    
C15   C17   S    
C1    C20   S    
C16   C22   S    
Cu1   O8    S    
C19   C21   S    
C2    C19   S    
C8    C10   A    
C20   C22   S    
N6    H9    S    
C3    C5    A    
C44   O14   S    
O17   C49   S    
C2    O2    A    
C34   N2    A    
C39   C44   A    
C25   C27   S    
C13   N2    S    
C27   N3    S    
C26   C28   S    
C17   C22   S    
Cu2   O7    S    
C43   O13   S    
C48   H33   S    
C12   C14   A    
C37   C39   A    
C4    C14   A    
C48   H32   S    
C38   C40   A    
C11   C13   A    
C16   C19   S    
C7    C23   S    
Cu1   O5    S    
O14   C46   S    
C33   C35   A    
C31   C39   A    
C24   O8    A    
C2    O4    A    
C32   C40   A    
C30   N10   S    
N5    H7    S    
C35   C41   A    
C7    C9    A    
C15   C21   S    
C14   N1    S    
C45   H19   S    
Cu1   N3    S    
N16   H48   S    
Cu2   N4    S    
O15   C47   S    
C50   H43   S    
C11   O15   S    
N13   H36   S    
C16   O18   S    
C47   H31   S    
O18   C50   S    
N15   H46   S    
