data_mof_unit_38967.cif
_audit_creation_date              2012-12-11T18:37:41-0500
_audit_creation_method            fapswitch 2.2
_symmetry_space_group_name_H-M    P1
_symmetry_Int_Tables_number       1
_space_group_crystal_system       triclinic
_cell_length_a                    8.211227
_cell_length_b                    14.316783
_cell_length_c                    26.975266
_cell_angle_alpha                 93.343182
_cell_angle_beta                  92.759465
_cell_angle_gamma                 88.172203
_cell_volume                      3160.75443869

loop_
_atom_site_label
_atom_site_type_symbol
_atom_type_description
_atom_site_fract_x
_atom_site_fract_y
_atom_site_fract_z
_atom_type_partial_charge
Ba1   Ba    Ba6+2 0.849670 0.455410 0.524690 1.644121
Ba2   Ba    Ba6+2 0.340150 0.544510 0.475310 1.653744
C1    C     C_3   0.637945 0.119756 0.662386 -0.006527
C2    C     C_R   0.951496 0.602280 0.178880 0.600800
C3    C     C_2   0.773664 0.568234 0.270480 -0.104541
C4    C     C_3   0.108121 0.237612 0.666537 0.232545
C5    C     C_3   0.751681 0.594080 0.324810 -0.048781
C6    C     C_1   0.979783 0.485263 0.343723 0.035556
C7    C     C_2   0.023290 0.481704 0.296524 -0.082733
C8    C     C_2   0.913654 0.523455 0.256485 0.200426
C9    C     C_R   0.040250 0.517062 0.103299 -0.118019
C10   C     C_R   0.057085 0.434655 0.129912 -0.024701
C11   C     C_R   0.116218 0.351761 0.104769 0.162981
C12   C     C_3   0.615595 0.217630 0.642947 0.337956
C13   C     C_R   0.985754 0.600792 0.128033 -0.026622
C14   C     C_2   0.849085 0.532514 0.359283 -0.274267
C15   C     C_2   0.349366 0.476657 0.642543 -0.293841
C16   C     C_3   0.050396 0.214311 0.717362 -0.100480
C17   C     C_R   0.194496 0.435819 0.977885 0.034168
C18   C     C_R   0.077251 0.595020 0.972771 -0.010721
C19   C     C_R   0.155036 0.515324 0.949836 0.055036
C20   C     C_R   0.284205 0.360936 0.954828 -0.095673
C21   C     C_R   0.327904 0.362647 0.905715 -0.036468
C22   C     C_R   0.282682 0.438499 0.876888 -0.025681
C23   C     C_3   0.524491 0.692713 0.623064 0.281891
C24   C     C_R   0.194501 0.515132 0.898561 -0.107403
C25   C     C_R   0.147021 0.591338 0.869201 -0.068571
C26   C     C_R   0.189311 0.587787 0.818307 0.624100
C27   C     C_R   0.325315 0.438671 0.826842 0.622443
C28   C     C_3   0.163545 0.258239 0.423963 0.308712
C29   C     C_2   0.469912 0.494567 0.730076 0.125179
C30   C     C_3   0.503876 0.488270 0.674783 -0.073519
C31   C     C_1   0.214472 0.519272 0.657110 0.047378
C32   C     C_2   0.179759 0.521216 0.704941 -0.154485
C33   C     C_2   0.313588 0.508168 0.744749 0.222941
C34   C     C_3   0.501862 0.730626 0.676246 -0.332584
C35   C     C_R   0.145355 0.434128 0.028044 0.004613
C36   C     C_R   0.078547 0.516314 0.051931 0.053048
C37   C     C_R   0.050128 0.598088 0.024873 0.034008
C38   C     C_R   0.159750 0.352514 0.055141 -0.125577
C39   C     C_R   0.967844 0.682300 0.101622 -0.035597
C40   C     C_3   0.168271 0.152636 0.413405 -0.371334
C41   C     C_R   0.026720 0.668814 0.942578 -0.105415
C42   C     C_R   0.058472 0.667676 0.892063 0.223009
C43   C     C_R   0.997872 0.680964 0.051244 -0.097029
C44   C     C_R   0.689347 0.064718 0.471989 -0.034213
C45   C     C_3   0.033855 0.766569 0.332350 0.380722
C46   C     C_R   0.512039 0.198559 0.502037 0.046502
C47   C     C_R   0.376795 0.230096 0.528334 -0.292058
C48   C     C_R   0.278304 0.167248 0.549432 0.016199
C49   C     C_R   0.322679 0.072565 0.548600 -0.134190
C50   C     C_R   0.462538 0.039599 0.524271 -0.011385
C51   C     C_R   0.556209 0.101722 0.499119 -0.030186
C52   C     C_3   0.031523 0.741040 0.574187 0.302244
C53   C     C_R   0.639465 0.907977 0.497316 -0.022157
C54   C     C_R   0.733656 0.969111 0.471794 0.001845
C55   C     C_R   0.682918 0.811799 0.496028 0.025269
C56   C     C_3   0.945167 0.836425 0.299285 0.003262
C57   C     C_R   0.816504 0.777744 0.469935 -0.279602
C58   C     C_R   0.917705 0.838500 0.448527 0.008256
C59   C     C_R   0.874611 0.934022 0.448086 -0.148244
C60   C     C_R   0.505571 0.944512 0.523601 -0.034633
C61   C     C_3   0.026808 0.846844 0.584084 -0.367141
C62   C     C_3   0.659213 0.339407 0.379827 0.295440
C63   C     C_3   0.660169 0.316063 0.324106 -0.352607
C64   C     C_3   0.539397 0.795589 0.354757 0.390542
C65   C     C_3   0.508390 0.889989 0.332431 -0.318553
C66   C     C_R   0.012064 0.437643 0.180540 0.614576
H1    H     H_    0.706301 0.221494 0.613894 0.068442
H2    H     H_    0.783420 0.357865 0.393644 0.008446
H3    H     H_    0.573873 0.399978 0.386530 0.079477
H4    H     H_    0.605733 0.066956 0.631987 0.039068
H5    H     H_    0.750775 0.258580 0.316055 0.140520
H6    H     H_    0.692617 0.378363 0.304536 0.068124
H7    H     H_    0.537285 0.293943 0.309926 0.139220
H8    H     H_    0.490784 0.225829 0.626111 -0.052980
H9    H     H_    0.403086 0.673538 0.606415 0.028452
H10   H     H_    0.607228 0.629878 0.623300 0.036023
H11   H     H_    0.428780 0.797280 0.676251 0.157459
H12   H     H_    0.257648 0.132922 0.384703 0.135215
H13   H     H_    0.436262 0.680018 0.696913 0.074891
H14   H     H_    0.622488 0.743490 0.695415 0.142011
H15   H     H_    0.767181 0.106537 0.674413 0.105240
H16   H     H_    0.099546 0.712880 0.308844 0.097299
H17   H     H_    0.940642 0.729830 0.351524 -0.130875
H18   H     H_    0.843383 0.801559 0.277700 0.091457
H19   H     H_    0.893704 0.895754 0.322534 0.054286
H20   H     H_    0.673432 0.782658 0.357041 -0.116983
H21   H     H_    0.493961 0.799758 0.392960 0.079357
H22   H     H_    0.580136 0.944029 0.354233 0.051408
H23   H     H_    0.204284 0.116597 0.447651 0.062058
H24   H     H_    0.377492 0.910887 0.333483 0.177337
H25   H     H_    0.074801 0.311956 0.660472 0.077856
H26   H     H_    0.545973 0.886493 0.293352 0.139985
H27   H     H_    0.139800 0.449666 0.286744 0.128709
H28   H     H_    0.397435 0.303249 0.890220 0.140771
H29   H     H_    0.327382 0.300697 0.974302 0.078356
H30   H     H_    0.200369 0.286293 0.038266 0.075787
H31   H     H_    0.689222 0.598046 0.243070 0.113190
H32   H     H_    0.928753 0.748118 0.119843 0.143308
H33   H     H_    0.955880 0.727982 0.957054 0.101823
H34   H     H_    0.045659 0.129115 0.399815 0.122043
H35   H     H_    0.242533 0.227563 0.665996 0.025789
H36   H     H_    0.054785 0.532866 0.715609 0.129073
H37   H     H_    0.984033 0.747242 0.034271 0.084098
H38   H     H_    0.828321 0.542759 0.398674 0.079294
H39   H     H_    0.350039 0.435852 0.607311 0.075482
H40   H     H_    0.341180 0.303575 0.529309 0.067803
H41   H     H_    0.245602 0.024559 0.565547 0.079574
H42   H     H_    0.952759 0.980695 0.430688 0.071032
H43   H     H_    0.849594 0.703954 0.469885 0.060304
H44   H     H_    0.760984 0.109134 0.451113 0.102438
H45   H     H_    0.909094 0.717484 0.561806 0.000618
H46   H     H_    0.916522 0.225901 0.718419 0.163090
H47   H     H_    0.431892 0.899728 0.543665 0.099117
H48   H     H_    0.078819 0.139384 0.723667 0.162031
H49   H     H_    0.287817 0.281588 0.434424 0.000225
H50   H     H_    0.081897 0.275458 0.454997 0.069625
H51   H     H_    0.098502 0.342450 0.751488 0.179478
H52   H     H_    0.253931 0.262528 0.755097 0.258557
H53   H     H_    0.256547 0.242939 0.128356 0.184059
H54   H     H_    0.063731 0.215543 0.109278 0.188254
H55   H     H_    0.670245 0.436116 0.763819 0.225903
H56   H     H_    0.117886 0.722895 0.544602 0.071344
H57   H     H_    0.680124 0.552077 0.756669 0.171344
H58   H     H_    0.933069 0.867514 0.611302 0.145364
H59   H     H_    0.996871 0.882265 0.549245 0.059038
H60   H     H_    0.147854 0.870304 0.599239 0.120963
I1    I     I_    0.490209 0.098646 0.723519 -0.395458
I2    I     I_    0.104924 0.889035 0.247886 -0.379590
I3    I     I_    0.960128 0.786943 0.855565 -0.308931
N1    N     N_R   0.959920 0.520823 0.204489 -0.431802
N2    N     N_R   0.275859 0.511716 0.797550 -0.424014
N3    N     N_3   0.127976 0.272225 0.757330 -0.473525
N4    N     N_3   0.134348 0.265601 0.129330 -0.420678
N5    N     N_3   0.603846 0.499548 0.766246 -0.451576
O1    O     O_2   0.918080 0.549800 0.616640 -0.459176
O2    O     O_2   0.257648 0.834155 0.456924 -0.496312
O3    O     O_3   0.147717 0.813450 0.364820 -0.587935
O4    O     O_3   0.150070 0.549720 0.556460 -0.495726
O5    O     O_3   0.546340 0.387390 0.478340 -0.486975
O6    O     O_2   0.398940 0.728800 0.517420 -0.471930
O7    O     O_3   0.593849 0.762124 0.597096 -0.640875
O8    O     O_2   0.418265 0.542630 0.321650 -0.486793
O9    O     O_3   0.458590 0.725051 0.325282 -0.561566
O10   O     O_2   0.017093 0.366011 0.203074 -0.556185
O11   O     O_2   0.406676 0.373094 0.809279 -0.578720
O12   O     O_3   0.610040 0.260935 0.403187 -0.638024
O13   O     O_2   0.915212 0.676822 0.200529 -0.592274
O14   O     O_2   0.152239 0.653080 0.792587 -0.543195
O15   O     O_3   0.658250 0.379560 0.591530 -0.485402
O16   O     O_2   0.833254 0.424803 0.673184 -0.504578
O17   O     O_3   0.080395 0.699594 0.618310 -0.619123
O18   O     O_3   0.639469 0.286957 0.681638 -0.588030
O19   O     O_2   0.790750 0.271170 0.482550 -0.467002
O20   O     O_3   0.062300 0.331660 0.568480 -0.487025
O21   O     O_2   0.945597 0.166098 0.536946 -0.484691
O22   O     O_3   0.032556 0.177343 0.630264 -0.609606
O23   O     O_2   0.271610 0.450170 0.383330 -0.458560
O24   O     O_3   0.039630 0.450200 0.443530 -0.500573
O25   O     O_3   0.531440 0.620360 0.408460 -0.478993
O26   O     O_3   0.106491 0.300523 0.380831 -0.622509
O27   O     O_3   0.643350 0.612530 0.521650 -0.471846
O28   O     O_3   0.127390 0.668260 0.431510 -0.471198
P1    P     P_3+3 0.090020 0.577590 0.608380 1.006261
P2    P     P_3+3 0.614340 0.285150 0.467650 0.973324
P3    P     P_3+3 0.080968 0.210083 0.571507 0.939887
P4    P     P_3+3 0.099670 0.422330 0.391610 0.994674
P5    P     P_3+3 0.113051 0.789953 0.426289 0.964156
P6    P     P_3+3 0.658620 0.396138 0.656072 0.962308
P7    P     P_3+3 0.584204 0.729662 0.533544 0.939772
P8    P     P_3+3 0.537985 0.616970 0.343844 0.975369

loop_
_geom_bond_atom_site_label_1
_geom_bond_atom_site_label_2
_ccdc_geom_bond_type
C27   N2    Am   
C53   C54   A    
C52   H45   S    
C26   O14   D    
C44   H44   S    
Ba1   O20   S    
O12   P2    S    
C19   C24   A    
C56   H19   S    
C33   N2    S    
C52   O17   S    
O1    P1    D    
C66   O10   D    
C2    N1    Am   
C21   H28   S    
C42   I3    S    
C40   H12   S    
C2    O13   D    
C10   C66   A    
C24   C25   A    
O15   P6    S    
C23   H9    S    
C58   P5    S    
C45   H17   S    
C17   C19   A    
C22   C24   A    
Ba1   Ba2   S    
C35   C38   A    
C15   H39   S    
C64   H20   S    
C36   C37   A    
C55   C57   A    
C52   C61   S    
O19   P2    D    
C53   C60   A    
C40   H34   S    
C63   H5    S    
O23   P4    D    
O18   P6    S    
C66   N1    Am   
C32   C33   S    
C62   H3    S    
C26   N2    Am   
Ba1   O19   S    
C22   C27   A    
C64   O9    S    
C52   H56   S    
C6    P4    S    
O25   P8    S    
C9    C13   A    
C25   C42   A    
C3    H31   S    
C34   H14   S    
Ba2   O23   S    
C11   C38   A    
C65   H26   S    
C57   H43   S    
C21   C22   A    
O3    P5    S    
C62   H2    S    
C47   H40   S    
O27   P7    S    
C7    C8    S    
C7    H27   S    
C61   H60   S    
C14   H38   S    
C37   C43   A    
C61   H59   S    
C45   O3    S    
C64   C65   S    
O9    P8    S    
C57   C58   A    
C49   H41   S    
C20   H29   S    
C5    P8    S    
C62   O12   S    
O2    P5    D    
C11   N4    S    
C16   H46   S    
O28   P5    S    
C23   O7    S    
C15   C31   D    
C59   H42   S    
C56   H18   S    
Ba2   O25   S    
C4    O22   S    
C43   H37   S    
O22   P3    S    
C48   C49   A    
C64   H21   S    
C46   C51   A    
C4    C16   S    
H51   N3    S    
C49   C50   A    
C17   C20   A    
C13   C39   A    
C16   H48   S    
C3    C5    S    
C18   C37   A    
C6    C7    D    
C28   H50   S    
O20   P3    S    
C4    H35   S    
C65   H22   S    
C32   H36   S    
C63   H6    S    
C23   H10   S    
C58   C59   A    
C12   H8    S    
C9    C36   A    
C41   C42   A    
C41   H33   S    
C35   C36   A    
O16   P6    D    
C29   C30   S    
Ba1   P1    S    
C34   H13   S    
C4    H25   S    
C31   C32   D    
O5    P2    S    
C39   H32   S    
C54   C59   A    
C45   H16   S    
H53   N4    S    
Ba1   O4    S    
C1    C12   S    
O26   P4    S    
H57   N5    S    
Ba2   O24   S    
C46   C47   A    
C53   C55   A    
C1    H15   S    
Ba2   O6    S    
C12   H1    S    
C29   C33   D    
O21   P3    D    
C17   C35   A    
C28   O26   S    
Ba2   O28   S    
Ba2   P4    S    
C25   C26   A    
C18   C41   A    
Ba1   O1    S    
C50   C51   A    
O4    P1    S    
C15   C30   S    
C30   P6    S    
C5    C14   S    
O17   P1    S    
C1    I1    S    
Ba1   O24   S    
C31   P1    S    
C29   N5    S    
C34   H11   S    
Ba2   O27   S    
C27   O11   D    
C9    C10   A    
C28   H49   S    
O8    P8    D    
C63   H7    S    
H55   N5    S    
Ba2   O4    S    
C62   C63   S    
C2    C13   A    
C1    H4    S    
O7    P7    S    
C60   H47   S    
C50   C60   A    
C45   C56   S    
C38   H30   S    
Ba1   P2    S    
C56   I2    S    
C44   C51   A    
C65   H24   S    
Ba1   O15   S    
C16   N3    S    
H52   N3    S    
O24   P4    S    
C8    N1    S    
H54   N4    S    
C61   H58   S    
Ba1   O5    S    
C23   C34   S    
C3    C8    D    
C46   P2    S    
C18   C19   A    
Ba1   O27   S    
C6    C14   D    
C47   C48   A    
C44   C54   A    
C48   P3    S    
Ba2   O5    S    
C39   C43   A    
C20   C21   A    
C28   C40   S    
C10   C11   A    
C12   O18   S    
C40   H23   S    
O6    P7    D    
C55   P7    S    
