data_mof_unit_63089.cif
_audit_creation_date              2012-12-10T17:43:21-0500
_audit_creation_method            fapswitch 2.2
_symmetry_space_group_name_H-M    P1
_symmetry_Int_Tables_number       1
_space_group_crystal_system       triclinic
_cell_length_a                    37.49581
_cell_length_b                    30.381808
_cell_length_c                    21.548748
_cell_angle_alpha                 89.999778
_cell_angle_beta                  54.222539
_cell_angle_gamma                 90.000245
_cell_volume                      19915.7465076

loop_
_atom_site_label
_atom_site_type_symbol
_atom_type_description
_atom_site_fract_x
_atom_site_fract_y
_atom_site_fract_z
_atom_type_partial_charge
C1    C     C_R   0.914966 0.499982 0.584407 0.805874
C2    C     C_R   0.085034 0.499983 0.415594 0.805864
C3    C     C_R   0.414968 0.999983 0.584399 0.805831
C4    C     C_R   0.585032 0.999983 0.415602 0.805822
C5    C     C_3   0.957289 0.470268 0.259947 0.093866
C6    C     C_3   0.042713 0.470272 0.740051 0.093871
C7    C     C_3   0.457285 0.970274 0.259950 0.093859
C8    C     C_3   0.542718 0.970279 0.740046 0.093868
C9    C     C_R   0.797586 0.463005 0.718617 -0.211822
C10   C     C_R   0.202415 0.463031 0.281305 -0.211817
C11   C     C_R   0.297578 0.963097 0.718851 -0.211783
C12   C     C_R   0.702423 0.963123 0.281084 -0.211774
C13   C     C_R   0.843249 0.462640 0.673220 -0.207550
C14   C     C_R   0.156751 0.462663 0.326700 -0.207541
C15   C     C_R   0.343242 0.962719 0.673466 -0.207548
C16   C     C_R   0.656759 0.962741 0.326466 -0.207546
C17   C     C_R   0.866859 0.500011 0.630861 -0.085125
C18   C     C_R   0.133140 0.500013 0.369141 -0.085100
C19   C     C_R   0.366864 0.000015 0.630830 -0.085023
C20   C     C_R   0.633134 0.000016 0.369176 -0.084997
C21   C     C_R   0.844278 0.537510 0.633223 -0.204200
C22   C     C_R   0.155717 0.537490 0.366865 -0.204173
C23   C     C_R   0.344301 0.037443 0.632887 -0.204152
C24   C     C_R   0.655693 0.037425 0.367200 -0.204134
C25   C     C_R   0.798305 0.538002 0.677439 0.287885
C26   C     C_R   0.201689 0.537984 0.322654 0.287893
C27   C     C_R   0.298330 0.037942 0.677079 0.287912
C28   C     C_R   0.701664 0.037925 0.323016 0.287921
C29   C     C_R   0.774885 0.500390 0.721286 0.057736
C30   C     C_R   0.225113 0.500396 0.278721 0.057733
C31   C     C_R   0.274893 0.000414 0.721222 0.057703
C32   C     C_R   0.725105 0.000421 0.278793 0.057693
C33   C     C_R   0.704006 0.499917 0.737243 -0.236014
C34   C     C_R   0.295995 0.499909 0.262759 -0.236056
C35   C     C_R   0.204002 0.999792 0.737213 -0.236076
C36   C     C_R   0.795999 0.999770 0.262794 -0.236093
C37   C     C_R   0.658089 0.499883 0.783102 0.202149
C38   C     C_R   0.341911 0.499874 0.216898 0.202145
C39   C     C_R   0.158085 0.999757 0.783087 0.202044
C40   C     C_R   0.841916 0.999739 0.216916 0.202026
C41   C     C_R   0.634210 0.498171 0.864253 -0.121669
C42   C     C_R   0.365789 0.498172 0.135747 -0.121672
C43   C     C_R   0.134213 0.998208 0.864247 -0.121697
C44   C     C_R   0.865786 0.998218 0.135755 -0.121727
C45   C     C_R   0.000099 0.500083 0.379814 0.776085
C46   C     C_R   0.999901 0.500083 0.620185 0.776086
C47   C     C_R   0.500099 0.000083 0.379815 0.776048
C48   C     C_R   0.499901 0.000083 0.620186 0.776046
C49   C     C_R   0.658138 0.495252 0.896570 0.210598
C50   C     C_R   0.341861 0.495262 0.103431 0.210601
C51   C     C_R   0.158152 0.995475 0.896562 0.210568
C52   C     C_R   0.841846 0.995523 0.103440 0.210545
C53   C     C_R   0.704045 0.496449 0.849045 -0.247508
C54   C     C_R   0.295954 0.496464 0.150957 -0.247484
C55   C     C_R   0.204058 0.996673 0.849016 -0.247406
C56   C     C_R   0.795939 0.996719 0.150990 -0.247374
C57   C     C_R   0.726810 0.499151 0.769995 0.018028
C58   C     C_R   0.273190 0.499158 0.230009 0.018039
C59   C     C_R   0.226815 0.999195 0.769951 0.018036
C60   C     C_R   0.773183 0.999206 0.230059 0.018038
C61   C     C_R   0.000000 0.585050 0.000000 0.826708
C62   C     C_R   0.500000 0.085049 1.000000 0.826725
C63   C     C_R   0.999660 0.496811 0.120321 0.811433
C64   C     C_R   0.000340 0.496811 0.879679 0.811438
C65   C     C_R   0.499660 0.996811 0.120321 0.811412
C66   C     C_R   0.500340 0.996811 0.879679 0.811416
C67   C     C_R   1.000000 0.414844 0.000000 0.749417
C68   C     C_R   0.500000 0.914846 0.000000 0.749382
C69   C     C_R   0.500000 0.415072 1.000000 0.822635
C70   C     C_R   0.000000 0.915074 1.000000 0.823064
C71   C     C_R   0.585263 0.499341 0.914319 0.813162
C72   C     C_R   0.414737 0.499341 0.085681 0.813167
C73   C     C_R   0.085264 0.999352 0.914318 0.813145
C74   C     C_R   0.914735 0.999355 0.085683 0.813181
C75   C     C_R   0.500000 0.584786 0.000000 0.857025
C76   C     C_R   1.000000 0.084785 0.000000 0.856900
C77   C     C_R   0.039762 0.702558 0.956028 -0.175169
C78   C     C_R   0.960238 0.702557 0.043979 -0.175167
C79   C     C_R   0.539756 0.202555 0.955881 -0.175179
C80   C     C_R   0.460245 0.202554 0.044118 -0.175178
C81   C     C_3   0.002213 0.546911 0.280939 -0.400559
C82   C     C_3   0.997784 0.546910 0.719065 -0.400560
C83   C     C_3   0.502219 0.046911 0.280932 -0.400556
C84   C     C_3   0.497774 0.046910 0.719074 -0.400555
C85   C     C_R   0.039773 0.656724 0.956037 -0.200611
C86   C     C_R   0.960227 0.656723 0.043968 -0.200610
C87   C     C_R   0.539767 0.156722 0.955893 -0.200616
C88   C     C_R   0.460234 0.156721 0.044105 -0.200620
C89   C     C_R   0.000000 0.633414 0.000002 -0.044418
C90   C     C_R   0.500000 0.133413 1.000000 -0.044403
C91   C     C_R   1.000000 0.725830 0.000004 0.145162
C92   C     C_R   0.500001 0.225827 1.000000 0.145169
C93   C     C_R   0.473066 0.297478 0.068765 -0.245845
C94   C     C_R   0.526935 0.297478 0.931234 -0.245845
C95   C     C_R   0.972967 0.797485 0.068740 -0.245802
C96   C     C_R   0.027031 0.797484 0.931264 -0.245802
C97   C     C_R   0.472367 0.343490 0.069369 0.208486
C98   C     C_R   0.527634 0.343491 0.930630 0.208488
C99   C     C_R   0.972267 0.843498 0.069336 0.208440
C100  C     C_R   0.027729 0.843497 0.930664 0.208430
C101  C     C_R   0.500000 0.366778 1.000000 -0.089257
C102  C     C_R   0.999999 0.866783 0.000000 -0.089088
C103  C     C_R   0.500001 0.274310 1.000000 0.031318
C104  C     C_R   1.000000 0.774315 0.000003 0.031321
C105  C     C_R   0.038268 0.297354 0.976679 -0.173055
C106  C     C_R   0.961728 0.297353 0.023336 -0.173056
C107  C     C_R   0.538203 0.797358 0.977065 -0.173013
C108  C     C_R   0.461796 0.797358 0.022943 -0.173011
C109  C     C_R   0.038330 0.343207 0.976277 -0.197584
C110  C     C_R   0.961667 0.343207 0.023733 -0.197581
C111  C     C_R   0.538266 0.843212 0.976660 -0.197556
C112  C     C_R   0.461733 0.843211 0.023345 -0.197557
C113  C     C_R   0.999999 0.366483 0.000003 -0.024583
C114  C     C_R   0.500000 0.866486 0.000002 -0.024530
C115  C     C_3   0.999043 0.544745 0.212590 0.050863
C116  C     C_3   0.000954 0.544745 0.787413 0.050863
C117  C     C_3   0.499048 0.044745 0.212585 0.050872
C118  C     C_3   0.500946 0.044745 0.787421 0.050872
C119  C     C_R   0.999998 0.273965 0.000008 0.142187
C120  C     C_R   0.499999 0.773969 0.000005 0.142097
C121  C     C_R   0.463384 0.702027 0.059327 -0.236503
C122  C     C_R   0.536613 0.702029 0.940678 -0.236504
C123  C     C_R   0.963466 0.202022 0.059521 -0.236575
C124  C     C_R   0.036529 0.202024 0.940491 -0.236580
C125  C     C_R   0.462770 0.655991 0.059111 0.208508
C126  C     C_R   0.537227 0.655993 0.940890 0.208509
C127  C     C_R   0.962849 0.155986 0.059308 0.208539
C128  C     C_R   0.037149 0.155989 0.940700 0.208539
C129  C     C_R   0.499999 0.632870 0.000000 -0.071829
C130  C     C_R   0.999999 0.132867 0.000002 -0.071944
C131  C     C_R   0.499999 0.725329 0.000004 0.028099
C132  C     C_R   0.999997 0.225324 0.000007 0.028163
C133  C     C_3   0.038541 0.472466 0.247765 -0.432653
C134  C     C_3   0.961461 0.472462 0.752234 -0.432639
C135  C     C_3   0.538537 0.972461 0.247769 -0.432660
C136  C     C_3   0.461467 0.972454 0.752228 -0.432642
C137  C     C_3   0.955081 0.478112 0.334079 0.045176
C138  C     C_3   0.044921 0.478116 0.665919 0.045181
C139  C     C_3   0.455078 0.978119 0.334082 0.045202
C140  C     C_3   0.544925 0.978125 0.665915 0.045206
C141  C     C_3   0.998797 0.499846 0.312204 0.031645
C142  C     C_3   0.001203 0.499845 0.687796 0.031640
C143  C     C_3   0.498797 0.999846 0.312204 0.031666
C144  C     C_3   0.501203 0.999846 0.687796 0.031661
C145  C     C_3   0.998653 0.495709 0.190616 0.053885
C146  C     C_3   0.001347 0.495708 0.809384 0.053884
C147  C     C_3   0.498653 0.995709 0.190616 0.053901
C148  C     C_3   0.501347 0.995709 0.809384 0.053900
C149  C     C_3   0.040676 0.473443 0.174207 -0.425830
C150  C     C_3   0.959326 0.473439 0.825791 -0.425837
C151  C     C_3   0.540673 0.973439 0.174211 -0.425851
C152  C     C_3   0.459330 0.973432 0.825787 -0.425863
Cu1   Cu    Cu3+1 0.000000 0.544030 0.500000 0.920341
Cu2   Cu    Cu3+1 0.500000 0.044030 0.500000 0.920389
Cu3   Cu    Cu3+1 0.000000 0.455920 0.500000 0.920607
Cu4   Cu    Cu3+1 0.500000 0.955920 0.500000 0.920651
Cu5   Cu    Cu3+1 0.955920 0.499940 0.044070 0.921130
Cu6   Cu    Cu3+1 0.044080 0.499940 0.955930 0.921127
Cu7   Cu    Cu3+1 0.455920 0.999940 0.044070 0.921134
Cu8   Cu    Cu3+1 0.544080 0.999940 0.955930 0.921127
Cu9   Cu    Cu3+1 0.499970 0.499990 0.937550 0.978762
Cu10  Cu    Cu3+1 0.500030 0.499990 0.062450 0.978769
Cu11  Cu    Cu3+1 0.999970 0.999990 0.937550 0.978794
Cu12  Cu    Cu3+1 0.000030 0.999990 0.062450 0.978800
H1    H     H_    0.044335 0.439402 0.152293 0.199449
H2    H     H_    0.955669 0.439398 0.847704 0.199448
H3    H     H_    0.544328 0.939398 0.152299 0.199419
H4    H     H_    0.455679 0.939391 0.847695 0.199417
H5    H     H_    0.779796 0.433979 0.751672 0.147411
H6    H     H_    0.220206 0.434023 0.248186 0.147406
H7    H     H_    0.279776 0.934134 0.752134 0.147405
H8    H     H_    0.720227 0.934177 0.247741 0.147404
H9    H     H_    0.862384 0.566595 0.600944 0.160081
H10   H     H_    0.137607 0.566558 0.399209 0.160046
H11   H     H_    0.362424 0.066467 0.600379 0.159978
H12   H     H_    0.637566 0.066432 0.399770 0.159948
H13   H     H_    0.976316 0.568808 0.326600 0.190804
H14   H     H_    0.023679 0.568810 0.673405 0.190806
H15   H     H_    0.476326 0.068812 0.326590 0.190804
H16   H     H_    0.523664 0.068816 0.673419 0.190809
H17   H     H_    0.722121 0.494848 0.873961 0.143493
H18   H     H_    0.277878 0.494872 0.126041 0.143478
H19   H     H_    0.222140 0.995210 0.873932 0.143498
H20   H     H_    0.777856 0.995285 0.126074 0.143503
H21   H     H_    0.068244 0.360413 0.958257 0.149967
H22   H     H_    0.931754 0.360412 0.041751 0.149968
H23   H     H_    0.568123 0.860422 0.958956 0.149863
H24   H     H_    0.431876 0.860421 0.041048 0.149863
H25   H     H_    0.029305 0.560460 0.162583 0.143471
H26   H     H_    0.970691 0.560457 0.837421 0.143475
H27   H     H_    0.529312 0.060457 0.162576 0.143479
H28   H     H_    0.470680 0.060452 0.837432 0.143484
O1    O     O_R   0.935720 0.537180 0.564270 -0.592008
O2    O     O_R   0.064280 0.537180 0.435730 -0.591994
O3    O     O_R   0.435720 0.037180 0.564270 -0.591960
O4    O     O_R   0.564280 0.037180 0.435730 -0.591947
O5    O     O_R   0.564240 0.499990 0.883000 -0.541268
O6    O     O_R   0.435760 0.499990 0.117000 -0.541264
O7    O     O_R   0.064240 0.999990 0.883000 -0.541182
O8    O     O_R   0.935760 0.999990 0.117000 -0.541173
O9    O     O_R   0.564250 0.499990 0.988510 -0.563438
O10   O     O_R   0.435750 0.499990 0.011490 -0.563442
O11   O     O_R   0.064250 0.999990 0.988510 -0.563482
O12   O     O_R   0.935750 0.999990 0.011490 -0.563477
O13   O     O_R   0.500010 0.564260 0.947230 -0.585076
O14   O     O_R   0.499990 0.564260 0.052770 -0.585067
O15   O     O_R   0.000010 0.064260 0.947230 -0.584910
O16   O     O_R   0.999990 0.064260 0.052770 -0.584909
O17   O     O_R   0.935680 0.462770 0.564310 -0.588126
O18   O     O_R   0.064320 0.462770 0.435690 -0.588114
O19   O     O_R   0.435680 0.962770 0.564310 -0.588084
O20   O     O_R   0.564320 0.962770 0.435690 -0.588073
O21   O     O_R   0.999990 0.537180 0.408860 -0.594697
O22   O     O_R   0.000010 0.537180 0.591140 -0.594703
O23   O     O_R   0.499990 0.037180 0.408860 -0.594706
O24   O     O_R   0.500010 0.037180 0.591140 -0.594712
O25   O     O_R   0.999950 0.462770 0.408890 -0.595746
O26   O     O_R   0.000050 0.462770 0.591110 -0.595740
O27   O     O_R   0.499950 0.962770 0.408890 -0.595751
O28   O     O_R   0.500050 0.962770 0.591110 -0.595746
O29   O     O_R   0.962770 0.564220 0.037230 -0.581811
O30   O     O_R   0.037230 0.564220 0.962770 -0.581812
O31   O     O_R   0.462770 0.064220 0.037230 -0.581812
O32   O     O_R   0.537230 0.064220 0.962770 -0.581812
O33   O     O_R   0.962780 0.499950 0.128370 -0.577519
O34   O     O_R   0.037220 0.499950 0.871630 -0.577521
O35   O     O_R   0.462780 0.999950 0.128370 -0.577525
O36   O     O_R   0.537220 0.999950 0.871630 -0.577531
O37   O     O_R   0.037180 0.500000 0.053970 -0.604419
O38   O     O_R   0.962820 0.500000 0.946030 -0.604418
O39   O     O_R   0.537180 0.000000 0.053970 -0.604427
O40   O     O_R   0.462820 0.000000 0.946030 -0.604426
O41   O     O_R   0.962780 0.435670 0.037210 -0.599039
O42   O     O_R   0.037220 0.435670 0.962790 -0.599039
O43   O     O_R   0.462780 0.935670 0.037210 -0.599004
O44   O     O_R   0.537220 0.935670 0.962790 -0.599005
O45   O     O_R   0.499930 0.435710 0.947300 -0.567945
O46   O     O_R   0.500070 0.435710 0.052700 -0.567942
O47   O     O_R   0.999930 0.935710 0.947300 -0.568085
O48   O     O_R   0.000070 0.935710 0.052700 -0.568087
H29   H     H_    0.034297 0.561790 0.261664 0.157871
H30   H     H_    0.965699 0.561787 0.738340 0.157869
H31   H     H_    0.534305 0.061785 0.261654 0.157869
H32   H     H_    0.465686 0.061780 0.738354 0.157865
N1    N     N_2   0.958478 0.422532 0.248263 -0.457960
H33   H     H_    0.935311 0.405778 0.297682 0.248828
C153  C     C_3   0.958656 0.406126 0.185241 -0.677687
H34   H     H_    0.953032 0.369986 0.191153 0.221014
H35   H     H_    0.932073 0.421723 0.184689 0.242581
H36   H     H_    0.991351 0.411475 0.131002 0.220446
N2    N     N_2   0.041527 0.422535 0.751732 -0.457960
H37   H     H_    0.064695 0.405784 0.702312 0.248829
C154  C     C_3   0.041350 0.406128 0.814752 -0.677678
H38   H     H_    0.046976 0.369989 0.808838 0.221010
H39   H     H_    0.067933 0.421727 0.815305 0.242581
H40   H     H_    0.008655 0.411475 0.868992 0.220445
N3    N     N_2   0.458470 0.922537 0.248273 -0.457977
H41   H     H_    0.435302 0.905786 0.297694 0.248832
C155  C     C_3   0.458647 0.906129 0.185252 -0.677604
H42   H     H_    0.453022 0.869990 0.191167 0.221019
H43   H     H_    0.432065 0.921727 0.184699 0.242610
H44   H     H_    0.491343 0.911477 0.131012 0.220397
N4    N     N_2   0.541540 0.922543 0.751718 -0.457976
H45   H     H_    0.564710 0.905795 0.702295 0.248832
C156  C     C_3   0.541364 0.906134 0.814736 -0.677591
H46   H     H_    0.546992 0.869995 0.808818 0.221013
H47   H     H_    0.567945 0.921734 0.815291 0.242611
H48   H     H_    0.508668 0.911478 0.868977 0.220394
H49   H     H_    0.035574 0.437692 0.266508 0.196524
H50   H     H_    0.964431 0.437688 0.733488 0.196528
H51   H     H_    0.535564 0.937686 0.266516 0.196521
H52   H     H_    0.464444 0.937681 0.733477 0.196525
H53   H     H_    0.860058 0.433372 0.672261 0.157882
H54   H     H_    0.139944 0.433412 0.327594 0.157850
H55   H     H_    0.360041 0.933508 0.672740 0.157768
H56   H     H_    0.639961 0.933546 0.327130 0.157739
N5    N     N_2   0.776337 0.577148 0.680380 -0.434954
H57   H     H_    0.744288 0.580582 0.727721 0.258661
C157  C     C_3   0.782404 0.588720 0.609623 -0.721264
H58   H     H_    0.765069 0.620097 0.617292 0.228862
H59   H     H_    0.768690 0.562606 0.593134 0.217139
H60   H     H_    0.817795 0.593393 0.562882 0.234074
N6    N     N_2   0.223653 0.577111 0.319804 -0.434952
H61   H     H_    0.255705 0.580562 0.272479 0.258664
C158  C     C_3   0.217569 0.588622 0.390596 -0.721314
H62   H     H_    0.234908 0.619987 0.382993 0.228868
H63   H     H_    0.231270 0.562478 0.407059 0.217122
H64   H     H_    0.182177 0.593292 0.437327 0.234083
N7    N     N_2   0.276380 0.077019 0.679686 -0.434933
H65   H     H_    0.244328 0.080521 0.726984 0.258668
C159  C     C_3   0.282473 0.088339 0.608820 -0.721393
H66   H     H_    0.265148 0.119681 0.616224 0.228893
H67   H     H_    0.268764 0.062111 0.592517 0.217102
H68   H     H_    0.317868 0.092962 0.562062 0.234102
N8    N     N_2   0.723609 0.076984 0.320496 -0.434930
H69   H     H_    0.755663 0.080504 0.273211 0.258670
C160  C     C_3   0.717505 0.088242 0.391393 -0.721435
H70   H     H_    0.734831 0.119572 0.384055 0.228900
H71   H     H_    0.731205 0.061983 0.407661 0.217090
H72   H     H_    0.682108 0.092858 0.438148 0.234110
H73   H     H_    0.722011 0.500851 0.675559 0.145503
H74   H     H_    0.277991 0.500832 0.324443 0.145534
H75   H     H_    0.221999 0.000589 0.675525 0.145554
H76   H     H_    0.778003 0.000541 0.324482 0.145569
N9    N     N_2   0.636585 0.500435 0.746350 -0.400138
H77   H     H_    0.650493 0.479122 0.700507 0.239535
C161  C     C_3   0.630800 0.543994 0.726434 -0.653790
H78   H     H_    0.663230 0.559769 0.684980 0.203746
H79   H     H_    0.611147 0.564742 0.778370 0.260668
H80   H     H_    0.612836 0.541600 0.699984 0.217874
N10   N     N_2   0.363416 0.500421 0.253649 -0.400135
H81   H     H_    0.349511 0.479101 0.299485 0.239531
C162  C     C_3   0.369197 0.543977 0.273580 -0.653772
H82   H     H_    0.336765 0.559745 0.315048 0.203753
H83   H     H_    0.388842 0.564735 0.221652 0.260644
H84   H     H_    0.387166 0.541580 0.300019 0.217877
N11   N     N_2   0.136571 0.000133 0.746348 -0.400086
H85   H     H_    0.150455 0.978701 0.700667 0.239506
C163  C     C_3   0.130820 0.043610 0.726107 -0.653648
H86   H     H_    0.163264 0.059326 0.684521 0.203715
H87   H     H_    0.111191 0.064488 0.777884 0.260503
H88   H     H_    0.112848 0.041081 0.699689 0.217835
N12   N     N_2   0.863431 0.000097 0.253652 -0.400083
H89   H     H_    0.849549 0.978653 0.299317 0.239498
C164  C     C_3   0.869179 0.043566 0.273923 -0.653612
H90   H     H_    0.836734 0.059272 0.315536 0.203715
H91   H     H_    0.888796 0.064461 0.222163 0.260458
H92   H     H_    0.887163 0.041026 0.300320 0.217839
N13   N     N_2   0.636625 0.490543 0.976708 -0.401589
H93   H     H_    0.651471 0.507912 0.997022 0.241925
C165  C     C_3   0.628251 0.445293 0.002532 -0.649638
H94   H     H_    0.659771 0.427479 0.977585 0.204883
H95   H     H_    0.608790 0.428324 0.985850 0.227938
H96   H     H_    0.609162 0.444456 0.065849 0.220524
N14   N     N_2   0.363372 0.490557 0.023293 -0.401592
H97   H     H_    0.348525 0.507926 0.002983 0.241923
C166  C     C_3   0.371747 0.445308 0.997466 -0.649629
H98   H     H_    0.340228 0.427491 0.022416 0.204876
H99   H     H_    0.391211 0.428339 0.014144 0.227941
H100  H     H_    0.390835 0.444473 0.934149 0.220522
N15   N     N_2   0.136651 0.990961 0.976727 -0.401603
H101  H     H_    0.151471 0.008496 0.996924 0.241916
C167  C     C_3   0.128363 0.945764 0.002820 -0.649627
H102  H     H_    0.159917 0.928042 0.977998 0.204843
H103  H     H_    0.108948 0.928609 0.986213 0.228065
H104  H     H_    0.109262 0.945066 0.066143 0.220483
N16   N     N_2   0.863345 0.991054 0.023269 -0.401609
H105  H     H_    0.848536 0.008634 0.003095 0.241915
C168  C     C_3   0.871604 0.945870 0.997115 -0.649625
H106  H     H_    0.840040 0.928179 0.021891 0.204832
H107  H     H_    0.890996 0.928662 0.013722 0.228092
H108  H     H_    0.890717 0.945205 0.933789 0.220482
H109  H     H_    0.070874 0.719830 0.922349 0.127093
H110  H     H_    0.929126 0.719828 0.077659 0.127093
H111  H     H_    0.570864 0.219828 0.922086 0.127102
H112  H     H_    0.429137 0.219827 0.077913 0.127103
H113  H     H_    0.070936 0.639606 0.921596 0.154889
H114  H     H_    0.929064 0.639604 0.078408 0.154890
H115  H     H_    0.570924 0.139602 0.921339 0.154902
H116  H     H_    0.429077 0.139602 0.078659 0.154904
H117  H     H_    0.452298 0.279777 0.122238 0.135007
H118  H     H_    0.547703 0.279779 0.877761 0.135008
H119  H     H_    0.952121 0.779787 0.122196 0.134996
H120  H     H_    0.047876 0.779786 0.877809 0.135000
N17   N     N_2   0.443429 0.366107 0.139855 -0.408829
H121  H     H_    0.437896 0.349759 0.186722 0.245757
C169  C     C_3   0.402883 0.380679 0.152618 -0.669151
H122  H     H_    0.382941 0.351855 0.158201 0.210422
H123  H     H_    0.409681 0.401778 0.104780 0.209702
H124  H     H_    0.383645 0.400298 0.206135 0.229085
N18   N     N_2   0.556572 0.366109 0.860144 -0.408828
H125  H     H_    0.562106 0.349761 0.813278 0.245758
C170  C     C_3   0.597117 0.380683 0.847382 -0.669150
H126  H     H_    0.617061 0.351859 0.841799 0.210420
H127  H     H_    0.590319 0.401781 0.895221 0.209701
H128  H     H_    0.616355 0.400303 0.793866 0.229087
N19   N     N_2   0.943223 0.866121 0.139773 -0.408902
H129  H     H_    0.937586 0.849780 0.186722 0.245792
C171  C     C_3   0.902748 0.880678 0.152248 -0.669432
H130  H     H_    0.882849 0.851846 0.157699 0.210496
H131  H     H_    0.909646 0.901768 0.104330 0.209776
H132  H     H_    0.883418 0.900300 0.205750 0.229080
N20   N     N_2   0.056765 0.866119 0.860223 -0.408900
H133  H     H_    0.062395 0.849777 0.813281 0.245794
C172  C     C_3   0.097246 0.880680 0.847725 -0.669428
H134  H     H_    0.117147 0.851849 0.842271 0.210495
H135  H     H_    0.090355 0.901774 0.895633 0.209759
H136  H     H_    0.116570 0.900298 0.794218 0.229082
H137  H     H_    0.068033 0.280220 0.959651 0.126697
H138  H     H_    0.931962 0.280220 0.040366 0.126698
H139  H     H_    0.567910 0.780223 0.960347 0.126718
H140  H     H_    0.432088 0.780222 0.039662 0.126718
H141  H     H_    0.435012 0.719556 0.105851 0.134706
H142  H     H_    0.564985 0.719558 0.894155 0.134712
H143  H     H_    0.935159 0.219548 0.106191 0.134688
H144  H     H_    0.064836 0.219552 0.893824 0.134688
N21   N     N_2   0.424441 0.633139 0.118076 -0.443090
H145  H     H_    0.407626 0.648999 0.170243 0.248488
C173  C     C_3   0.395486 0.620070 0.097514 -0.717773
H146  H     H_    0.382796 0.649594 0.085782 0.227505
H147  H     H_    0.367146 0.601429 0.145408 0.222776
H148  H     H_    0.412987 0.598520 0.046234 0.240574
N22   N     N_2   0.575555 0.633144 0.881917 -0.443090
H149  H     H_    0.592363 0.649004 0.829750 0.248490
C174  C     C_3   0.604520 0.620080 0.902461 -0.717801
H150  H     H_    0.617202 0.649605 0.914205 0.227511
H151  H     H_    0.632865 0.601452 0.854552 0.222776
H152  H     H_    0.587030 0.598520 0.953728 0.240571
N23   N     N_2   0.924587 0.133131 0.118456 -0.442683
H153  H     H_    0.907900 0.148975 0.170629 0.248484
C175  C     C_3   0.895453 0.120098 0.098264 -0.717683
H154  H     H_    0.882678 0.149640 0.086749 0.227448
H155  H     H_    0.867176 0.101450 0.146265 0.222741
H156  H     H_    0.912833 0.098568 0.046955 0.240314
N24   N     N_2   0.075415 0.133138 0.881556 -0.442702
H157  H     H_    0.092107 0.148988 0.829387 0.248484
C176  C     C_3   0.104542 0.120103 0.901763 -0.717705
H158  H     H_    0.117292 0.149643 0.913335 0.227462
H159  H     H_    0.132835 0.101479 0.853749 0.222741
H160  H     H_    0.087163 0.098551 0.953043 0.240321
N25   N     N_2   0.960650 0.568606 0.228879 -0.418801
H161  H     H_    0.931205 0.560395 0.279474 0.281550
C177  C     C_3   0.966240 0.615438 0.213859 -0.701574
H162  H     H_    0.935899 0.629394 0.223905 0.229666
H163  H     H_    0.993920 0.621802 0.153282 0.233228
H164  H     H_    0.972620 0.632070 0.252375 0.221785
N26   N     N_2   0.039345 0.568609 0.771125 -0.418804
H165  H     H_    0.068790 0.560401 0.720530 0.281551
C178  C     C_3   0.033752 0.615440 0.786149 -0.701574
H166  H     H_    0.064091 0.629399 0.776105 0.229668
H167  H     H_    0.006071 0.621802 0.846726 0.233227
H168  H     H_    0.027370 0.632073 0.747633 0.221786
N27   N     N_2   0.460657 0.068610 0.228872 -0.418805
H169  H     H_    0.431212 0.060403 0.279468 0.281554
C179  C     C_3   0.466252 0.115442 0.213849 -0.701634
H170  H     H_    0.435913 0.129401 0.223892 0.229645
H171  H     H_    0.493933 0.121804 0.153272 0.233239
H172  H     H_    0.472633 0.132074 0.252365 0.221800
N28   N     N_2   0.539334 0.068615 0.771136 -0.418811
H173  H     H_    0.568780 0.060412 0.720539 0.281556
C180  C     C_3   0.533733 0.115446 0.786165 -0.701635
H174  H     H_    0.564071 0.129410 0.776122 0.229647
H175  H     H_    0.506052 0.121804 0.846743 0.233240
H176  H     H_    0.527349 0.132077 0.747652 0.221802
H177  H     H_    0.069793 0.485687 0.235365 0.164424
H178  H     H_    0.930208 0.485680 0.764634 0.164428
H179  H     H_    0.569791 0.985677 0.235368 0.164403
H180  H     H_    0.430211 0.985666 0.764631 0.164407
H181  H     H_    0.070533 0.491972 0.129349 0.176661
H182  H     H_    0.929467 0.491965 0.870651 0.176662
H183  H     H_    0.570532 0.991964 0.129351 0.176657
H184  H     H_    0.429469 0.991954 0.870649 0.176659
H185  H     H_    0.952522 0.445992 0.361512 0.151229
H186  H     H_    0.047483 0.445997 0.638483 0.151226
H187  H     H_    0.452512 0.946000 0.361523 0.151229
H188  H     H_    0.547496 0.946007 0.638469 0.151224
N29   N     N_2   0.916508 0.504393 0.389831 -0.455779
H189  H     H_    0.920028 0.523623 0.425365 0.257203
C181  C     C_3   0.875038 0.480982 0.432929 -0.750310
H190  H     H_    0.847782 0.504763 0.467864 0.239893
H191  H     H_    0.874697 0.456794 0.471968 0.233714
H192  H     H_    0.869321 0.463591 0.394180 0.231471
N30   N     N_2   0.083491 0.504401 0.610170 -0.455782
H193  H     H_    0.079970 0.523630 0.574636 0.257194
C182  C     C_3   0.124964 0.480995 0.567070 -0.750336
H194  H     H_    0.152218 0.504780 0.532135 0.239893
H195  H     H_    0.125308 0.456807 0.528029 0.233722
H196  H     H_    0.130683 0.463606 0.605818 0.231478
N31   N     N_2   0.416509 0.004407 0.389828 -0.455795
H197  H     H_    0.420031 0.023637 0.425359 0.257163
C183  C     C_3   0.375034 0.981004 0.432931 -0.750402
H198  H     H_    0.347782 0.004791 0.467856 0.239895
H199  H     H_    0.374686 0.956820 0.471980 0.233746
H200  H     H_    0.369316 0.963611 0.394185 0.231492
N32   N     N_2   0.583490 0.004420 0.610173 -0.455798
H201  H     H_    0.579966 0.023648 0.574643 0.257157
C184  C     C_3   0.624969 0.981025 0.567070 -0.750435
H202  H     H_    0.652217 0.004817 0.532146 0.239896
H203  H     H_    0.625321 0.956838 0.528019 0.233755
H204  H     H_    0.630690 0.963635 0.605814 0.231498
H205  H     H_    0.926969 0.483431 0.268722 0.158529
H206  H     H_    0.073033 0.483437 0.731277 0.158529
H207  H     H_    0.426966 0.983439 0.268723 0.158531
H208  H     H_    0.573035 0.983449 0.731276 0.158530

loop_
_geom_bond_atom_site_label_1
_geom_bond_atom_site_label_2
_ccdc_geom_bond_type
C181  H190  S    
C11   H7    S    
Cu5   Cu6   S    
C55   C59   A    
C175  H155  S    
C97   N17   S    
N29   H189  S    
C108  C120  A    
C140  N32   S    
C9    H5    S    
C159  H66   S    
N26   H165  S    
Cu1   O21   S    
C166  H98   S    
C12   H8    S    
N31   H197  S    
C95   H119  S    
N22   C174  S    
N21   C173  S    
Cu10  O46   S    
C95   C99   A    
C47   C143  S    
C182  H196  S    
C48   C144  S    
C4    O4    A    
C31   C59   S    
C84   H16   S    
C9    C13   A    
C146  C150  S    
C11   C15   A    
Cu1   O2    S    
C12   C16   A    
C61   C89   S    
C61   O29   A    
C45   O21   A    
C3    C19   S    
C65   C147  S    
Cu6   O34   S    
C66   C148  S    
C13   H53   S    
C64   C146  S    
Cu4   O28   S    
N1    H33   S    
Cu9   O13   S    
C98   N18   S    
C137  N29   S    
C139  N31   S    
C41   C49   A    
C136  C152  S    
C177  H164  S    
C25   C29   A    
C27   C31   A    
N30   H193  S    
C171  H130  S    
C46   C142  S    
C170  H128  S    
C125  N21   S    
N14   C166  S    
C180  H176  S    
C56   H20   S    
C126  C129  A    
C109  H21   S    
C17   C21   A    
C80   C92   A    
C1    O1    A    
N32   C184  S    
C10   C30   A    
C63   O37   A    
C16   C20   A    
C82   H14   S    
C135  H51   S    
C136  H52   S    
C50   C54   A    
C15   H55   S    
C79   C87   A    
Cu8   O32   S    
C74   O8    A    
C21   H9    S    
C96   C104  A    
Cu12  O16   S    
C139  H187  S    
C7    N3    S    
C115  N25   S    
N20   H133  S    
C24   H12   S    
C6    C146  S    
C107  C120  A    
C177  H162  S    
C166  H100  S    
Cu11  O47   S    
C153  H36   S    
C151  H183  S    
C173  H147  S    
C77   C91   A    
C107  H139  S    
C93   H117  S    
C133  C141  S    
C155  H43   S    
C78   H110  S    
C5    C137  S    
C69   C101  S    
Cu10  O6    S    
C117  C147  S    
C8    C140  S    
C83   C117  S    
C158  H63   S    
N17   H121  S    
C83   C143  S    
C75   O13   A    
C151  H3    S    
C118  C148  S    
C169  H124  S    
C51   C55   A    
C157  H59   S    
C82   C142  S    
C4    C20   S    
C125  C129  A    
C23   H11   S    
C122  H142  S    
C80   C88   A    
Cu8   O44   S    
C34   C58   A    
N3    C155  S    
N23   H153  S    
C174  H150  S    
C76   O16   A    
C179  H171  S    
C43   C73   S    
C163  H87   S    
C122  C126  A    
N25   H161  S    
C123  C132  A    
N22   H149  S    
C37   N9    S    
C93   C103  A    
C112  C114  A    
C63   O33   A    
C178  H166  S    
C181  H191  S    
C135  H179  S    
C138  H186  S    
C159  H67   S    
C183  H199  S    
C154  H38   S    
C49   C53   A    
C162  H83   S    
C84   C144  S    
C173  H146  S    
C150  H2    S    
C85   H113  S    
C65   O35   A    
Cu3   O26   S    
N3    H41   S    
C164  H91   S    
C61   O30   A    
C94   H118  S    
C139  C143  S    
C124  H144  S    
N9    C161  S    
C138  N30   S    
N24   C176  S    
C62   O32   A    
C111  C114  A    
C41   C71   S    
C44   C52   A    
C135  C143  S    
C77   C85   A    
N5    H57   S    
Cu4   O19   S    
Cu5   O29   S    
C160  H71   S    
C70   O48   A    
C6    H206  S    
Cu6   O37   S    
C176  H159  S    
C182  H194  S    
C7    C147  S    
N15   C167  S    
C3    O19   A    
C5    C145  S    
Cu6   O30   S    
C1    O17   A    
Cu9   O10   S    
C149  H1    S    
Cu2   O24   S    
C10   C14   A    
C174  H152  S    
C171  H132  S    
C184  H203  S    
C118  N28   S    
N14   H97   S    
N12   C164  S    
C115  H25   S    
C147  C151  S    
C121  C125  A    
C68   O43   A    
C100  N20   S    
C33   H73   S    
C14   H54   S    
C123  C127  A    
C157  H58   S    
C35   H75   S    
C50   N14   S    
C51   N15   S    
N7    H65   S    
C26   N6    S    
C133  H177  S    
C156  H47   S    
N19   H129  S    
C42   C50   A    
Cu2   O3    S    
C108  H140  S    
C168  H108  S    
N10   C162  S    
C93   C97   A    
C122  C131  A    
C72   O10   A    
C178  H168  S    
C105  C109  A    
C110  H22   S    
C18   C22   A    
C107  C111  A    
C24   C28   A    
C154  H40   S    
C26   C30   A    
C134  H50   S    
C1    C17   S    
C13   C17   A    
C161  H80   S    
Cu8   O36   S    
C167  H103  S    
C81   H13   S    
N21   H145  S    
Cu6   O42   S    
C64   O38   A    
N8    C160  S    
C74   O12   A    
C96   C100  A    
C182  H195  S    
C117  N27   S    
C37   C41   A    
C165  H96   S    
C145  C149  S    
N19   C171  S    
C40   C44   A    
C56   C60   A    
C84   C118  S    
C66   O36   A    
N6    H61   S    
C172  H135  S    
C184  H204  S    
C63   C145  S    
C67   O42   A    
C46   O26   A    
C106  C119  A    
C120  C131  S    
C16   H56   S    
Cu9   Cu10  S    
N4    H45   S    
C177  H163  S    
C15   C19   A    
C168  H106  S    
C6    N2    S    
C170  H127  S    
C54   C58   A    
C180  H175  S    
Cu9   O45   S    
C94   C98   A    
N18   H125  S    
C83   H31   S    
C35   C59   A    
N13   H93   S    
C81   H29   S    
N11   C163  S    
C21   C25   A    
C117  H27   S    
C152  H4    S    
C118  H28   S    
C169  H122  S    
N27   C179  S    
C47   O23   A    
C126  N22   S    
Cu1   Cu3   S    
C69   O46   A    
Cu2   Cu4   S    
Cu5   O33   S    
C124  C128  A    
C134  H178  S    
N31   C183  S    
C140  H188  S    
Cu10  O14   S    
C175  H156  S    
C45   C141  S    
N29   C181  S    
C82   H30   S    
C8    C148  S    
Cu7   O43   S    
Cu1   O22   S    
C166  H99   S    
C153  H35   S    
Cu11  O12   S    
C65   O39   A    
C161  H78   S    
C148  C152  S    
N2    H37   S    
C138  C142  S    
N8    H69   S    
C53   C57   A    
Cu2   O23   S    
C52   N16   S    
C33   C37   A    
N12   H89   S    
C2    O2    A    
C35   C39   A    
N28   H173  S    
C184  H202  S    
Cu12  O11   S    
C134  C142  S    
C73   O11   A    
Cu7   Cu8   S    
C28   C32   A    
C8    H208  S    
C169  H123  S    
C27   N7    S    
C8    N4    S    
C62   C90   S    
C136  H180  S    
C79   H111  S    
C29   C57   S    
C94   C103  A    
N1    C153  S    
C32   C60   S    
N16   H105  S    
N26   C178  S    
C172  H134  S    
C48   O28   A    
C137  C141  S    
C150  H182  S    
C85   C89   A    
C149  H181  S    
Cu3   O18   S    
C38   N10   S    
C140  C144  S    
C5    N1    S    
C86   C89   A    
C128  C130  A    
C70   C102  S    
C77   H109  S    
C34   H74   S    
C83   H15   S    
C10   H6    S    
C98   C101  A    
C115  C145  S    
C111  H23   S    
Cu9   O5    S    
C99   N19   S    
Cu7   O40   S    
N28   C180  S    
C96   H120  S    
C82   C116  S    
C136  C144  S    
C165  H94   S    
C43   C51   A    
C162  H82   S    
C135  C151  S    
Cu3   O17   S    
Cu11  O15   S    
Cu3   O25   S    
Cu4   O27   S    
C164  H90   S    
C39   N11   S    
C3    O3    A    
N2    C154  S    
C72   O6    A    
C163  H86   S    
C108  C112  A    
C99   C102  A    
N9    H77   S    
C22   C26   A    
C87   C90   A    
C175  H154  S    
C55   H19   S    
C105  C119  A    
C80   H112  S    
C76   C130  S    
Cu12  O8    S    
C116  N26   S    
C134  C150  S    
C173  H148  S    
C116  C146  S    
C167  H102  S    
C48   O24   A    
Cu4   O20   S    
C45   O25   A    
C160  H70   S    
C14   C18   A    
C19   C23   A    
Cu11  Cu12  S    
C91   C104  S    
C183  H198  S    
C155  H44   S    
C64   O34   A    
C176  H158  S    
N15   H101  S    
C124  C132  A    
C158  H62   S    
C87   H115  S    
C137  H185  S    
C38   C42   A    
C158  H64   S    
N17   C169  S    
C75   O14   A    
C49   N13   S    
C171  H131  S    
C174  H151  S    
C86   H114  S    
C66   O40   A    
C105  H137  S    
C157  H60   S    
C68   O44   A    
C92   C103  S    
C88   H116  S    
C20   C24   A    
N18   C170  S    
Cu12  O48   S    
C54   H18   S    
Cu7   O35   S    
N23   C175  S    
C156  H46   S    
C76   O15   A    
C109  C113  A    
C172  H136  S    
Cu2   O4    S    
C78   C86   A    
C81   C141  S    
C163  H88   S    
C11   C31   A    
N25   C177  S    
C12   C32   A    
C127  N23   S    
C7    H207  S    
C121  C131  A    
C42   C72   S    
C22   H10   S    
C5    H205  S    
Cu5   O38   S    
C71   O5    A    
C178  H167  S    
C181  H192  S    
C2    O18   A    
Cu10  O9    S    
C36   C40   A    
C159  H68   S    
C133  C149  S    
C25   N5    S    
C183  H200  S    
N32   H201  S    
C154  H39   S    
C162  H84   S    
C39   C43   A    
N10   H81   S    
C46   O22   A    
C47   O27   A    
C128  N24   S    
C161  H79   S    
C6    C138  S    
C164  H92   S    
C44   C74   S    
N20   C172  S    
C53   H17   S    
N16   C168  S    
C133  H49   S    
N24   H157  S    
C81   C115  S    
C100  C102  A    
C119  C132  S    
N13   C165  S    
Cu8   O39   S    
Cu1   O1    S    
C62   O31   A    
C165  H95   S    
C110  C113  A    
C79   C92   A    
C23   C27   A    
N5    C157  S    
C160  H72   S    
C70   O47   A    
C155  H42   S    
C123  H143  S    
C176  H160  S    
C95   C104  A    
C106  C110  A    
C121  H141  S    
C71   O9    A    
C116  H26   S    
C67   O41   A    
C33   C57   A    
C34   C38   A    
C88   C90   A    
C2    C18   S    
C36   C60   A    
C40   N12   S    
C112  H24   S    
C153  H34   S    
C9    C29   A    
C78   C91   A    
C4    O20   A    
C179  H172  S    
C67   C113  S    
C127  C130  A    
C84   H32   S    
N4    C156  S    
C170  H126  S    
C7    C139  S    
Cu5   O41   S    
C180  H174  S    
C73   O7    A    
Cu7   O31   S    
C30   C58   S    
N7    C159  S    
N11   H85   S    
C156  H48   S    
C152  H184  S    
Cu11  O7    S    
C179  H170  S    
C75   C129  S    
C36   H76   S    
C168  H107  S    
N27   H169  S    
C167  H104  S    
N30   C182  S    
C28   N8    S    
C69   O45   A    
C97   C101  A    
C52   C56   A    
C106  H138  S    
C68   C114  S    
N6    C158  S    
