data_mof_unit_14434.cif
_audit_creation_date              2012-12-10T17:39:22-0500
_audit_creation_method            fapswitch 2.2
_symmetry_space_group_name_H-M    P1
_symmetry_Int_Tables_number       1
_space_group_crystal_system       triclinic
_cell_length_a                    12.375244
_cell_length_b                    13.244927
_cell_length_c                    27.795647
_cell_angle_alpha                 76.860068
_cell_angle_beta                  101.243602
_cell_angle_gamma                 117.030314
_cell_volume                      3929.91302185

loop_
_atom_site_label
_atom_site_type_symbol
_atom_type_description
_atom_site_fract_x
_atom_site_fract_y
_atom_site_fract_z
_atom_type_partial_charge
C1    C     C_R   0.854890 0.286763 0.504413 0.771328
C2    C     C_R   0.899892 0.506236 0.711380 0.194773
C3    C     C_R   0.995846 0.497582 0.746165 0.314871
C4    C     C_R   0.999216 0.498568 0.898043 -0.043069
C5    C     C_R   0.952020 0.394113 0.879734 -0.020666
C6    C     C_R   0.905771 0.290597 0.912196 -0.141951
C7    C     C_R   0.045558 0.602675 0.865023 -0.022741
C8    C     C_R   0.997974 0.498445 0.645331 -0.095385
C9    C     C_R   0.001138 0.500598 0.354684 -0.037212
C10   C     C_R   0.962728 0.393866 0.033833 0.041885
C11   C     C_R   0.039984 0.605058 0.017446 0.042753
C12   C     C_R   0.999394 0.499429 0.592371 0.799676
C13   C     C_R   0.001650 0.499633 0.050909 0.068602
C14   C     C_R   0.931793 0.292172 0.069231 -0.202023
C15   C     C_R   0.934309 0.293825 0.119219 -0.143719
C16   C     C_R   0.968162 0.396760 0.136054 -0.020969
C17   C     C_R   0.002173 0.499971 0.102078 -0.044251
C18   C     C_R   0.036624 0.603511 0.119398 -0.021307
C19   C     C_R   0.036141 0.601906 0.170030 0.534568
C20   C     C_R   0.969151 0.398968 0.186399 0.533358
C21   C     C_R   0.088868 0.477674 0.289258 -0.111766
C22   C     C_R   0.088485 0.477678 0.339377 -0.189675
C23   C     C_R   0.145068 0.713317 0.492765 0.829039
C24   C     C_R   0.914547 0.523815 0.318899 -0.225975
C25   C     C_R   0.915329 0.523976 0.268798 -0.101413
C26   C     C_R   0.002342 0.500799 0.253833 0.358731
C27   C     C_R   0.956761 0.393138 0.982310 0.042349
C28   C     C_R   0.000156 0.498923 0.949241 0.068708
C29   C     C_R   0.044468 0.605066 0.966732 0.040748
C30   C     C_R   0.907788 0.289847 0.962403 -0.202544
C31   C     C_R   0.092973 0.706539 0.882901 -0.137119
C32   C     C_R   0.071675 0.707136 0.036016 -0.202235
C33   C     C_R   0.070165 0.706140 0.085946 -0.145921
C34   C     C_R   0.000413 0.500323 0.407633 0.809903
C35   C     C_R   0.092732 0.707982 0.932676 -0.201110
C36   C     C_R   0.277701 0.022550 0.433225 -0.172861
C37   C     C_R   0.228222 0.834821 0.482533 -0.046808
C38   C     C_R   0.813929 0.084857 0.537406 -0.173337
C39   C     C_R   0.734435 0.969719 0.547403 -0.129929
C40   C     C_R   0.611609 0.932290 0.529807 -0.154915
C41   C     C_R   0.566183 0.009633 0.499884 0.083664
C42   C     C_R   0.650482 0.124290 0.484891 0.081855
C43   C     C_R   0.440117 0.976669 0.483851 0.081134
C44   C     C_R   0.401854 0.054401 0.449465 0.161428
C45   C     C_R   0.951459 0.395716 0.829017 0.532213
C46   C     C_R   0.488032 0.161886 0.430686 -0.226635
C47   C     C_R   0.610614 0.195747 0.447494 -0.185697
C48   C     C_R   0.350507 0.868803 0.501265 -0.178353
C49   C     C_R   0.191194 0.912736 0.449376 -0.179894
C50   C     C_R   0.772774 0.163683 0.507346 -0.104071
C51   C     C_R   0.341158 0.322932 0.578507 0.288110
C52   C     C_R   0.753763 0.632769 0.428277 0.072963
C53   C     C_R   0.646057 0.638610 0.405681 -0.267801
C54   C     C_R   0.540535 0.576761 0.429565 -0.114390
C55   C     C_R   0.543410 0.517060 0.478524 0.042639
C56   C     C_R   0.044052 0.600395 0.814657 0.528339
C57   C     C_R   0.651331 0.501397 0.496905 0.281055
C58   C     C_R   0.441411 0.464510 0.508061 -0.146759
C59   C     C_R   0.441955 0.380706 0.550312 0.027105
C60   C     C_R   0.544159 0.357492 0.564275 -0.185133
C61   C     C_R   0.647141 0.418513 0.539080 -0.210837
C62   C     C_R   0.342143 0.495649 0.499705 0.482353
C63   C     C_R   0.243645 0.352425 0.566256 -0.053456
C64   C     C_R   0.091490 0.488660 0.730481 -0.119572
C65   C     C_R   0.092620 0.488889 0.680441 -0.201403
C66   C     C_R   0.901658 0.506860 0.661237 -0.171570
Cu1   Cu    Cu3+1 0.098270 0.475420 0.511360 0.994238
Cu2   Cu    Cu3+1 0.901730 0.524580 0.488640 0.933347
H1    H     H_    0.827262 0.513487 0.634859 0.175509
H2    H     H_    0.165207 0.481796 0.757204 0.152362
H3    H     H_    0.130762 0.787782 0.858399 0.193730
H4    H     H_    0.095963 0.789679 0.012795 0.142092
H5    H     H_    0.846186 0.541817 0.329538 0.157221
H6    H     H_    0.095414 0.786740 0.098203 0.186874
H7    H     H_    0.848041 0.541673 0.241554 0.141329
H8    H     H_    0.133531 0.791853 0.943340 0.143790
H9    H     H_    0.096564 0.887345 0.434408 0.153688
H10   H     H_    0.460635 0.220197 0.402807 0.146842
H11   H     H_    0.248029 0.081418 0.406880 0.139992
H12   H     H_    0.373239 0.808203 0.529074 0.155229
H13   H     H_    0.907384 0.112629 0.554312 0.167584
H14   H     H_    0.555492 0.841794 0.539370 0.150611
H15   H     H_    0.767469 0.909484 0.570286 0.158322
H16   H     H_    0.673559 0.277580 0.429652 0.174890
H17   H     H_    0.165622 0.307948 0.587387 0.175475
H18   H     H_    0.547417 0.293821 0.596042 0.212180
H19   H     H_    0.834582 0.677210 0.408841 0.132210
H20   H     H_    0.867410 0.209096 0.898914 0.189084
H21   H     H_    0.456667 0.570573 0.407500 0.193661
H22   H     H_    0.642974 0.686679 0.368713 0.158554
H23   H     H_    0.720286 0.394873 0.553109 0.204445
H24   H     H_    0.156489 0.459697 0.366043 0.173687
H25   H     H_    0.156579 0.460005 0.277864 0.140123
H26   H     H_    0.909458 0.213477 0.144717 0.187958
H27   H     H_    0.907222 0.209428 0.059823 0.142021
H28   H     H_    0.867723 0.206195 0.984407 0.141895
H29   H     H_    0.167920 0.482216 0.669267 0.176563
N1    N     N_R   0.996807 0.497893 0.797747 -0.471243
N2    N     N_R   0.002674 0.500571 0.202309 -0.467714
N3    N     N_R   0.246290 0.438210 0.528570 -0.230688
N4    N     N_R   0.754320 0.561170 0.471730 -0.209236
O1    O     O_R   0.972510 0.318140 0.514280 -0.581126
O2    O     O_2   0.935855 0.300307 0.219143 -0.540939
O3    O     O_2   0.089265 0.699652 0.782775 -0.524607
O4    O     O_2   0.069695 0.700862 0.186976 -0.537546
O5    O     O_R   0.806530 0.359640 0.495100 -0.602853
O6    O     O_R   0.082990 0.479270 0.579320 -0.580086
O7    O     O_R   0.917010 0.520770 0.560140 -0.601914
O8    O     O_R   0.193470 0.640360 0.504900 -0.517137
O9    O     O_R   0.027490 0.681860 0.485720 -0.591898
O10   O     O_R   0.082990 0.479230 0.439860 -0.536868
O11   O     O_R   0.917010 0.520730 0.420680 -0.607356
O12   O     O_2   0.905882 0.296146 0.811016 -0.529504
N5    N     N_3   0.799797 0.513757 0.726359 -0.574696
H30   H     H_    0.834206 0.586681 0.743346 0.242954
H31   H     H_    0.758834 0.441716 0.752759 0.240776
Cl1   Cl    Cl    0.332558 0.213578 0.629644 -0.607068
Cl2   Cl    Cl    0.348110 0.619098 0.457421 -0.646438

loop_
_geom_bond_atom_site_label_1
_geom_bond_atom_site_label_2
_ccdc_geom_bond_type
C10   C27   A    
C58   C62   A    
C21   C26   A    
C8    C66   A    
C34   O11   A    
C41   C42   A    
C56   N1    A    
C15   H26   S    
N5    H30   S    
C32   H4    S    
C20   O2    S    
C53   C54   A    
C28   C29   A    
C45   N1    A    
C5    C6    A    
C9    C22   A    
C66   H1    S    
C15   C16   A    
C11   C13   A    
C6    H20   S    
C18   C19   A    
Cu2   O11   S    
C30   H28   S    
C54   C55   A    
Cu1   O8    S    
C16   C17   A    
C64   H2    S    
C43   C48   A    
C16   C20   A    
C26   N2    S    
C31   H3    S    
C8    C65   A    
C21   C22   A    
C63   H17   S    
C27   C30   A    
C34   O10   A    
C41   C43   A    
Cu2   O5    S    
C7    C56   A    
C4    C7    A    
C4    C28   A    
C44   C46   A    
C23   O8    A    
C52   N4    A    
C7    C31   A    
Cu1   Cu2   S    
C40   H14   S    
C51   C63   A    
C24   C25   A    
C56   O3    S    
C54   H21   S    
C10   C14   A    
C39   C40   A    
C46   H10   S    
C60   H18   S    
C35   H8    S    
C25   C26   A    
C23   C37   S    
C5    C45   A    
C10   C13   A    
C60   C61   A    
C25   H7    S    
C43   C44   A    
C63   N3    A    
C37   C49   A    
C8    C12   S    
C17   C18   A    
Cu2   O9    S    
C47   H16   S    
Cu2   N4    S    
C37   C48   A    
Cu1   N3    S    
C42   C50   A    
C62   N3    A    
C19   O4    S    
Cu1   O10   S    
C40   C41   A    
C6    C30   A    
C11   C32   A    
C55   C57   A    
C38   H13   S    
C9    C34   S    
C1    O5    A    
C31   C35   A    
C36   C44   A    
C51   C59   A    
C14   H27   S    
C53   H22   S    
C52   C53   A    
C12   O7    A    
C1    C50   S    
C23   O9    A    
C46   C47   A    
C19   N2    A    
C52   H19   S    
C4    C5    A    
C2    C66   A    
C36   H11   S    
C12   O6    A    
N5    H31   S    
C9    C24   A    
C57   C61   A    
C38   C50   A    
C57   N4    A    
C29   C35   A    
C13   C17   A    
C32   C33   A    
C48   H12   S    
C2    C3    A    
C58   C59   A    
C65   H29   S    
C64   C65   A    
C2    N5    S    
C3    N1    S    
Cu1   O6    S    
C38   C39   A    
C20   N2    A    
C21   H25   S    
C51   Cl1   S    
C49   H9    S    
C42   C47   A    
C3    C64   A    
C24   H5    S    
C18   C33   A    
C62   Cl2   S    
C39   H15   S    
C45   O12   S    
C33   H6    S    
C59   C60   A    
C11   C29   A    
C55   C58   A    
C27   C28   A    
C22   H24   S    
C14   C15   A    
Cu2   O7    S    
C1    O1    A    
C36   C49   A    
C61   H23   S    
Cu1   O1    S    
