data_mof_unit_53309.cif
_audit_creation_date              2012-12-11T14:13:25-0500
_audit_creation_method            fapswitch 2.2
_symmetry_space_group_name_H-M    P1
_symmetry_Int_Tables_number       1
_space_group_crystal_system       triclinic
_cell_length_a                    11.667328
_cell_length_b                    18.744155
_cell_length_c                    9.992586
_cell_angle_alpha                 90.000017
_cell_angle_beta                  110.755884
_cell_angle_gamma                 89.999954
_cell_volume                      2043.49075895

loop_
_atom_site_label
_atom_site_type_symbol
_atom_type_description
_atom_site_fract_x
_atom_site_fract_y
_atom_site_fract_z
_atom_type_partial_charge
C1    C     C_R   0.070971 0.647576 0.139696 0.566728
C2    C     C_2   0.596205 0.078160 0.086938 -0.067214
C3    C     C_2   0.597550 0.427001 0.071060 -0.096694
C4    C     C_2   0.403797 0.578161 0.913060 -0.067216
C5    C     C_2   0.498865 0.964077 0.015584 0.118834
C6    C     C_2   0.492648 0.042818 0.019090 0.129379
C7    C     C_2   0.501135 0.464077 0.984416 0.118833
C8    C     C_2   0.507353 0.542819 0.980911 0.129379
C9    C     C_2   0.053450 0.930433 0.129181 -0.080434
C10   C     C_2   0.989568 0.079033 0.882954 -0.064353
C11   C     C_2   0.946550 0.430432 0.870820 -0.080436
C12   C     C_R   0.920964 0.355387 0.858006 0.559115
C13   C     C_2   0.010431 0.579033 0.117044 -0.064351
C14   C     C_2   0.012625 0.964573 0.003790 0.217711
C15   C     C_2   0.012068 0.043237 0.005502 0.231067
C16   C     C_2   0.987375 0.464572 0.996211 0.217712
C17   C     C_2   0.987936 0.543237 0.994498 0.231069
C18   C     C_R   0.470086 0.647169 0.443405 0.531198
C19   C     C_R   0.530423 0.353416 0.557871 0.529400
C20   C     C_R   0.529913 0.147169 0.556595 0.531198
C21   C     C_R   0.469577 0.853416 0.442129 0.529400
C22   C     C_R   0.377800 0.647301 0.959648 0.545141
C23   C     C_R   0.929029 0.147576 0.860303 0.566729
C24   C     C_R   0.623359 0.354811 0.036338 0.538365
C25   C     C_R   0.622201 0.147301 0.040352 0.545144
C26   C     C_R   0.376641 0.854811 0.963662 0.538365
C27   C     C_R   0.503951 0.425813 0.493650 -0.039214
C28   C     C_R   0.497863 0.576101 0.512902 -0.035371
C29   C     C_R   0.496048 0.925813 0.506349 -0.039213
C30   C     C_R   0.502135 0.076101 0.487097 -0.035371
C31   C     C_R   0.289185 0.421792 0.482568 -0.062635
C32   C     C_R   0.715170 0.580167 0.537890 -0.067947
C33   C     C_R   0.710815 0.921793 0.517426 -0.062637
C34   C     C_R   0.079036 0.855387 0.141994 0.559116
C35   C     C_R   0.284829 0.080167 0.462112 -0.067943
C36   C     C_R   0.194460 0.453130 0.515274 -0.117844
C37   C     C_R   0.814833 0.548307 0.516058 -0.124753
C38   C     C_R   0.805538 0.953132 0.484720 -0.117848
C39   C     C_R   0.185167 0.048307 0.483946 -0.124756
C40   C     C_R   0.200206 0.524891 0.550243 -0.127569
C41   C     C_R   0.807117 0.477814 0.470879 -0.150683
C42   C     C_R   0.799791 0.024893 0.449752 -0.127568
C43   C     C_R   0.192885 0.977814 0.529125 -0.150682
C44   C     C_R   0.302070 0.565085 0.556403 -0.068375
C45   C     C_R   0.397110 0.460466 0.496963 0.011958
C46   C     C_R   0.702093 0.438032 0.454131 -0.081701
C47   C     C_R   0.697927 0.065087 0.443591 -0.068374
C48   C     C_R   0.297909 0.938033 0.545871 -0.081700
C49   C     C_R   0.399365 0.534603 0.522426 0.015908
C50   C     C_R   0.603380 0.467662 0.486607 0.005474
C51   C     C_R   0.600633 0.034604 0.477570 0.015908
C52   C     C_R   0.396620 0.967662 0.513393 0.005474
C53   C     C_3   0.319660 0.095016 0.824705 -0.258631
C54   C     C_3   0.679232 0.895073 0.022930 -0.289908
C55   C     C_3   0.680339 0.595015 0.175298 -0.258631
C56   C     C_R   0.605674 0.541564 0.514386 0.003349
C57   C     C_3   0.320767 0.395074 0.977066 -0.289909
C58   C     C_3   0.933561 0.068023 0.180894 -0.086045
C59   C     C_3   0.040814 0.919180 0.804016 -0.084077
C60   C     C_3   0.066453 0.568017 0.819116 -0.086048
C61   C     C_3   0.959182 0.419181 0.195984 -0.084077
C62   C     C_R   0.602889 0.960467 0.503033 0.011959
C63   C     C_R   0.394325 0.041565 0.485614 0.003351
C64   C     C_2   0.402450 0.927001 0.928940 -0.096694
Cr1   Cr    Cr6+3 0.187610 0.750000 0.979860 1.012204
Cr2   Cr    Cr6+3 0.812390 0.250000 0.020140 1.012201
Cr3   Cr    Cr6+3 0.245810 0.750000 0.341640 1.000764
Cr4   Cr    Cr6+3 0.754190 0.250000 0.658360 1.000764
Cr5   Cr    Cr6+3 0.485760 0.750000 0.219910 0.996957
Cr6   Cr    Cr6+3 0.514240 0.250000 0.780090 0.996957
H1    H     H_    0.116963 0.421340 0.514842 0.093321
H2    H     H_    0.723218 0.635501 0.571163 0.139630
H3    H     H_    0.721428 0.866520 0.551044 0.135536
H4    H     H_    0.276781 0.135501 0.428840 0.139631
H5    H     H_    0.305729 0.619285 0.594570 0.134439
H6    H     H_    0.698039 0.384719 0.411513 0.138772
H7    H     H_    0.694266 0.119286 0.405424 0.134438
H8    H     H_    0.301963 0.884719 0.588489 0.138772
H9    H     H_    0.676707 0.049535 0.153727 0.100604
H10   H     H_    0.327202 0.954641 0.850200 0.076611
H11   H     H_    0.323296 0.549536 0.846267 0.100601
H12   H     H_    0.896290 0.579198 0.528797 0.106851
H13   H     H_    0.672797 0.454641 0.149802 0.076610
H14   H     H_    0.987975 0.052758 0.786557 0.081185
H15   H     H_    0.094398 0.959845 0.227870 0.122252
H16   H     H_    0.012018 0.552760 0.213440 0.081180
H17   H     H_    0.905605 0.459845 0.772131 0.122253
H18   H     H_    0.318022 0.059490 0.021270 0.246173
H19   H     H_    0.228519 0.068699 0.782175 0.096428
H20   H     H_    0.376424 0.076178 0.763099 0.191838
H21   H     H_    0.305347 0.153400 0.809489 0.172229
H22   H     H_    0.613387 0.906283 0.194422 0.297627
H23   H     H_    0.883036 0.921342 0.485152 0.093321
H24   H     H_    0.770101 0.878311 0.099464 0.140092
H25   H     H_    0.694251 0.932778 0.944864 0.166460
H26   H     H_    0.629603 0.847259 0.965512 0.158955
H27   H     H_    0.681980 0.559490 0.978734 0.246171
H28   H     H_    0.771481 0.568699 0.217829 0.096427
H29   H     H_    0.623575 0.576177 0.236903 0.191838
H30   H     H_    0.694651 0.653400 0.190514 0.172230
H31   H     H_    0.386614 0.406284 0.805576 0.297628
H32   H     H_    0.229897 0.378315 0.900532 0.140091
H33   H     H_    0.305751 0.432778 0.055136 0.166458
H34   H     H_    0.103711 0.079198 0.471211 0.106845
H35   H     H_    0.370393 0.347258 0.034479 0.158956
H36   H     H_    0.950588 0.021735 0.253650 0.077447
H37   H     H_    0.845066 0.059185 0.091619 0.144139
H38   H     H_    0.925970 0.114963 0.244526 0.160534
H39   H     H_    0.135922 0.936696 0.866149 0.118728
H40   H     H_    0.009968 0.950490 0.704815 0.086228
H41   H     H_    0.041060 0.862576 0.771902 0.170609
H42   H     H_    0.049432 0.521725 0.746371 0.077447
H43   H     H_    0.154947 0.559185 0.908396 0.144145
H44   H     H_    0.074044 0.614953 0.755474 0.160533
H45   H     H_    0.125496 0.549792 0.572121 0.082918
H46   H     H_    0.864075 0.436696 0.133848 0.118729
H47   H     H_    0.990027 0.450493 0.295183 0.086228
H48   H     H_    0.958937 0.362577 0.228101 0.170608
H49   H     H_    0.882919 0.453637 0.449743 0.091391
H50   H     H_    0.874501 0.049795 0.427875 0.082919
H51   H     H_    0.117083 0.953637 0.550263 0.091391
H52   H     H_    0.278573 0.366519 0.448951 0.135536
N1    N     N_2   0.377907 0.079651 0.975630 -0.522421
N2    N     N_2   0.610683 0.929661 0.100152 -0.535326
N3    N     N_2   0.622094 0.579651 0.024372 -0.522423
N4    N     N_2   0.389317 0.429662 0.899846 -0.535327
O1    O     O_R   0.267710 0.668200 0.902110 -0.567027
O2    O     O_R   0.883280 0.330790 0.732340 -0.538177
O3    O     O_R   0.883280 0.169210 0.732340 -0.534734
O4    O     O_R   0.116720 0.830790 0.267660 -0.538176
O5    O     O_R   0.366710 0.675440 0.427590 -0.505827
O6    O     O_R   0.633290 0.324560 0.572410 -0.508188
O7    O     O_R   0.633290 0.175440 0.572410 -0.505826
O8    O     O_R   0.366710 0.824560 0.427590 -0.508188
O9    O     O_R   0.534870 0.669390 0.371760 -0.536735
O10   O     O_R   0.465130 0.330610 0.628240 -0.536112
O11   O     O_R   0.465130 0.169390 0.628240 -0.536735
O12   O     O_R   0.732290 0.331800 0.097890 -0.561869
O13   O     O_R   0.534870 0.830610 0.371760 -0.536112
O14   O     O_R   0.453080 0.674480 0.075160 -0.472223
O15   O     O_R   0.546920 0.325520 0.924840 -0.488646
O16   O     O_R   0.546920 0.174480 0.924840 -0.472223
O17   O     O_R   0.453080 0.825520 0.075160 -0.488647
O18   O     O_3   0.306390 0.750000 0.180470 -0.247556
O19   O     O_3   0.693610 0.250000 0.819530 -0.247556
O20   O     O_3   0.031897 0.080247 0.132523 -0.579298
O21   O     O_3   0.957448 0.927275 0.876794 -0.581055
O22   O     O_3   0.968115 0.580245 0.867478 -0.579300
O23   O     O_R   0.732290 0.168200 0.097890 -0.567029
O24   O     O_3   0.042550 0.427275 0.123208 -0.581053
O25   O     O_R   0.267710 0.831800 0.902110 -0.561868
O26   O     O_R   0.099480 0.674460 0.038850 -0.454726
O27   O     O_R   0.900520 0.325540 0.961150 -0.471171
O28   O     O_R   0.900520 0.174460 0.961150 -0.454730
O29   O     O_R   0.099480 0.825540 0.038850 -0.471173
O30   O     O_R   0.116720 0.669210 0.267660 -0.534734

loop_
_geom_bond_atom_site_label_1
_geom_bond_atom_site_label_2
_ccdc_geom_bond_type
C44   C49   A    
Cr5   O13   S    
C57   H35   S    
C30   C51   A    
C35   H4    S    
C1    O30   A    
C60   H44   S    
C25   O16   A    
C12   O27   A    
C4    C8    D    
C46   H6    S    
C28   C56   A    
C7    C8    S    
C32   H2    S    
C20   C30   S    
C34   O29   A    
Cr5   O18   S    
C57   H32   S    
C5    N2    S    
Cr1   O1    S    
C26   O25   A    
C38   C42   A    
C48   C52   A    
C3    C7    D    
C10   C15   D    
H22   N2    S    
C5    C6    S    
C40   H45   S    
C22   O14   A    
C59   H40   S    
C23   O3    A    
C1    O26   A    
C25   O23   A    
C58   H37   S    
C11   C16   D    
C48   H8    S    
Cr4   O6    S    
C26   C64   S    
Cr2   O19   S    
C54   N2    S    
C2    H9    S    
C9    H15   S    
C4    H11   S    
C55   N3    S    
C11   H17   S    
C33   C62   A    
C13   H16   S    
C53   H21   S    
C59   H41   S    
C41   C46   A    
C20   O7    A    
C19   C27   S    
C61   O24   S    
C43   H51   S    
C54   H26   S    
C27   C50   A    
C27   C45   A    
Cr5   O14   S    
Cr5   O9    S    
C30   C63   A    
Cr6   O10   S    
C64   H10   S    
C3    C24   S    
C2    C6    D    
C51   C62   A    
C6    N1    S    
H18   N1    S    
Cr3   O18   S    
C57   H33   S    
Cr6   O16   S    
C61   H47   S    
C39   H34   S    
C17   O22   S    
C18   C28   S    
Cr2   O23   S    
H27   N3    S    
C53   N1    S    
C57   N4    S    
Cr2   O28   S    
Cr1   O18   S    
C16   C17   S    
C47   C51   A    
C24   O12   A    
C19   O10   A    
C21   C29   S    
C14   O21   S    
C50   C56   A    
C5    C64   D    
Cr3   O30   S    
C58   H36   S    
C20   O11   A    
Cr1   O25   S    
C44   H5    S    
C35   C39   A    
C9    C14   D    
C60   H42   S    
C18   O5    A    
C15   O20   S    
C4    C22   S    
C28   C49   A    
Cr2   O12   S    
C45   C49   A    
C24   O15   A    
C60   H43   S    
Cr3   O8    S    
C61   H46   S    
H31   N4    S    
C18   O9    A    
Cr6   O19   S    
C32   C37   A    
C41   H49   S    
C54   H25   S    
C33   H3    S    
C3    H13   S    
C9    C34   S    
C37   H12   S    
Cr3   O4    S    
C1    C13   S    
C21   O13   A    
C26   O17   A    
C21   O8    A    
C36   C40   A    
C43   C48   A    
C19   O6    A    
Cr4   O2    S    
C29   C62   A    
Cr4   O7    S    
Cr6   O15   S    
C38   H23   S    
C61   H48   S    
C14   C15   S    
Cr3   O5    S    
C31   H52   S    
C52   C63   A    
Cr2   O27   S    
C39   C43   A    
C11   C12   S    
C58   O20   S    
C12   O2    A    
C55   H30   S    
C10   C23   S    
Cr5   O17   S    
C46   C50   A    
C33   C38   A    
C13   C17   D    
C36   H1    S    
Cr1   O26   S    
Cr1   O29   S    
C53   H19   S    
C42   H50   S    
C22   O1    A    
C55   H28   S    
C10   H14   S    
C59   H39   S    
C2    C25   S    
C58   H38   S    
C42   C47   A    
C7    N4    S    
C37   C41   A    
Cr4   O3    S    
C54   H24   S    
C8    N3    S    
C40   C44   A    
C34   O4    A    
Cr6   O11   S    
C31   C45   A    
C23   O28   A    
C55   H29   S    
C53   H20   S    
C47   H7    S    
C31   C36   A    
C35   C63   A    
C60   O22   S    
C16   O24   S    
C32   C56   A    
Cr4   O19   S    
C29   C52   A    
C59   O21   S    
