data_mof_unit_8916.cif
_audit_creation_date              2012-10-26T21:13:39-0400
_audit_creation_method            fapswitch 2.2
_symmetry_space_group_name_H-M    P1
_symmetry_Int_Tables_number       1
_space_group_crystal_system       triclinic
_cell_length_a                    9.070757
_cell_length_b                    10.846544
_cell_length_c                    9.589651
_cell_angle_alpha                 90.338299
_cell_angle_beta                  90.015151
_cell_angle_gamma                 91.140357
_cell_volume                      943.287525235

loop_
_atom_site_label
_atom_site_type_symbol
_atom_type_description
_atom_site_fract_x
_atom_site_fract_y
_atom_site_fract_z
_atom_type_partial_charge
C1    C     C_R   0.499080 0.262338 0.499359 0.586237
C2    C     C_R   0.584234 0.583731 0.927135 0.166279
C3    C     C_3   0.747674 0.600091 0.921480 -0.255785
C4    C     C_R   0.220821 0.499872 0.499968 0.580304
C5    C     C_3   0.747598 0.600303 0.079783 -0.259090
C6    C     C_R   0.498073 0.737422 0.500274 0.536802
C7    C     C_R   0.779172 0.500163 0.500037 0.535646
C8    C     C_1   0.065589 0.499945 0.499980 -0.001575
C9    C     C_1   0.934402 0.500056 0.500039 -0.029195
C10   C     C_R   0.472607 0.064073 0.622123 -0.032240
C11   C     C_R   0.487985 0.128695 0.497276 -0.000382
C12   C     C_R   0.482847 0.933550 0.372225 -0.105238
C13   C     C_R   0.484808 0.061818 0.370527 0.386312
C14   C     C_R   0.485568 0.870225 0.499547 -0.083409
C15   C     C_R   0.470307 0.936968 0.623482 0.060124
C16   C     C_3   0.557561 0.932966 0.755549 0.122026
C17   C     C_3   0.561501 0.073100 0.753133 -0.185067
C18   C     C_R   0.584078 0.583927 0.073957 0.135921
C19   C     C_R   0.405574 0.425313 0.073675 0.376635
C20   C     C_R   0.405733 0.425137 0.925220 0.344957
Cl1   Cl    Cl    0.449871 0.872678 0.896218 -0.545026
Cl2   Cl    Cl    0.281866 0.324560 0.160292 -0.415268
Cl3   Cl    Cl    0.283134 0.323296 0.837230 -0.496437
Cu1   Cu    Cu3+1 0.499990 0.499980 0.640670 1.053804
Cu2   Cu    Cu3+1 0.500010 0.500020 0.359330 1.075584
F1    F     F_    0.493647 0.118657 0.245054 -0.554748
H1    H     H_    0.781391 0.690465 0.876277 0.153118
H2    H     H_    0.803685 0.519277 0.124308 0.175117
H3    H     H_    0.781326 0.690799 0.125909 0.156354
H4    H     H_    0.487100 0.884575 0.273558 0.201759
H5    H     H_    0.667308 0.890442 0.742670 0.118974
H6    H     H_    0.499733 0.116903 0.839691 0.247396
H7    H     H_    0.673851 0.112794 0.735228 0.115220
H8    H     H_    0.803731 0.518924 0.876199 0.170105
N1    N     N_R   0.500920 0.500930 0.147930 -0.264025
N2    N     N_R   0.500930 0.500890 0.852020 -0.258411
O1    O     O_R   0.500000 0.319640 0.618810 -0.483216
O2    O     O_R   0.500020 0.319680 0.381230 -0.399068
O3    O     O_R   0.288380 0.499980 0.618770 -0.448657
O4    O     O_R   0.288400 0.500020 0.381190 -0.463041
O5    O     O_R   0.499980 0.680320 0.618770 -0.473241
O6    O     O_R   0.500000 0.680360 0.381190 -0.515932
O7    O     O_R   0.711600 0.499980 0.618810 -0.518505
O8    O     O_R   0.711620 0.500020 0.381230 -0.511115

loop_
_geom_bond_atom_site_label_1
_geom_bond_atom_site_label_2
_ccdc_geom_bond_type
Cu2   O6    S    
C20   Cl3   S    
C16   Cl1   S    
C7    O7    A    
Cu2   O2    S    
C2    C18   A    
C5    H2    S    
C18   N1    A    
C19   C20   A    
C1    C11   S    
C4    O3    A    
C1    O1    A    
C4    C8    S    
C19   Cl2   S    
C3    H1    S    
C2    C3    S    
C19   N1    A    
C7    O8    A    
C12   C13   A    
C16   H5    S    
Cu1   O5    S    
C11   C13   A    
Cu1   N2    S    
C17   H7    S    
C1    O2    A    
Cu2   N1    S    
Cu2   O8    S    
C12   C14   A    
Cu1   O1    S    
C5    H3    S    
C10   C15   A    
Cu2   O4    S    
C17   H6    S    
C13   F1    S    
C6    C14   S    
C10   C11   A    
C10   C17   S    
C15   C16   S    
C20   N2    A    
Cu1   O3    S    
Cu1   Cu2   S    
C6    O6    A    
C2    N2    A    
C7    C9    S    
Cu1   O7    S    
C14   C15   A    
C8    C9    T    
C5    C18   S    
C3    H8    S    
C12   H4    S    
C4    O4    A    
C16   C17   S    
C3    C5    S    
C6    O5    A    
