data_mof_unit_46683.cif
_audit_creation_date              2012-12-10T18:35:42-0500
_audit_creation_method            fapswitch 2.2
_symmetry_space_group_name_H-M    P1
_symmetry_Int_Tables_number       1
_space_group_crystal_system       triclinic
_cell_length_a                    13.480586
_cell_length_b                    13.861995
_cell_length_c                    15.139186
_cell_angle_alpha                 90.620264
_cell_angle_beta                  91.46095
_cell_angle_gamma                 72.41904
_cell_volume                      2695.99473036

loop_
_atom_site_label
_atom_site_type_symbol
_atom_type_description
_atom_site_fract_x
_atom_site_fract_y
_atom_site_fract_z
_atom_type_partial_charge
C1    C     C_R   0.499515 0.500800 0.670322 0.898031
C2    C     C_R   0.963988 0.471056 0.456003 0.034159
C3    C     C_R   0.877273 0.470909 0.507535 -0.098601
C4    C     C_R   0.024811 0.535909 0.482393 -0.101210
C5    C     C_R   0.981871 0.614296 0.544851 -0.259399
C6    C     C_R   0.899018 0.609352 0.597833 0.374605
C7    C     C_R   0.856280 0.529187 0.585030 0.292550
C8    C     C_R   0.129886 0.520218 0.456483 0.414561
C9    C     C_R   0.127959 0.679792 0.528938 0.221192
C10   C     C_R   0.812215 0.412405 0.480392 -0.045712
C11   C     C_R   0.442241 0.441891 0.902513 0.332593
C12   C     C_R   0.700313 0.445510 0.499420 0.912262
C13   C     C_R   0.439045 0.447631 0.810173 0.294703
C14   C     C_R   0.495314 0.503665 0.767367 -0.391990
C15   C     C_R   0.541384 0.566202 0.818204 0.345200
C16   C     C_R   0.531052 0.571652 0.909571 0.391399
C17   C     C_R   0.488110 0.503925 0.952590 -0.272193
C18   C     C_R   0.590770 0.477016 0.096717 0.324394
C19   C     C_R   0.590283 0.488233 0.188806 0.401908
C20   C     C_R   0.497952 0.499932 0.234158 -0.178478
C21   C     C_R   0.403916 0.515171 0.187376 -0.330822
C22   C     C_R   0.401888 0.514569 0.095773 -0.120206
C23   C     C_R   0.498908 0.500070 0.330165 0.843063
C24   C     C_R   0.494521 0.495094 0.049561 -0.013098
C25   C     C_R   0.480887 0.896675 0.420564 -0.219476
C26   C     C_R   0.482298 0.794864 0.422750 0.037017
C27   C     C_R   0.513998 0.788829 0.576755 0.069972
C28   C     C_R   0.513249 0.890644 0.577295 -0.309391
C29   C     C_R   0.497800 0.946331 0.498349 0.145131
C30   C     C_R   0.451191 0.122281 0.565370 -0.343185
C31   C     C_R   0.452345 0.223340 0.565127 0.085612
C32   C     C_R   0.547704 0.195400 0.433792 -0.032042
C33   C     C_R   0.548935 0.093269 0.431186 0.346750
C34   C     C_R   0.299447 0.554309 0.496805 0.842204
C35   C     C_R   0.498962 0.055060 0.497729 0.017216
C36   C     C_R   0.027368 0.692760 0.557242 0.493323
C37   C     C_R   0.184274 0.587150 0.490094 -0.374026
C38   C     C_R   0.844886 0.339279 0.414483 -0.226350
C39   C     C_R   0.928267 0.339139 0.363063 -0.228396
C40   C     C_R   0.980265 0.412029 0.377164 0.499381
Cu1   Cu    Cu3+1 0.500000 0.403570 0.500010 0.964518
Cu2   Cu    Cu3+1 0.500000 0.596430 0.499990 0.954315
H1    H     H_    0.331252 0.532150 0.221183 0.137761
H2    H     H_    0.327564 0.531198 0.060766 0.188059
H3    H     H_    0.464813 0.936533 0.358250 0.174572
H4    H     H_    0.467730 0.760056 0.361748 0.123457
H5    H     H_    0.525862 0.748573 0.638547 0.166098
H6    H     H_    0.525696 0.925342 0.639223 0.141528
H7    H     H_    0.411570 0.097375 0.617742 0.168161
H8    H     H_    0.414708 0.273490 0.617448 0.183951
H9    H     H_    0.585651 0.223840 0.382462 0.148175
H10   H     H_    0.797477 0.291808 0.394282 0.168422
H11   H     H_    0.943601 0.290637 0.305257 0.148289
N1    N     N_R   0.500000 0.741310 0.499980 -0.170604
N2    N     N_R   0.500060 0.258650 0.499980 -0.201526
O1    O     O_R   0.499990 0.418570 0.628550 -0.548202
O2    O     O_R   0.499990 0.581440 0.628540 -0.588244
O3    O     O_R   0.650980 0.378820 0.499990 -0.598557
O4    O     O_R   0.650980 0.541690 0.499970 -0.576886
O5    O     O_R   0.500010 0.418560 0.371460 -0.593980
O6    O     O_R   0.500010 0.581430 0.371450 -0.608242
O7    O     O_R   0.349020 0.458310 0.500030 -0.555481
O8    O     O_R   0.349020 0.621180 0.500010 -0.567935
O9    O     O_3   0.172515 0.754743 0.549322 -0.679786
H12   H     H_    0.205415 0.767975 0.494818 0.331488
O10   O     O_3   0.381077 0.397296 0.762088 -0.564954
C41   C     C_3   0.279184 0.464123 0.749913 0.109177
H13   H     H_    0.280032 0.533114 0.713147 0.138900
H14   H     H_    0.241567 0.487071 0.814724 0.172096
C42   C     C_3   0.213063 0.411746 0.696545 -0.761153
H15   H     H_    0.131951 0.462745 0.690089 0.216016
H16   H     H_    0.244394 0.393114 0.629361 0.254278
H17   H     H_    0.212416 0.341114 0.730116 0.251244
O11   O     O_3   0.596384 0.624298 0.781493 -0.690588
H18   H     H_    0.632488 0.587905 0.729590 0.338145
O12   O     O_3   0.568345 0.641234 0.954765 -0.659052
H19   H     H_    0.534972 0.655574 0.012928 0.312947
O13   O     O_3   0.685632 0.452382 0.055726 -0.690105
H20   H     H_    0.678128 0.425836 0.995795 0.327106
O14   O     O_3   0.679708 0.490680 0.234323 -0.563384
C43   C     C_3   0.685762 0.590680 0.229143 0.083039
H21   H     H_    0.616527 0.645982 0.258769 0.128465
H22   H     H_    0.691845 0.612518 0.159317 0.184065
C44   C     C_3   0.781806 0.598143 0.279463 -0.744420
H23   H     H_    0.851969 0.545642 0.249702 0.279665
H24   H     H_    0.787186 0.676203 0.275224 0.187809
H25   H     H_    0.777521 0.579145 0.349922 0.242948
O15   O     O_3   0.874499 0.670510 0.672104 -0.541521
C45   C     C_3   0.771813 0.736134 0.663168 0.094252
H26   H     H_    0.714464 0.693957 0.652701 0.153893
H27   H     H_    0.764607 0.788439 0.606606 0.140433
C46   C     C_3   0.744497 0.797959 0.747578 -0.699616
H28   H     H_    0.800125 0.841793 0.760063 0.252733
H29   H     H_    0.664606 0.851216 0.741756 0.185152
H30   H     H_    0.748269 0.746846 0.804394 0.278700
O16   O     O_3   0.596139 0.033115 0.361593 -0.593811
C47   C     C_3   0.700274 0.982633 0.386456 0.052507
H31   H     H_    0.704675 0.938516 0.448294 0.142725
H32   H     H_    0.745123 0.037695 0.395901 0.138146
C48   C     C_3   0.750045 0.909017 0.313555 -0.785773
H33   H     H_    0.750244 0.950843 0.251440 0.256028
H34   H     H_    0.831500 0.866778 0.332864 0.185951
H35   H     H_    0.705328 0.854476 0.302038 0.245060
O17   O     O_3   0.976805 0.780158 0.602886 -0.496325
C49   C     C_3   0.931352 0.857269 0.540831 0.083254
H36   H     H_    0.872907 0.835935 0.498080 0.095995
H37   H     H_    0.991109 0.872335 0.498196 0.158306
C50   C     C_3   0.877247 0.954924 0.589467 -0.768469
H38   H     H_    0.933489 0.975804 0.634895 0.270094
H39   H     H_    0.845798 0.017084 0.541259 0.182930
H40   H     H_    0.811933 0.945686 0.628125 0.232940
O18   O     O_3   0.184119 0.428324 0.417839 -0.534110
C51   C     C_3   0.231350 0.443023 0.338228 0.171265
H41   H     H_    0.296234 0.474351 0.349838 0.108218
H42   H     H_    0.175850 0.496373 0.292515 0.155747
C52   C     C_3   0.276396 0.341159 0.292606 -0.721026
H43   H     H_    0.215089 0.304135 0.279782 0.247433
H44   H     H_    0.310351 0.351752 0.228733 0.193880
H45   H     H_    0.338547 0.290836 0.335205 0.247438
O19   O     O_3   0.030955 0.438383 0.308167 -0.758586
H46   H     H_    0.028731 0.394996 0.256053 0.313772
O20   O     O_3   0.797628 0.503025 0.648812 -0.769929
H47   H     H_    0.813251 0.529813 0.706720 0.355619
O21   O     O_3   0.394205 0.380144 0.943902 -0.557314
C53   C     C_3   0.466059 0.282496 0.952076 0.112033
H48   H     H_    0.539387 0.284884 0.986582 0.132702
H49   H     H_    0.484732 0.246776 0.885848 0.165485
C54   C     C_3   0.418227 0.217028 0.006376 -0.764627
H50   H     H_    0.345577 0.211692 0.973277 0.253441
H51   H     H_    0.473888 0.139789 0.013181 0.202292
H52   H     H_    0.399863 0.250500 0.073240 0.248435

loop_
_geom_bond_atom_site_label_1
_geom_bond_atom_site_label_2
_ccdc_geom_bond_type
C54   H52   S    
C34   C37   S    
Cu1   Cu2   S    
C11   O21   S    
C44   H25   S    
C4    C8    A    
C54   H50   S    
C47   C48   S    
C47   H31   S    
C27   N1    A    
Cu1   O1    S    
C52   H43   S    
C49   H37   S    
C30   C35   A    
C18   C24   A    
C5    C6    A    
C46   H28   S    
C28   C29   A    
C1    O1    A    
C44   H24   S    
Cu1   O3    S    
C3    C7    A    
C8    O18   S    
C30   C31   A    
C38   H10   S    
C15   C16   A    
C9    O9    S    
C5    C36   A    
C34   O7    A    
C6    O15   S    
C50   H38   S    
C18   C19   A    
O17   C49   S    
C43   H22   S    
C21   H1    S    
C12   O4    A    
C22   H2    S    
C19   C20   A    
C52   H44   S    
C16   C17   A    
C48   H34   S    
C53   C54   S    
C42   H15   S    
C45   H27   S    
C32   N2    A    
C51   C52   S    
C12   O3    A    
O10   C41   S    
C21   C22   A    
Cu1   O7    S    
C26   N1    A    
Cu2   O2    S    
C46   H29   S    
O18   C51   S    
C47   H32   S    
C43   H21   S    
C48   H33   S    
C13   O10   S    
C25   C29   A    
C23   O5    A    
C49   C50   S    
C17   C24   S    
O11   H18   S    
C41   H13   S    
C38   C39   A    
O12   H19   S    
C39   C40   A    
O13   H20   S    
C4    C5    A    
C25   C26   A    
C46   H30   S    
C54   H51   S    
C41   H14   S    
C2    C4    A    
C32   H9    S    
C1    O2    A    
C9    C36   A    
C20   C23   S    
C18   O13   S    
O16   C47   S    
C20   C21   A    
C42   H17   S    
C9    C37   A    
C44   H23   S    
C45   C46   S    
Cu2   O6    S    
C10   C12   S    
C40   O19   S    
C30   H7    S    
C53   H48   S    
C22   C24   A    
C8    C37   A    
C31   H8    S    
C33   O16   S    
C25   H3    S    
C43   C44   S    
O19   H46   S    
C51   H41   S    
C27   H5    S    
C28   H6    S    
C16   O12   S    
Cu1   O5    S    
O14   C43   S    
C11   C17   A    
Cu2   O4    S    
C52   H45   S    
C6    C7    A    
C49   H36   S    
C29   C35   S    
C50   H40   S    
C10   C38   A    
C36   O17   S    
C41   C42   S    
C32   C33   A    
C2    C3    A    
C45   H26   S    
C3    C10   A    
Cu2   N1    S    
C11   C13   A    
C39   H11   S    
Cu1   N2    S    
O9    H12   S    
C34   O8    A    
C33   C35   A    
C50   H39   S    
C48   H35   S    
C19   O14   S    
C26   H4    S    
C2    C40   A    
C23   O6    A    
C15   O11   S    
O15   C45   S    
C27   C28   A    
C53   H49   S    
C14   C15   A    
C42   H16   S    
C1    C14   S    
C7    O20   S    
C31   N2    A    
O20   H47   S    
C13   C14   A    
Cu2   O8    S    
O21   C53   S    
C51   H42   S    
