data_mof_unit_13477.cif
_audit_creation_date              2013-03-05T16:32:25-0500
_audit_creation_method            fapswitch 2.2
_symmetry_space_group_name_H-M    P1
_symmetry_Int_Tables_number       1
_space_group_crystal_system       triclinic
_cell_length_a                    10.641308
_cell_length_b                    10.852639
_cell_length_c                    9.587369
_cell_angle_alpha                 90.2498
_cell_angle_beta                  90.671531
_cell_angle_gamma                 91.326602
_cell_volume                      1106.82485361

loop_
_atom_site_label
_atom_site_type_symbol
_atom_site_description
_atom_site_fract_x
_atom_site_fract_y
_atom_site_fract_z
_atom_type_partial_charge
O1    O     O_R   0.500000 0.319640 0.618810 -0.540716
O2    O     O_R   0.500010 0.319680 0.381230 -0.556355
C1    C     C_R   0.505312 0.262690 0.499320 0.851288
O3    O     O_R   0.316850 0.499950 0.618770 -0.536955
O4    O     O_R   0.316860 0.499990 0.381190 -0.598087
C2    C     C_R   0.259613 0.499042 0.499003 0.833688
Cu1   Cu    Cu3+1 0.499990 0.499980 0.640670 1.070081
Cu2   Cu    Cu3+1 0.500010 0.500020 0.359330 1.031094
O5    O     O_R   0.499990 0.680320 0.618770 -0.574488
O6    O     O_R   0.500000 0.680360 0.381190 -0.574189
O7    O     O_R   0.683140 0.500010 0.618810 -0.583954
O8    O     O_R   0.683150 0.500050 0.381230 -0.582834
C3    C     C_R   0.499224 0.737322 0.499978 0.858026
C4    C     C_R   0.740570 0.498558 0.500626 0.870568
C5    C     C_3   0.041618 0.388493 0.545651 -0.086106
C6    C     C_3   0.955122 0.405405 0.416189 -0.210617
H1    H     H_    0.915252 0.329972 0.349467 0.217743
C7    C     C_3   0.877555 0.496424 0.501179 -0.122641
C8    C     C_3   0.962401 0.479431 0.630420 -0.068570
C9    C     C_3   0.046403 0.589245 0.581387 -0.124402
C10   C     C_3   0.961233 0.602958 0.452665 0.341332
C11   C     C_3   0.039642 0.514608 0.366140 -0.202546
C12   C     C_3   0.123109 0.498031 0.496598 -0.099657
H2    H     H_    0.932480 0.461906 0.738792 0.196459
H3    H     H_    0.086132 0.665469 0.647091 0.210443
H4    H     H_    0.073176 0.530259 0.258279 0.204965
C13   C     C_R   0.470221 0.064286 0.615283 -0.022792
C14   C     C_R   0.506879 0.128981 0.496274 -0.169795
C15   C     C_R   0.530500 0.062021 0.371973 0.328904
C16   C     C_R   0.520779 0.933500 0.373459 -0.145846
C17   C     C_R   0.494011 0.870262 0.497412 -0.146132
C18   C     C_R   0.462057 0.937155 0.615506 -0.000923
C19   C     C_3   0.510628 0.928604 0.762158 0.109184
C20   C     C_3   0.522534 0.068699 0.761577 0.140323
C21   C     C_R   0.584926 0.570565 0.075246 0.254759
N1    N     N_R   0.500800 0.500930 0.147930 -0.215607
C22   C     C_R   0.407142 0.442130 0.074263 -0.053892
C23   C     C_R   0.405692 0.442084 0.926032 0.426009
N2    N     N_R   0.500800 0.500890 0.852020 -0.269453
C24   C     C_R   0.583033 0.573921 0.928446 0.183730
C25   C     C_3   0.723523 0.574630 0.925744 0.080118
C26   C     C_3   0.724134 0.563503 0.083866 -0.480490
H5    H     H_    0.600485 0.879232 0.770821 0.203736
H6    H     H_    0.460777 0.114975 0.837153 0.207112
N3    N     N_R   0.653226 0.114163 0.768878 0.147012
O9    O     O_R   0.738420 0.069486 0.687700 -0.293593
O10   O     O_R   0.684468 0.202104 0.856051 -0.299146
H7    H     H_    0.333586 0.393322 0.129919 0.173203
N4    N     N_R   0.299163 0.385370 0.857342 0.137788
O11   O     O_R   0.310925 0.283159 0.788418 -0.357285
O12   O     O_R   0.186954 0.419843 0.890194 -0.366889
H8    H     H_    0.762223 0.493739 0.871492 0.146337
N5    N     N_R   0.775057 0.693781 0.879372 0.164514
O13   O     O_R   0.751298 0.795041 0.946504 -0.278424
O14   O     O_R   0.848194 0.699103 0.772084 -0.322037
H9    H     H_    0.755636 0.471884 0.120041 0.213351
H10   H     H_    0.767341 0.642969 0.141417 0.266068
H11   H     H_    0.078190 0.299714 0.584078 0.207348
N6    N     N_R   0.915335 0.720507 0.402794 0.122997
O15   O     O_R   0.950619 0.762928 0.282458 -0.306177
O16   O     O_R   0.842685 0.785736 0.480677 -0.296162
N7    N     N_R   0.575711 0.120712 0.247722 0.152230
O17   O     O_R   0.676792 0.190500 0.253469 -0.322564
O18   O     O_R   0.531829 0.085363 0.126422 -0.304606
H12   H     H_    0.543953 0.883215 0.279640 0.223235
N8    N     N_R   0.414342 0.883518 0.858416 0.148723
O19   O     O_R   0.447140 0.819202 0.966378 -0.325121
O20   O     O_R   0.297625 0.915216 0.844020 -0.283322

loop_
_geom_bond_atom_site_label_1
_geom_bond_atom_site_label_2
_geom_bond_distance
_ccdc_geom_bond_type
O4    Cu2   1.962626 S    
N8    O20   1.302376 A    
C10   N6    1.457156 S    
N7    O17   1.301597 A    
C7    C10   1.520761 S    
C25   C26   1.521244 S    
C4    C7    1.458358 S    
C25   H8    1.108420 S    
Cu1   O7    1.962625 S    
C21   N1    1.358675 A    
C9    C12   1.533934 S    
C16   C17   1.403704 A    
Cu2   O8    1.957671 S    
C13   C14   1.397038 A    
C17   C18   1.392062 A    
C18   C19   1.496305 S    
N4    O12   1.301299 A    
C5    C12   1.533964 S    
C19   C20   1.522777 S    
O5    C3    1.298465 A    
N6    O15   1.300288 A    
C23   N4    1.429777 S    
O1    Cu1   1.967448 S    
N3    O9    1.302409 A    
C22   H7    1.082146 S    
C5    C8    1.546835 S    
C25   N5    1.465739 S    
C15   C16   1.396380 A    
C21   C26   1.486459 S    
C8    H2    1.106234 S    
O3    Cu1   1.957671 S    
O4    C2    1.289563 A    
C26   H10   1.109568 S    
C6    C7    1.538679 S    
C24   C25   1.495373 S    
C5    H11   1.110217 S    
C22   C23   1.421042 A    
O8    C4    1.291575 A    
C19   N8    1.464172 S    
N8    O19   1.299814 A    
O2    C1    1.293733 A    
N5    O14   1.297801 A    
C13   C20   1.503091 S    
C11   H4    1.110377 S    
C23   N2    1.387796 A    
O7    C4    1.293875 A    
N6    O16   1.300237 A    
C16   H12   1.083905 S    
C1    C14   1.451749 S    
C9    H3    1.110350 S    
C2    C12   1.452272 S    
C21   C24   1.407976 A    
C5    C6    1.550644 S    
C14   C15   1.421049 A    
Cu1   O5    1.969304 S    
Cu1   Cu2   2.697314 S    
C20   H6    1.110124 S    
C9    C10   1.532387 S    
Cu2   O6    1.967448 S    
N4    O11   1.297979 A    
Cu2   N1    2.026953 S    
N3    O10   1.300671 A    
N2    C24   1.370620 A    
C20   N3    1.465651 S    
C7    C8    1.538827 S    
Cu1   N2    2.026189 S    
C15   N7    1.436005 S    
N1    C22   1.359949 A    
N7    O18   1.301059 A    
C26   H9    1.112215 S    
C13   C18   1.380446 A    
C10   C11   1.532974 S    
O3    C2    1.293357 A    
C3    C17   1.445403 S    
C11   C12   1.539148 S    
O2    Cu2   1.969306 S    
C8    C9    1.551059 S    
N5    O13   1.302434 A    
C6    C11   1.552243 S    
C6    H1    1.110118 S    
O1    C1    1.301748 A    
O6    C3    1.293664 A    
C19   H5    1.109318 S    
