data_mof_unit_49581.cif
_audit_creation_date              2012-12-10T17:40:51-0500
_audit_creation_method            fapswitch 2.2
_symmetry_space_group_name_H-M    P1
_symmetry_Int_Tables_number       1
_space_group_crystal_system       triclinic
_cell_length_a                    14.578417
_cell_length_b                    15.610702
_cell_length_c                    9.945084
_cell_angle_alpha                 92.32893
_cell_angle_beta                  90.298844
_cell_angle_gamma                 90.213797
_cell_volume                      2261.37764251

loop_
_atom_site_label
_atom_site_type_symbol
_atom_type_description
_atom_site_fract_x
_atom_site_fract_y
_atom_site_fract_z
_atom_type_partial_charge
C1    C     C_R   0.384794 0.875745 0.498180 0.876178
C2    C     C_R   0.692212 0.237728 0.387260 -0.168132
C3    C     C_R   0.199102 0.264128 0.386775 -0.179384
C4    C     C_R   0.191912 0.737929 0.387113 -0.166881
C5    C     C_R   0.698969 0.825602 0.491748 -0.039918
C6    C     C_R   0.668576 0.202686 0.509533 -0.111229
C7    C     C_R   0.199468 0.326067 0.491656 -0.049076
C8    C     C_R   0.168139 0.702976 0.509395 -0.109007
C9    C     C_R   0.325189 0.992705 0.127927 0.497634
C10   C     C_R   0.825240 0.491943 0.127922 0.483336
C11   C     C_R   0.245819 0.986219 0.046985 -0.238648
C12   C     C_R   0.377266 0.118261 0.502963 0.898283
C13   C     C_R   0.745907 0.484766 0.047008 -0.247756
C14   C     C_R   0.249816 0.989934 0.909248 -0.164925
C15   C     C_R   0.749790 0.488510 0.909250 -0.182918
C16   C     C_R   0.334978 0.997722 0.850562 -0.288411
C17   C     C_R   0.834929 0.496892 0.850564 -0.290417
C18   C     C_R   0.417462 0.998928 0.924729 0.142343
C19   C     C_R   0.917451 0.498422 0.924706 0.160361
C20   C     C_R   0.415574 0.997625 0.069219 0.165912
C21   C     C_R   0.915587 0.497141 0.069199 0.181642
C22   C     C_R   0.578815 0.999640 0.072176 -0.059406
C23   C     C_R   0.884910 0.375681 0.498169 0.876679
C24   C     C_R   0.078810 0.500010 0.072209 -0.071771
C25   C     C_R   0.612458 0.126196 0.502979 0.930369
C26   C     C_R   0.624698 0.884893 0.498014 0.875323
C27   C     C_R   0.112314 0.626281 0.502952 0.928757
C28   C     C_R   0.124867 0.385066 0.498001 0.868820
C29   C     C_R   0.578569 0.998387 0.929558 -0.011274
C30   C     C_R   0.078561 0.498731 0.929611 -0.023175
C31   C     C_R   0.328170 0.227879 0.756015 -0.184027
C32   C     C_R   0.362284 0.760899 0.725653 -0.179041
C33   C     C_R   0.826887 0.726834 0.755729 -0.178338
C34   C     C_R   0.877078 0.618034 0.502869 0.901292
C35   C     C_R   0.863151 0.260528 0.725328 -0.181383
C36   C     C_R   0.335973 0.295221 0.853427 -0.040445
C37   C     C_R   0.332096 0.741220 0.854091 -0.069556
C38   C     C_R   0.833715 0.794226 0.853367 -0.052184
C39   C     C_R   0.833237 0.240736 0.853865 -0.070056
C40   C     C_R   0.826682 0.879445 0.810803 0.397012
C41   C     C_R   0.738277 0.226060 0.874377 0.395840
C42   C     C_R   0.321622 0.380448 0.814200 0.384050
C43   C     C_R   0.237033 0.726872 0.874333 0.388311
C44   C     C_R   0.787596 0.894026 0.683126 -0.190315
C45   C     C_R   0.257314 0.195859 0.392847 -0.158091
C46   C     C_R   0.677712 0.224595 0.762389 -0.163723
C47   C     C_R   0.286891 0.394526 0.683651 -0.187953
C48   C     C_R   0.176645 0.725462 0.762106 -0.163295
C49   C     C_R   0.761467 0.821887 0.599423 -0.013590
C50   C     C_R   0.713861 0.230274 0.630449 -0.026517
C51   C     C_R   0.261692 0.322292 0.599669 -0.010068
C52   C     C_R   0.213113 0.730862 0.630348 -0.026041
C53   C     C_R   0.300019 0.242893 0.623085 0.086132
C54   C     C_R   0.300372 0.764984 0.617061 0.113634
C55   C     C_R   0.800072 0.742479 0.622435 0.084061
C56   C     C_R   0.265131 0.792963 0.382611 -0.168762
C57   C     C_R   0.801043 0.264539 0.616938 0.113731
C58   C     C_R   0.307809 0.183805 0.510418 -0.121873
C59   C     C_R   0.320640 0.805794 0.496490 -0.112500
C60   C     C_R   0.807397 0.683293 0.510142 -0.111145
C61   C     C_R   0.821025 0.305535 0.496428 -0.113085
C62   C     C_2   0.164103 0.983661 0.826990 0.991199
C63   C     C_2   0.663931 0.481968 0.827197 0.988884
C64   C     C_2   0.368980 0.274818 0.990088 0.959048
C65   C     C_2   0.400405 0.745063 0.965296 0.899647
C66   C     C_2   0.848270 0.774874 0.997437 0.931178
C67   C     C_R   0.756441 0.695135 0.392963 -0.187503
C68   C     C_2   0.901645 0.244886 0.964954 0.895996
C69   C     C_2   0.793129 0.980628 0.623756 1.016572
C70   C     C_2   0.577032 0.230097 0.785214 1.071847
C71   C     C_2   0.294260 0.480641 0.622641 1.021476
C72   C     C_2   0.075879 0.731157 0.784354 1.053872
C73   C     C_R   0.765454 0.292701 0.382628 -0.164736
C74   C     C_R   0.698061 0.763351 0.387258 -0.189624
H1    H     H_    0.260633 0.151407 0.306770 0.209441
H2    H     H_    0.434358 0.774861 0.711338 0.191499
H3    H     H_    0.836979 0.662688 0.787730 0.199552
H4    H     H_    0.935148 0.274737 0.710797 0.191730
H5    H     H_    0.652022 0.767103 0.301763 0.181458
H6    H     H_    0.654720 0.222134 0.295055 0.204421
H7    H     H_    0.153322 0.267950 0.300996 0.174222
H8    H     H_    0.154589 0.722183 0.294824 0.208445
H9    H     H_    0.643499 0.999346 0.125969 0.173861
H10   H     H_    0.143501 0.500001 0.126011 0.148838
H11   H     H_    0.178923 0.980914 0.093123 0.175952
H12   H     H_    0.278056 0.824984 0.290273 0.229840
H13   H     H_    0.679073 0.479159 0.093240 0.186020
H14   H     H_    0.206268 0.065114 0.685335 0.291030
H15   H     H_    0.705942 0.562488 0.683999 0.289425
H16   H     H_    0.450595 0.306278 0.149192 0.353352
H17   H     H_    0.431169 0.783250 0.156392 0.348171
H18   H     H_    0.841806 0.815992 0.192283 0.361150
H19   H     H_    0.932297 0.282984 0.156153 0.347369
H20   H     H_    0.911971 0.926496 0.945415 0.398380
H21   H     H_    0.750281 0.185778 0.055906 0.354642
H22   H     H_    0.325280 0.435697 0.991560 0.342696
H23   H     H_    0.759631 0.650666 0.306904 0.203408
H24   H     H_    0.248681 0.686797 0.056043 0.352806
H25   H     H_    0.767711 0.050457 0.796390 0.333748
H26   H     H_    0.556671 0.317685 0.642624 0.321230
H27   H     H_    0.263279 0.553554 0.790076 0.329168
H28   H     H_    0.055815 0.818043 0.640607 0.322704
H29   H     H_    0.245602 0.989915 0.286470 0.307798
H30   H     H_    0.745679 0.489450 0.286526 0.309230
H31   H     H_    0.778306 0.324734 0.290262 0.229491
H32   H     H_    0.334439 0.001560 0.745268 0.219640
H33   H     H_    0.834406 0.501283 0.745363 0.219252
H34   H     H_    0.642705 0.995602 0.876864 0.125604
H35   H     H_    0.142698 0.496045 0.877017 0.115561
H36   H     H_    0.342813 0.164473 0.787814 0.199731
N1    N     N_R   0.498810 1.000000 0.142780 -0.118990
N2    N     N_R   0.998810 0.500000 0.142780 -0.110443
N3    N     N_R   0.498740 1.000000 0.857170 -0.109932
N4    N     N_R   0.998740 0.500000 0.857170 -0.105109
O1    O     O_R   0.408390 0.908380 0.614690 -0.660237
O2    O     O_R   0.591620 0.908390 0.614640 -0.639588
O3    O     O_R   0.091620 0.591610 0.614640 -0.625443
O4    O     O_R   0.091620 0.408390 0.614640 -0.639355
O5    O     O_R   0.591610 0.091610 0.385310 -0.610681
O6    O     O_R   0.591610 0.908390 0.385310 -0.615576
O7    O     O_R   0.091610 0.591610 0.385310 -0.609242
O8    O     O_R   0.091610 0.408390 0.385310 -0.622889
O9    O     O_2   0.098867 0.943096 0.867843 -0.568578
O10   O     O_R   0.155211 0.023282 0.703879 -0.758258
O11   O     O_2   0.598516 0.442027 0.868983 -0.507429
O12   O     O_R   0.408390 0.091620 0.614690 -0.660934
O13   O     O_R   0.655005 0.520710 0.703351 -0.761279
O14   O     O_2   0.342825 0.209191 0.041344 -0.656254
O15   O     O_R   0.432625 0.328220 0.058197 -0.720309
O16   O     O_2   0.478082 0.718118 0.945647 -0.592337
O17   O     O_R   0.377918 0.782873 0.090365 -0.835776
O18   O     O_2   0.873659 0.703669 0.028237 -0.608579
O19   O     O_R   0.829038 0.836858 0.098837 -0.792615
O20   O     O_2   0.979509 0.218482 0.945071 -0.595927
O21   O     O_R   0.878989 0.282357 0.090213 -0.834540
O22   O     O_3   0.862289 0.947615 0.887247 -0.734611
O23   O     O_R   0.908390 0.408380 0.614690 -0.660893
O24   O     O_3   0.702676 0.212427 0.000215 -0.731306
O25   O     O_3   0.343254 0.449619 0.899081 -0.726804
O26   O     O_3   0.201197 0.713384 0.000073 -0.732380
O27   O     O_2   0.805039 0.985465 0.502801 -0.585123
O28   O     O_R   0.788932 0.057042 0.701189 -0.754551
O29   O     O_2   0.541799 0.190627 0.874988 -0.544930
O30   O     O_R   0.521296 0.280569 0.705608 -0.784847
O31   O     O_2   0.308557 0.484061 0.502045 -0.590442
O32   O     O_R   0.289821 0.557994 0.697521 -0.751401
O33   O     O_2   0.040437 0.692396 0.874699 -0.520253
O34   O     O_R   0.908390 0.591620 0.614690 -0.657560
O35   O     O_R   0.020308 0.781180 0.703799 -0.796015
O36   O     O_3   0.311450 0.995367 0.263246 -0.741799
O37   O     O_3   0.811469 0.495362 0.263242 -0.742028
O38   O     O_R   0.408370 0.908380 0.385360 -0.554531
O39   O     O_R   0.408370 0.091620 0.385360 -0.542674
O40   O     O_R   0.908370 0.408380 0.385360 -0.555022
O41   O     O_R   0.908370 0.591620 0.385360 -0.539422
O42   O     O_R   0.591620 0.091610 0.614640 -0.624489
Zn1   Zn    Zn3+2 0.500010 1.000000 0.653130 0.960502
Zn2   Zn    Zn3+2 0.000010 0.500000 0.653130 0.961599
Zn3   Zn    Zn3+2 0.499980 1.000000 0.346870 1.023167
Zn4   Zn    Zn3+2 0.999980 0.500000 0.346870 1.022012

loop_
_geom_bond_atom_site_label_1
_geom_bond_atom_site_label_2
_ccdc_geom_bond_type
C44   C49   A    
C33   C55   A    
C37   C43   A    
C22   C29   A    
C39   C68   S    
H25   O28   S    
C36   C42   A    
H18   O19   S    
C24   N2    A    
C12   O39   A    
C4    C8    A    
H22   O25   S    
C62   O10   S    
C65   O16   D    
C27   O7    A    
C39   C41   A    
C34   O41   A    
C40   O22   S    
C70   O29   D    
O23   Zn2   S    
O1    Zn1   S    
H30   O37   S    
O42   Zn1   S    
C19   C21   A    
C26   O6    A    
C3    C7    A    
C17   H33   S    
C30   N4    A    
C11   C14   A    
C28   O8    A    
O12   Zn1   S    
C6    C25   S    
H17   O17   S    
C69   O27   D    
C14   C62   S    
C1    O38   A    
C5    C74   A    
N1    Zn3   S    
N4    Zn2   S    
H29   O36   S    
H16   O15   S    
C34   O34   A    
C38   C66   S    
C60   C67   A    
C64   O14   D    
O7    Zn4   S    
C37   C65   S    
C3    H7    S    
O6    Zn3   S    
H20   O22   S    
C41   C46   A    
C29   H34   S    
O41   Zn4   S    
C43   C48   A    
C8    C52   A    
C40   C44   A    
H14   O10   S    
C12   C58   S    
C42   O25   S    
O38   Zn3   S    
C55   C60   A    
C4    C56   A    
C25   O42   A    
C34   C60   S    
C5    C49   A    
C2    C6    A    
C48   C72   S    
C25   O5    A    
C18   N3    A    
C32   C54   A    
C62   O9    D    
C65   O17   S    
C52   C54   A    
C66   O18   D    
C54   C59   A    
C27   O3    A    
C10   C21   A    
H27   O32   S    
C45   C58   A    
C30   H35   S    
C44   C69   S    
H26   O30   S    
C47   C51   A    
C19   N4    A    
C61   C73   A    
C69   O28   S    
C49   C55   A    
C3    C45   A    
C6    C50   A    
C7    C28   S    
H24   O26   S    
C51   C53   A    
O39   Zn3   S    
C35   C39   A    
O40   Zn4   S    
C12   O12   A    
C10   O37   S    
C20   N1    A    
C9    C20   A    
C56   H12   S    
C48   C52   A    
C13   H13   S    
C43   O26   S    
C67   C74   A    
O34   Zn2   S    
C32   C37   A    
C31   C53   A    
C9    C11   A    
C47   C71   S    
C41   O24   S    
C63   O11   D    
C2    C73   A    
C16   C18   A    
C71   O31   D    
C22   N1    A    
C74   H5    S    
C13   C15   A    
C14   C16   A    
O4    Zn2   S    
C24   C30   A    
C9    O36   S    
C21   N2    A    
H15   O13   S    
C66   O19   S    
C15   C17   A    
C29   N3    A    
H21   O24   S    
O8    Zn4   S    
N2    Zn4   S    
O3    Zn2   S    
C50   C57   A    
C23   O23   A    
C68   O21   S    
H19   O21   S    
C10   C13   A    
C32   H2    S    
C53   C58   A    
C57   C61   A    
C16   H32   S    
C72   O33   D    
C46   C50   A    
C35   H4    S    
C70   O30   S    
C33   C38   A    
C56   C59   A    
C35   C57   A    
C73   H31   S    
C45   H1    S    
C22   H9    S    
C1    C59   S    
C24   H10   S    
C7    C51   A    
O2    Zn1   S    
C28   O4    A    
C38   C40   A    
C33   H3    S    
C11   H11   S    
C68   O20   D    
C17   C19   A    
C31   H36   S    
C18   C20   A    
C42   C47   A    
C26   O2    A    
C46   C70   S    
C2    H6    S    
C67   H23   S    
H28   O35   S    
C5    C26   S    
C23   C61   S    
C71   O32   S    
C4    H8    S    
C64   O15   S    
O5    Zn3   S    
C72   O35   S    
C23   O40   A    
C8    C27   S    
C15   C63   S    
C31   C36   A    
C1    O1    A    
N3    Zn1   S    
C36   C64   S    
C63   O13   S    
