data_mof_unit_17219.cif
_audit_creation_date              2012-12-11T14:54:20-0500
_audit_creation_method            fapswitch 2.2
_symmetry_space_group_name_H-M    P1
_symmetry_Int_Tables_number       1
_space_group_crystal_system       triclinic
_cell_length_a                    19.022635
_cell_length_b                    10.921804
_cell_length_c                    18.835674
_cell_angle_alpha                 90.252884
_cell_angle_beta                  90.318918
_cell_angle_gamma                 89.775984
_cell_volume                      3913.19944042

loop_
_atom_site_label
_atom_site_type_symbol
_atom_type_description
_atom_site_fract_x
_atom_site_fract_y
_atom_site_fract_z
_atom_type_partial_charge
C1    C     C_R   0.730076 0.376098 0.645805 0.548650
C2    C     C_R   0.271952 0.372961 0.355944 0.556844
C3    C     C_R   0.230171 0.876085 0.645838 0.545385
C4    C     C_R   0.772308 0.872096 0.356252 0.565786
C5    C     C_3   0.525233 0.356525 0.449200 -0.254889
C6    C     C_3   0.547658 0.358873 0.526620 -0.251769
C7    C     C_3   0.044364 0.858874 0.452560 -0.270370
C8    C     C_3   0.057927 0.861497 0.531917 -0.241195
C9    C     C_R   0.693751 0.862642 0.538041 0.033173
C10   C     C_R   0.291285 0.841081 0.459088 0.019592
C11   C     C_R   0.193238 0.363878 0.537670 0.031392
C12   C     C_R   0.793585 0.343763 0.459688 0.024098
C13   C     C_R   0.699324 0.858699 0.464129 -0.148565
C14   C     C_R   0.290224 0.830021 0.532987 -0.145427
C15   C     C_R   0.198625 0.360340 0.463698 -0.151710
C16   C     C_R   0.792424 0.333811 0.533664 -0.144250
C17   C     C_R   0.761159 0.895783 0.431131 0.010101
C18   C     C_R   0.249681 0.910766 0.574504 -0.011012
C19   C     C_R   0.260227 0.398217 0.430573 0.008606
C20   C     C_R   0.749174 0.411228 0.574442 -0.008519
C21   C     C_R   0.819211 0.931789 0.472168 -0.112099
C22   C     C_R   0.214218 0.007680 0.543037 -0.156870
C23   C     C_R   0.317900 0.436064 0.471466 -0.114192
C24   C     C_R   0.710742 0.503960 0.542152 -0.154950
C25   C     C_R   0.814734 0.936575 0.544748 -0.154994
C26   C     C_R   0.214666 0.019868 0.470612 -0.162968
C27   C     C_R   0.313832 0.439819 0.544017 -0.155949
C28   C     C_R   0.711336 0.515251 0.469764 -0.161761
C29   C     C_R   0.751181 0.910613 0.578319 0.002961
C30   C     C_R   0.252288 0.937042 0.427651 0.001294
C31   C     C_R   0.250718 0.412046 0.577866 0.002539
C32   C     C_R   0.752042 0.435905 0.427476 0.007512
C33   C     C_R   0.459754 0.074050 0.947769 0.144476
C34   C     C_R   0.455991 0.060659 0.021731 0.136245
C35   C     C_R   0.959779 0.574055 0.947787 0.144253
C36   C     C_R   0.956024 0.560660 0.021748 0.136761
C37   C     C_R   0.477368 0.158907 0.066975 0.022256
C38   C     C_R   0.497915 0.172719 0.921175 0.023187
C39   C     C_R   0.977412 0.658902 0.066992 0.023309
C40   C     C_R   0.997941 0.672719 0.921189 0.023107
C41   C     C_R   0.504917 0.265526 0.037723 -0.194152
C42   C     C_R   0.517224 0.270984 0.965369 -0.184565
C43   C     C_R   0.004971 0.765512 0.037740 -0.194300
C44   C     C_R   0.017269 0.770972 0.965384 -0.184642
C45   C     C_R   0.531035 0.155159 0.646682 0.538228
C46   C     C_R   0.435284 0.151101 0.360729 0.552103
C47   C     C_R   0.031099 0.655624 0.647117 0.538411
C48   C     C_R   0.960713 0.654061 0.357404 0.549011
C49   C     C_R   0.816367 0.931466 0.956894 -0.149440
C50   C     C_R   0.227871 0.033765 0.026643 -0.123351
C51   C     C_R   0.316365 0.431578 0.956909 -0.149402
C52   C     C_R   0.727860 0.533764 0.026642 -0.123301
C53   C     C_R   0.821970 0.920846 0.029392 -0.134548
C54   C     C_R   0.223648 0.013893 0.954693 -0.150704
C55   C     C_R   0.321961 0.420980 0.029407 -0.134513
C56   C     C_R   0.723636 0.513891 0.954693 -0.150727
C57   C     C_R   0.762142 0.896720 0.070572 0.028394
C58   C     C_R   0.242620 0.900085 0.927494 0.025184
C59   C     C_R   0.262136 0.396743 0.070576 0.028140
C60   C     C_R   0.742621 0.400090 0.927492 0.025225
C61   C     C_R   0.697099 0.877623 0.037878 -0.156863
C62   C     C_R   0.264062 0.804532 0.972809 -0.145731
C63   C     C_R   0.197108 0.377530 0.037866 -0.157109
C64   C     C_R   0.764078 0.304546 0.972806 -0.145764
C65   C     C_R   0.691205 0.889957 0.964811 -0.142964
C66   C     C_R   0.266656 0.823720 0.045758 -0.164888
C67   C     C_R   0.191220 0.389850 0.964797 -0.142919
C68   C     C_R   0.766672 0.323733 0.045754 -0.164576
C69   C     C_R   0.750606 0.921226 0.924537 0.020706
C70   C     C_R   0.249345 0.939185 0.072298 0.035577
C71   C     C_R   0.250614 0.421223 0.924535 0.020677
C72   C     C_R   0.749347 0.439190 0.072295 0.036106
C73   C     C_R   0.741490 0.966154 0.648234 0.558350
C74   C     C_R   0.259145 0.971132 0.353464 0.575299
C75   C     C_R   0.241398 0.466388 0.648121 0.558137
C76   C     C_R   0.759106 0.470855 0.353400 0.581437
C77   C     C_R   0.727922 0.373341 0.854183 0.535323
C78   C     C_R   0.272580 0.373161 0.145409 0.550424
C79   C     C_R   0.227921 0.873340 0.854183 0.535593
C80   C     C_R   0.772583 0.873154 0.145406 0.550099
C81   C     C_R   0.532265 0.158498 0.853056 0.552931
C82   C     C_R   0.461182 0.155152 0.142837 0.571645
C83   C     C_R   0.032271 0.658498 0.853060 0.553000
C84   C     C_R   0.961219 0.655155 0.142852 0.566565
C85   C     C_R   0.741328 0.970235 0.853908 0.539676
C86   C     C_R   0.258222 0.970915 0.145921 0.553837
C87   C     C_R   0.241330 0.470233 0.853907 0.539835
C88   C     C_R   0.758223 0.470920 0.145919 0.552416
C89   C     C_R   0.448125 0.159070 0.437326 0.009497
C90   C     C_R   0.488924 0.164428 0.581553 0.011366
C91   C     C_R   0.972079 0.659671 0.433445 0.016705
C92   C     C_R   0.993086 0.666897 0.580433 0.009593
C93   C     C_R   0.469126 0.268485 0.469945 0.004810
C94   C     C_R   0.489440 0.271019 0.540646 0.001554
C95   C     C_R   0.986917 0.770305 0.467233 0.001845
C96   C     C_R   0.998413 0.773615 0.539686 0.002332
C97   C     C_R   0.456117 0.059795 0.552633 -0.113204
C98   C     C_R   0.436323 0.057044 0.480839 -0.127604
C99   C     C_R   0.963490 0.562404 0.548889 -0.121108
C100  C     C_R   0.953721 0.558388 0.475575 -0.119261
Cr1   Cr    Cr6+3 0.771950 0.169480 0.750100 1.008349
Cr2   Cr    Cr6+3 0.228050 0.169480 0.249900 1.014691
Cr3   Cr    Cr6+3 0.271950 0.669480 0.750100 1.007660
Cr4   Cr    Cr6+3 0.728050 0.669480 0.249900 1.022001
Cr5   Cr    Cr6+3 0.614930 0.323340 0.749170 1.017457
Cr6   Cr    Cr6+3 0.385070 0.323340 0.250830 1.013166
Cr7   Cr    Cr6+3 0.114930 0.823340 0.749170 1.015427
Cr8   Cr    Cr6+3 0.885070 0.823340 0.250830 1.017149
Cr9   Cr    Cr6+3 0.616590 0.010620 0.750610 1.058805
Cr10  Cr    Cr6+3 0.383410 0.010620 0.249390 1.057431
Cr11  Cr    Cr6+3 0.116590 0.510620 0.750610 1.058679
Cr12  Cr    Cr6+3 0.883410 0.510620 0.249390 1.059813
H1    H     H_    0.451699 0.976585 0.583331 0.169383
H2    H     H_    0.416527 0.972695 0.458293 0.164294
H3    H     H_    0.954855 0.479925 0.579322 0.170010
H4    H     H_    0.934778 0.474224 0.451823 0.177537
H5    H     H_    0.862823 0.954274 0.926714 0.133093
H6    H     H_    0.215112 0.124070 0.046725 0.143694
H7    H     H_    0.362818 0.454466 0.926741 0.133097
H8    H     H_    0.715092 0.624065 0.046725 0.143548
H9    H     H_    0.873740 0.930502 0.052955 0.142764
H10   H     H_    0.205529 0.086938 0.920279 0.124155
H11   H     H_    0.373724 0.430732 0.052978 0.142755
H12   H     H_    0.705508 0.586930 0.920280 0.124172
H13   H     H_    0.651294 0.854306 0.068734 0.113208
H14   H     H_    0.276509 0.714445 0.952029 0.147904
H15   H     H_    0.151308 0.354120 0.068710 0.112900
H16   H     H_    0.776534 0.214464 0.952024 0.147920
H17   H     H_    0.639622 0.881821 0.940636 0.142498
H18   H     H_    0.283555 0.750800 0.080806 0.126984
H19   H     H_    0.139645 0.381616 0.940609 0.142459
H20   H     H_    0.783581 0.250819 0.080800 0.127195
H21   H     H_    0.023853 0.947163 0.431667 0.164111
H22   H     H_    0.109262 0.819726 0.546610 0.167325
H23   H     H_    0.503186 0.445315 0.430750 0.161902
H24   H     H_    0.600458 0.317679 0.535727 0.162133
H25   H     H_    0.565281 0.314798 0.413635 0.162949
H26   H     H_    0.538795 0.449089 0.552688 0.156663
H27   H     H_    0.088247 0.817671 0.421698 0.151571
H28   H     H_    0.046536 0.951910 0.556721 0.159100
H29   H     H_    0.656247 0.823170 0.432337 0.159221
H30   H     H_    0.316762 0.752836 0.557450 0.169026
H31   H     H_    0.155696 0.324142 0.431958 0.158460
H32   H     H_    0.820979 0.259448 0.558769 0.169108
H33   H     H_    0.869168 0.954813 0.448468 0.178963
H34   H     H_    0.182342 0.069437 0.574135 0.184166
H35   H     H_    0.367473 0.460731 0.447656 0.180589
H36   H     H_    0.676550 0.563070 0.572526 0.183698
H37   H     H_    0.860146 0.969133 0.574169 0.152954
H38   H     H_    0.185758 0.096370 0.448474 0.154937
H39   H     H_    0.359238 0.472971 0.573222 0.153658
H40   H     H_    0.680165 0.588753 0.447241 0.155643
H41   H     H_    0.519969 0.342036 0.071233 0.136897
H42   H     H_    0.545597 0.348812 0.944724 0.153052
H43   H     H_    0.020034 0.842016 0.071251 0.136440
H44   H     H_    0.045646 0.848793 0.944736 0.153094
O1    O     O_R   0.787510 0.042610 0.670410 -0.531818
O2    O     O_R   0.212490 0.042610 0.329590 -0.528995
O3    O     O_R   0.287510 0.542610 0.670410 -0.532798
O4    O     O_R   0.712490 0.542610 0.329590 -0.530142
O5    O     O_R   0.556450 0.252890 0.823790 -0.519757
O6    O     O_R   0.443550 0.252890 0.176210 -0.510048
O7    O     O_R   0.056450 0.752890 0.823790 -0.519605
O8    O     O_R   0.943550 0.752890 0.176210 -0.513744
O9    O     O_R   0.545750 0.051070 0.830560 -0.487200
O10   O     O_R   0.454250 0.051070 0.169440 -0.479205
O11   O     O_R   0.045750 0.551070 0.830560 -0.487056
O12   O     O_R   0.954250 0.551070 0.169440 -0.481881
O13   O     O_R   0.681210 0.959150 0.825320 -0.503925
O14   O     O_R   0.318790 0.959150 0.174680 -0.482030
O15   O     O_R   0.181210 0.459150 0.825320 -0.503749
O16   O     O_R   0.818790 0.459150 0.174680 -0.482618
O17   O     O_3   0.667820 0.167810 0.749960 -0.256323
O18   O     O_3   0.332180 0.167810 0.250040 -0.286780
O19   O     O_3   0.167820 0.667810 0.749960 -0.256464
O20   O     O_3   0.832180 0.667810 0.250040 -0.270707
O21   O     O_R   0.765670 0.292090 0.675090 -0.509254
O22   O     O_R   0.234330 0.292090 0.324910 -0.508804
O23   O     O_R   0.265670 0.792090 0.675090 -0.508821
O24   O     O_R   0.734330 0.792090 0.324910 -0.506636
O25   O     O_R   0.670220 0.409020 0.668560 -0.513433
O26   O     O_R   0.329780 0.409020 0.331440 -0.530462
O27   O     O_R   0.170220 0.909020 0.668560 -0.516054
O28   O     O_R   0.829780 0.909020 0.331440 -0.523913
O29   O     O_R   0.556580 0.251590 0.674980 -0.505247
O30   O     O_R   0.443420 0.251590 0.325020 -0.499415
O31   O     O_R   0.056580 0.751590 0.674980 -0.508309
O32   O     O_R   0.943420 0.751590 0.325020 -0.501019
O33   O     O_R   0.545890 0.049670 0.670030 -0.502772
O34   O     O_R   0.454110 0.049670 0.329970 -0.498244
O35   O     O_R   0.045890 0.549670 0.670030 -0.502505
O36   O     O_R   0.954110 0.549670 0.329970 -0.515490
O37   O     O_R   0.681340 0.957860 0.676500 -0.451991
O38   O     O_R   0.318660 0.957860 0.323500 -0.487841
O39   O     O_R   0.181340 0.457860 0.676500 -0.451304
O40   O     O_R   0.818660 0.457860 0.323500 -0.473967
O41   O     O_R   0.787380 0.044010 0.830940 -0.528680
O42   O     O_R   0.212620 0.044010 0.169060 -0.524376
O43   O     O_R   0.287380 0.544010 0.830940 -0.528507
O44   O     O_R   0.712620 0.544010 0.169060 -0.525356
O45   O     O_R   0.765540 0.293390 0.823910 -0.515750
O46   O     O_R   0.234460 0.293390 0.176090 -0.504620
O47   O     O_R   0.265540 0.793390 0.823910 -0.515519
O48   O     O_R   0.734460 0.793390 0.176090 -0.505909
O49   O     O_R   0.670090 0.410410 0.829090 -0.515306
O50   O     O_R   0.329910 0.410410 0.170910 -0.525899
O51   O     O_R   0.170090 0.910410 0.829090 -0.514971
O52   O     O_R   0.829910 0.910410 0.170910 -0.526171
C101  C     C_2   0.628015 0.814959 0.570079 0.575480
O53   O     O_2   0.571921 0.827069 0.538760 -0.524459
O54   O     O_R   0.630404 0.751419 0.634377 -0.698178
H45   H     H_    0.582382 0.722134 0.649869 0.327723
C102  C     C_2   0.331289 0.749839 0.416764 0.568676
O55   O     O_2   0.385604 0.705705 0.440708 -0.542833
O56   O     O_R   0.306530 0.712789 0.350051 -0.686275
H46   H     H_    0.339435 0.652803 0.325817 0.347283
C103  C     C_2   0.127708 0.315270 0.569758 0.575002
O57   O     O_2   0.071664 0.325677 0.538152 -0.527313
O58   O     O_R   0.130233 0.252549 0.634323 -0.698241
H47   H     H_    0.082353 0.222419 0.649712 0.328244
C104  C     C_2   0.835281 0.253557 0.418175 0.568627
O59   O     O_2   0.889606 0.211078 0.443113 -0.540530
O60   O     O_R   0.811704 0.214532 0.351399 -0.684891
H48   H     H_    0.845343 0.154678 0.328084 0.345972
N1    N     N_2   0.430931 0.984891 0.899759 -0.502164
H49   H     H_    0.417614 0.900355 0.919226 0.249788
C105  C     C_3   0.381772 0.031740 0.847276 -0.277438
H50   H     H_    0.363864 0.955977 0.812369 0.159666
H51   H     H_    0.406428 0.100814 0.812597 0.148942
H52   H     H_    0.336119 0.075064 0.873757 0.133677
N2    N     N_2   0.430864 0.949293 0.050741 -0.478353
H53   H     H_    0.385778 0.917987 0.027282 0.255549
C106  C     C_3   0.483885 0.854910 0.058647 -0.285957
H54   H     H_    0.460301 0.773420 0.084125 0.139853
H55   H     H_    0.527517 0.888124 0.092954 0.166149
H56   H     H_    0.505117 0.827505 0.006059 0.123969
N3    N     N_2   0.930942 0.484908 0.899779 -0.502156
H57   H     H_    0.917631 0.400366 0.919243 0.249773
C107  C     C_3   0.881766 0.531776 0.847320 -0.277350
H58   H     H_    0.863843 0.456025 0.812412 0.159716
H59   H     H_    0.906413 0.600859 0.812640 0.148945
H60   H     H_    0.836125 0.575099 0.873822 0.133644
N4    N     N_2   0.930893 0.449294 0.050755 -0.477906
H61   H     H_    0.885802 0.417995 0.027302 0.255456
C108  C     C_3   0.983911 0.354907 0.058662 -0.286188
H62   H     H_    0.960325 0.273420 0.084141 0.139641
H63   H     H_    0.027544 0.388119 0.092969 0.165506
H64   H     H_    0.005143 0.327499 0.006074 0.124050

loop_
_geom_bond_atom_site_label_1
_geom_bond_atom_site_label_2
_ccdc_geom_bond_type
C8    H28   S    
C58   C62   A    
C7    H27   S    
C14   H30   S    
Cr11  O35   S    
C93   C94   A    
C88   O16   A    
C108  H62   S    
C73   O37   A    
C34   C37   A    
C41   C42   A    
C14   C18   A    
Cr1   O17   S    
C95   C96   A    
C35   N3    S    
Cr6   O6    S    
C87   O43   A    
Cr8   O52   S    
Cr3   O3    S    
Cr2   O2    S    
C74   O38   A    
C97   C98   A    
C7    C8    S    
Cr4   O20   S    
C46   C89   S    
Cr12  O16   S    
C102  O55   D    
C56   H12   S    
C15   C19   A    
Cr8   O8    S    
C64   H16   S    
C50   C54   A    
C78   O46   A    
Cr11  O19   S    
C64   C68   A    
C42   H42   S    
Cr4   O4    S    
C39   C84   S    
C38   C42   A    
C33   N1    S    
Cr2   O42   S    
C2    O26   A    
C5    C6    S    
C30   C74   S    
Cr9   O17   S    
C98   H2    S    
C29   C73   S    
N4    H61   S    
Cr12  O12   S    
N3    C107  S    
Cr7   O31   S    
C92   C96   A    
C46   O34   A    
C3    C18   S    
C25   H37   S    
C47   C92   S    
Cr1   O41   S    
Cr5   O29   S    
C68   H20   S    
C9    C13   A    
Cr12  O40   S    
C6    H24   S    
C76   O40   A    
N1    C105  S    
C11   C15   A    
Cr6   O26   S    
C107  H58   S    
Cr9   O33   S    
C6    C94   S    
C48   C91   S    
C8    C96   S    
Cr10  O38   S    
C51   H7    S    
C40   C44   A    
Cr9   O37   S    
C23   C27   A    
C91   C100  A    
Cr3   O47   S    
C106  H54   S    
C11   C103  S    
C90   C97   A    
Cr3   O23   S    
C84   O8    A    
C9    C29   A    
Cr1   O45   S    
C102  O56   S    
C54   H10   S    
C11   C31   A    
Cr5   O17   S    
N3    H57   S    
C12   C32   A    
C47   O35   A    
Cr4   O44   S    
C40   C83   S    
C1    O21   A    
C4    O24   A    
C43   H43   S    
C59   C78   S    
C72   C88   S    
Cr9   O13   S    
C90   C94   A    
C41   H41   S    
Cr10  O18   S    
C25   C29   A    
C12   C104  S    
C63   C67   A    
C60   C77   S    
C82   O10   A    
Cr8   O28   S    
C27   C31   A    
C44   H44   S    
C12   C16   A    
C26   H38   S    
Cr6   O30   S    
O60   H48   S    
C101  O53   D    
C15   H31   S    
C10   C14   A    
C16   H32   S    
C9    C101  S    
O58   H47   S    
C62   H14   S    
C7    H21   S    
C62   C66   A    
C39   C43   A    
C82   O6    A    
C51   C55   A    
N4    C108  S    
C103  O57   D    
C23   H35   S    
C1    O25   A    
Cr10  O34   S    
C89   C93   A    
C17   C21   A    
C5    H23   S    
C3    O23   A    
Cr7   O27   S    
C68   C72   A    
C35   C36   A    
C21   H33   S    
C6    H26   S    
C19   C23   A    
C43   C44   A    
C78   O50   A    
O54   H45   S    
Cr6   O50   S    
C104  O59   D    
C52   C72   A    
C77   O49   A    
C65   H17   S    
Cr12  O36   S    
C10   C30   A    
C31   C75   S    
C105  H50   S    
C61   C65   A    
C8    H22   S    
C28   C32   A    
C16   C20   A    
C85   O41   A    
C87   O15   A    
Cr3   O19   S    
N1    H49   S    
Cr6   O18   S    
N2    C106  S    
C48   O32   A    
Cr3   O43   S    
C4    O28   A    
C74   O2    A    
C57   C61   A    
C45   C90   S    
C106  H55   S    
C34   N2    S    
Cr9   O9    S    
C58   C79   S    
C86   O42   A    
C71   C87   S    
C4    C17   S    
C52   H8    S    
Cr4   O48   S    
C45   O33   A    
Cr12  O20   S    
C57   C80   S    
C3    O27   A    
C28   H40   S    
C83   O7    A    
C79   O47   A    
C50   H6    S    
C108  H63   S    
C38   C81   S    
C24   H36   S    
Cr2   O22   S    
C49   H5    S    
C37   C82   S    
Cr7   O19   S    
Cr11  O11   S    
C97   H1    S    
C70   C86   S    
C55   H11   S    
Cr10  O14   S    
C69   C85   S    
C55   C59   A    
C54   C58   A    
C75   O3    A    
C65   C69   A    
C21   C25   A    
C76   O4    A    
C1    C20   S    
C53   C57   A    
C80   O52   A    
C2    C19   S    
C86   O14   A    
C36   N4    S    
Cr7   O51   S    
C13   H29   S    
Cr8   O32   S    
C36   C39   A    
C67   H19   S    
Cr4   O24   S    
C24   C28   A    
C27   H39   S    
C77   O45   A    
C32   C76   S    
C5    C93   S    
Cr11  O15   S    
C51   C71   A    
C10   C102  S    
Cr5   O49   S    
C73   O1    A    
Cr2   O18   S    
C7    C95   S    
C59   C63   A    
C33   C38   A    
C99   C100  A    
C13   C17   A    
C89   C98   A    
C60   C64   A    
C100  H4    S    
C88   O44   A    
C18   C22   A    
C35   C40   A    
Cr2   O46   S    
C5    H25   S    
C104  O60   S    
C105  H51   S    
C53   H9    S    
C81   O5    A    
Cr10  O10   S    
C45   O29   A    
C66   C70   A    
C83   O11   A    
C49   C53   A    
Cr8   O20   S    
C99   H3    S    
C101  O54   S    
C33   C34   A    
C107  H60   S    
C67   C71   A    
C79   O51   A    
O56   H46   S    
C37   C41   A    
C103  O58   S    
C106  H56   S    
C85   O13   A    
C50   C70   A    
C48   O36   A    
Cr1   O21   S    
C22   H34   S    
Cr1   O1    S    
C56   C60   A    
C61   H13   S    
C105  H52   S    
C84   O12   A    
C46   O30   A    
C91   C95   A    
C22   C26   A    
C108  H64   S    
N2    H53   S    
C81   O9    A    
C107  H59   S    
Cr5   O5    S    
C49   C69   A    
Cr7   O7    S    
C2    O22   A    
Cr5   O25   S    
C80   O48   A    
C47   O31   A    
C20   C24   A    
C63   H15   S    
C52   C56   A    
C92   C99   A    
Cr11  O39   S    
C66   H18   S    
C26   C30   A    
C75   O39   A    
