data_mof_unit_8308.cif
_audit_creation_date              2013-03-05T15:55:18-0500
_audit_creation_method            fapswitch 2.2
_symmetry_space_group_name_H-M    P1
_symmetry_Int_Tables_number       1
_space_group_crystal_system       triclinic
_cell_length_a                    14.711335
_cell_length_b                    14.729089
_cell_length_c                    33.060694
_cell_angle_alpha                 95.881429
_cell_angle_beta                  95.974717
_cell_angle_gamma                 61.237433
_cell_volume                      6234.4917307

loop_
_atom_site_label
_atom_site_type_symbol
_atom_site_description
_atom_site_fract_x
_atom_site_fract_y
_atom_site_fract_z
_atom_type_partial_charge
O1    O     O_R   0.679450 0.499830 0.463150 -0.504151
O2    O     O_R   0.480650 0.664000 0.464630 -0.521359
C1    C     C_R   0.390658 0.700437 0.445907 0.854366
O3    O     O_R   0.323930 0.675950 0.455370 -0.526867
O4    O     O_R   0.354700 0.475360 0.451930 -0.517164
C2    C     C_R   0.406090 0.386411 0.433860 0.942970
O5    O     O_R   0.494470 0.320860 0.448390 -0.502444
O6    O     O_R   0.662580 0.357570 0.460050 -0.500385
C3    C     C_R   0.700564 0.410332 0.447147 0.944612
O7    O     O_R   0.680900 0.502040 0.551870 -0.504577
O8    O     O_R   0.481990 0.666040 0.546870 -0.530461
C4    C     C_R   0.390624 0.706976 0.559986 0.841981
O9    O     O_R   0.325370 0.678160 0.544080 -0.536593
O10   O     O_R   0.356040 0.477400 0.534170 -0.525753
C5    C     C_R   0.405693 0.387657 0.548565 0.829353
O11   O     O_R   0.495910 0.323070 0.537100 -0.541712
O12   O     O_R   0.663920 0.359620 0.542290 -0.543665
C6    C     C_R   0.705430 0.411125 0.562004 0.859631
Cr1   Cr    Cr6+3 0.576280 0.580550 0.506370 1.077024
Cr2   Cr    Cr6+3 0.346780 0.572400 0.496520 1.054164
Cr3   Cr    Cr6+3 0.576960 0.347070 0.497150 1.064040
O13   O     O_3   0.500010 0.500010 0.500010 -0.379099
H1    H     H_    0.340911 0.190187 0.195907 0.187970
C7    C     C_R   0.372377 0.369271 0.391426 -0.257553
C8    C     C_R   0.266604 0.399957 0.380222 0.304566
C9    C     C_R   0.231438 0.404878 0.338536 -0.134384
C10   C     C_R   0.303348 0.380163 0.308735 -0.152361
C11   C     C_R   0.409114 0.344157 0.319871 0.399180
C12   C     C_R   0.443905 0.337275 0.360866 0.311825
C13   C     C_R   0.313313 0.248561 0.173625 -0.093749
C14   C     C_R   0.324761 0.217047 0.132750 0.366591
C15   C     C_R   0.244953 0.398340 0.115881 0.348379
C16   C     C_R   0.235260 0.429808 0.157944 -0.057917
C17   C     C_R   0.266569 0.353214 0.186318 -0.067212
C18   C     C_1   0.264048 0.375609 0.229479 0.157707
C19   C     C_1   0.274244 0.382822 0.265910 0.188512
C20   C     C_R   0.286666 0.291688 0.103117 -0.205579
N1    N     N_R   0.754381 0.294944 0.217443 -0.199090
N2    N     N_R   0.740168 0.306000 0.257079 -0.206786
C21   C     C_R   0.754266 0.374009 0.408591 -0.256561
C22   C     C_R   0.732200 0.445452 0.378656 0.331417
C23   C     C_R   0.759186 0.409218 0.338372 -0.129319
C24   C     C_R   0.808404 0.301422 0.327912 -0.217758
C25   C     C_R   0.840733 0.230390 0.358437 0.416487
C26   C     C_R   0.814478 0.266557 0.398779 0.354090
N3    N     N_R   0.919365 0.208307 0.271239 -0.182953
N4    N     N_R   0.933537 0.196784 0.231559 -0.201198
C27   C     C_R   0.851555 0.242106 0.204092 0.649193
C28   C     C_R   0.822551 0.265331 0.284711 0.632839
C29   C     C_R   0.922500 0.311729 0.158553 0.337125
C30   C     C_R   0.944797 0.323207 0.119945 0.368488
C31   C     C_R   0.853809 0.228491 0.088852 -0.133601
C32   C     C_R   0.831171 0.217966 0.128122 0.369315
C33   C     C_R   0.869696 0.255503 0.162825 -0.205809
C34   C     C_R   0.915348 0.277162 0.084870 -0.271169
N5    N     N_R   0.436857 0.737657 0.219900 -0.241440
N6    N     N_R   0.441857 0.724501 0.259470 -0.211444
C35   C     C_R   0.372013 0.756184 0.408135 -0.197148
C36   C     C_R   0.307946 0.744710 0.375007 -0.097652
C37   C     C_R   0.320735 0.760998 0.335161 -0.110653
C38   C     C_R   0.392424 0.795349 0.328868 -0.111316
C39   C     C_R   0.444051 0.822156 0.362283 0.402568
C40   C     C_R   0.433430 0.803682 0.402157 -0.079526
N7    N     N_R   0.372502 0.903475 0.273765 -0.198359
N8    N     N_R   0.367192 0.916647 0.234239 -0.226762
C41   C     C_R   0.398274 0.834219 0.206601 0.568202
C42   C     C_R   0.408654 0.807302 0.286994 0.620731
C43   C     C_R   0.263075 0.913952 0.153423 -0.108320
C44   C     C_R   0.225982 0.939394 0.113781 0.413092
C45   C     C_R   0.402980 0.837718 0.091411 -0.097564
C46   C     C_R   0.439588 0.809126 0.132207 -0.048118
C47   C     C_R   0.368676 0.852599 0.163272 -0.092810
C48   C     C_R   0.295656 0.906272 0.082562 -0.159968
H2    H     H_    0.208409 0.943741 0.177180 0.182359
N9    N     N_R   0.354607 0.420615 0.776884 -0.176295
N10   N     N_R   0.359099 0.419231 0.736842 -0.265763
C49   C     C_R   0.368490 0.365046 0.584686 -0.193968
C50   C     C_R   0.298580 0.447842 0.609983 -0.060133
C51   C     C_R   0.301464 0.433975 0.651233 -0.198551
C52   C     C_R   0.367102 0.338339 0.667704 -0.092144
C53   C     C_R   0.423402 0.250754 0.641395 0.381681
C54   C     C_R   0.421593 0.263529 0.599328 -0.118115
N11   N     N_R   0.380507 0.250705 0.729637 -0.179202
N12   N     N_R   0.376550 0.251764 0.769698 -0.240011
C55   C     C_R   0.363219 0.336792 0.793884 0.618124
C56   C     C_R   0.371562 0.334507 0.712377 0.580455
C57   C     C_R   0.241486 0.395593 0.848397 0.380650
C58   C     C_R   0.217146 0.380332 0.886262 -0.188261
C59   C     C_R   0.402146 0.270000 0.903430 0.420335
C60   C     C_R   0.426128 0.283059 0.864958 -0.142662
C61   C     C_R   0.344482 0.341927 0.836891 -0.177872
C62   C     C_R   0.297104 0.309732 0.912615 -0.242322
H3    H     H_    0.251226 0.499002 0.670891 0.195548
C63   C     C_R   0.767847 0.371855 0.601186 -0.244577
C64   C     C_R   0.803119 0.433589 0.626537 0.387097
C65   C     C_R   0.823224 0.419926 0.668772 -0.153499
C66   C     C_R   0.816336 0.338389 0.684779 -0.113408
C67   C     C_R   0.802043 0.264595 0.658513 0.393384
C68   C     C_R   0.779047 0.279943 0.616529 -0.192376
C69   C     C_R   0.865100 0.220809 0.823738 -0.089521
C70   C     C_R   0.895338 0.206779 0.865385 0.319930
C71   C     C_R   0.844745 0.391399 0.877003 -0.091990
C72   C     C_R   0.819355 0.404041 0.834614 -0.042020
C73   C     C_R   0.834275 0.317344 0.808130 -0.075339
C74   C     C_1   0.825836 0.325229 0.764506 0.100765
C75   C     C_1   0.821687 0.330963 0.728250 0.159857
C76   C     C_R   0.895310 0.289800 0.891487 -0.178270
H4    H     H_    0.415388 0.925996 0.809817 0.181838
C77   C     C_R   0.364065 0.776384 0.598170 -0.204913
C78   C     C_R   0.262114 0.820563 0.612033 -0.069044
C79   C     C_R   0.248165 0.843208 0.654279 -0.115566
C80   C     C_R   0.333827 0.829290 0.681285 -0.066971
C81   C     C_R   0.428469 0.807744 0.666272 0.387279
C82   C     C_R   0.442841 0.785059 0.624201 -0.158446
C83   C     C_R   0.367816 0.905825 0.826105 -0.128539
C84   C     C_R   0.363796 0.925441 0.868199 -0.072065
C85   C     C_R   0.249750 0.846936 0.868035 -0.090744
C86   C     C_R   0.258173 0.824265 0.825268 -0.062357
C87   C     C_R   0.312732 0.859993 0.804527 0.015124
C88   C     C_1   0.318240 0.847352 0.760989 0.079060
C89   C     C_1   0.324440 0.839303 0.724703 0.120931
C90   C     C_R   0.296085 0.905428 0.889175 -0.156978
O14   O     O_R   0.170070 0.978950 0.027680 -0.502633
O15   O     O_R   0.001760 0.175230 0.026640 -0.523678
C91   C     C_R   0.964992 0.263647 0.046312 0.922351
O16   O     O_R   0.984760 0.333570 0.037150 -0.500247
O17   O     O_R   0.183410 0.309240 0.041890 -0.501494
C92   C     C_R   0.272475 0.259239 0.060216 0.931951
O18   O     O_R   0.340240 0.172500 0.045430 -0.502936
O19   O     O_R   0.309670 0.000990 0.032050 -0.521613
C93   C     C_R   0.258900 0.959962 0.044070 0.895301
O20   O     O_R   0.168330 0.982130 0.939200 -0.517637
O21   O     O_R   0.000140 0.178170 0.944610 -0.500794
C94   C     C_R   0.959117 0.268706 0.931214 0.864121
O22   O     O_R   0.983010 0.336750 0.948660 -0.546932
O23   O     O_R   0.181800 0.312190 0.959860 -0.538925
C95   C     C_R   0.272211 0.265684 0.945940 0.857665
O24   O     O_R   0.338500 0.175680 0.956950 -0.509343
O25   O     O_R   0.308050 0.003930 0.950020 -0.530778
C96   C     C_R   0.257988 0.962440 0.929218 0.822577
Cr4   Cr    Cr6+3 0.087320 0.083240 0.984860 1.090270
Cr5   Cr    Cr6+3 0.087720 0.316210 0.996740 1.067451
Cr6   Cr    Cr6+3 0.317350 0.090340 0.995890 1.068898
O26   O     O_3   0.164130 0.163270 0.992500 -0.380301
Cl1   Cl    Cl    0.381318 0.082273 0.120911 -0.577205
Cl2   Cl    Cl    0.855721 0.176007 0.436799 -0.436062
Cl3   Cl    Cl    0.016126 0.390717 0.117280 -0.519338
C97   C     C_2   0.736711 0.484197 0.307011 0.957650
O27   O     O_2   0.649222 0.556747 0.301783 -0.492711
O28   O     O_R   0.815723 0.470312 0.282993 -0.631827
H5    H     H_    0.791030 0.525635 0.262575 0.336655
Cl4   Cl    Cl    0.907789 0.095427 0.345768 -0.405485
Cl5   Cl    Cl    0.960982 0.369647 0.201967 -0.513356
C98   C     C_2   0.813743 0.188544 0.052050 0.949668
O29   O     O_2   0.776749 0.240930 0.022337 -0.532359
O30   O     O_R   0.819859 0.090629 0.050999 -0.581047
H6    H     H_    0.790536 0.072307 0.024188 0.342057
Cl6   Cl    Cl    0.754506 0.158119 0.134396 -0.449631
C99   C     C_2   0.222936 0.722476 0.382066 0.905427
O31   O     O_2   0.148981 0.787345 0.400706 -0.481048
O32   O     O_R   0.227842 0.627723 0.367960 -0.643788
H7    H     H_    0.164173 0.623245 0.374231 0.328447
C100  C     C_2   0.484070 0.836265 0.437767 0.922812
O33   O     O_2   0.435994 0.878692 0.468195 -0.533081
O34   O     O_R   0.586612 0.817214 0.436954 -0.573736
H8    H     H_    0.611869 0.842522 0.463164 0.334088
Cl7   Cl    Cl    0.091446 0.021884 0.106228 -0.597027
C101  C     C_2   0.255959 0.746786 0.299935 0.851939
O35   O     O_2   0.256597 0.663447 0.292627 -0.511798
O36   O     O_R   0.196574 0.828358 0.274550 -0.632166
H9    H     H_    0.157313 0.808988 0.251282 0.323613
Cl8   Cl    Cl    0.522346 0.878574 0.353587 -0.453459
C102  C     C_2   0.476562 0.800524 0.058408 0.879075
O37   O     O_2   0.453045 0.771079 0.024971 -0.535690
O38   O     O_R   0.571795 0.800891 0.065345 -0.611148
H10   H     H_    0.614554 0.774358 0.040507 0.329786
C103  C     C_2   0.550376 0.735165 0.142572 0.892149
O39   O     O_2   0.595442 0.655155 0.121353 -0.519160
O40   O     O_R   0.602829 0.756419 0.176851 -0.620314
H11   H     H_    0.677400 0.699837 0.180855 0.339876
C104  C     C_2   0.221210 0.549908 0.594771 0.876672
O41   O     O_2   0.203970 0.629505 0.615499 -0.530727
O42   O     O_R   0.164672 0.554862 0.557581 -0.609729
H12   H     H_    0.113867 0.628778 0.550689 0.330414
C105  C     C_2   0.471046 0.171946 0.569986 0.942778
O43   O     O_2   0.554047 0.097018 0.579085 -0.464186
O44   O     O_R   0.422215 0.172747 0.531281 -0.640115
H13   H     H_    0.462942 0.107059 0.513814 0.329369
C106  C     C_2   0.107561 0.437114 0.897138 0.950975
O45   O     O_2   0.041177 0.424026 0.875914 -0.516454
O46   O     O_R   0.080439 0.506440 0.931466 -0.618583
H14   H     H_    0.003525 0.540346 0.935924 0.335943
Cl9   Cl    Cl    0.498081 0.126442 0.661052 -0.440468
Cl10  Cl    Cl    0.499565 0.308906 0.281998 -0.471846
Cl11  Cl    Cl    0.141521 0.478711 0.814073 -0.453811
Cl12  Cl    Cl    0.504034 0.209843 0.941177 -0.503047
C107  C     C_2   0.535997 0.233897 0.853689 0.921174
O47   O     O_2   0.564960 0.281688 0.834893 -0.532566
O48   O     O_R   0.605992 0.132630 0.864042 -0.587499
H15   H     H_    0.678032 0.108148 0.854606 0.345550
Cl13  Cl    Cl    0.926876 0.085640 0.884183 -0.513622
C108  C     C_2   0.866485 0.134029 0.796206 0.925349
O49   O     O_2   0.945792 0.050517 0.794136 -0.490560
O50   O     O_R   0.776331 0.148333 0.772791 -0.616112
H16   H     H_    0.785558 0.083023 0.756161 0.359895
Cl14  Cl    Cl    0.815419 0.151401 0.678552 -0.511275
C109  C     C_2   0.771362 0.197687 0.588784 0.942174
O51   O     O_2   0.715717 0.161843 0.596251 -0.487546
O52   O     O_R   0.827555 0.162019 0.553771 -0.623955
H17   H     H_    0.815663 0.106558 0.537057 0.330148
Cl15  Cl    Cl    0.835324 0.518587 0.604779 -0.515622
C110  C     C_2   0.776467 0.506845 0.817241 0.881493
O53   O     O_2   0.828005 0.552357 0.819945 -0.458150
O54   O     O_R   0.679191 0.548679 0.795938 -0.654226
H18   H     H_    0.659142 0.617817 0.784679 0.326940
C111  C     C_2   0.809788 0.483155 0.906857 0.851490
O55   O     O_2   0.815452 0.560289 0.900181 -0.509566
O56   O     O_R   0.769917 0.480475 0.943075 -0.636417
H19   H     H_    0.749046 0.546492 0.961134 0.325332
Cl16  Cl    Cl    0.577719 0.293949 0.372786 -0.528667
C112  C     C_2   0.849678 0.491833 0.696105 0.914877
O57   O     O_2   0.918297 0.457909 0.723328 -0.516537
O58   O     O_R   0.795435 0.598496 0.690930 -0.585045
H20   H     H_    0.820044 0.639245 0.711503 0.352838
C113  C     C_2   0.431976 0.966926 0.888580 0.863215
O59   O     O_2   0.436228 0.037878 0.874122 -0.535261
O60   O     O_R   0.495523 0.921195 0.923050 -0.621766
H21   H     H_    0.539211 0.955655 0.933908 0.342723
Cl17  Cl    Cl    0.526876 0.812867 0.700749 -0.518519
C114  C     C_2   0.534924 0.779779 0.607114 0.953920
O61   O     O_2   0.523791 0.823001 0.575883 -0.514866
O62   O     O_R   0.633449 0.728233 0.626846 -0.581823
H22   H     H_    0.687852 0.735706 0.613159 0.365840
C115  C     C_2   0.170777 0.852038 0.581826 0.880494
O63   O     O_2   0.172074 0.886288 0.549822 -0.511862
O64   O     O_R   0.083709 0.843495 0.589583 -0.620419
H23   H     H_    0.027698 0.867738 0.566556 0.327003
C116  C     C_2   0.213072 0.761436 0.802315 0.883468
O65   O     O_2   0.229376 0.679477 0.815039 -0.502812
O66   O     O_R   0.153090 0.795419 0.765927 -0.632684
H24   H     H_    0.127426 0.745703 0.753088 0.338888
C117  C     C_2   0.192657 0.810129 0.890727 0.921139
O67   O     O_2   0.107795 0.820347 0.877284 -0.479081
O68   O     O_R   0.235912 0.765039 0.927921 -0.636496
H25   H     H_    0.189810 0.743735 0.940681 0.334643
C118  C     C_2   0.144646 0.884220 0.670678 0.917053
O69   O     O_2   0.100633 0.973509 0.685191 -0.510524
O70   O     O_R   0.099551 0.819694 0.670847 -0.598010
H26   H     H_    0.029356 0.856380 0.683109 0.349282
Cl18  Cl    Cl    0.177988 0.436631 0.418740 -0.498783
C119  C     C_2   0.192009 0.541104 0.172274 0.931226
O71   O     O_2   0.215492 0.597974 0.156577 -0.496358
O72   O     O_R   0.125552 0.580610 0.204288 -0.618408
H27   H     H_    0.102356 0.656825 0.211610 0.330054
Cl19  Cl    Cl    0.200925 0.491991 0.078883 -0.475604
C120  C     C_2   0.120326 0.437446 0.326099 0.937483
O73   O     O_2   0.072758 0.404767 0.343025 -0.480434
O74   O     O_R   0.070343 0.504610 0.294590 -0.624321
H28   H     H_    0.995363 0.520219 0.288686 0.352598
Cl20  Cl    Cl    0.669315 0.581309 0.390534 -0.513763

loop_
_geom_bond_atom_site_label_1
_geom_bond_atom_site_label_2
_geom_bond_distance
_ccdc_geom_bond_type
C70   C76   1.422414 A    
C57   C58   1.405093 A    
C48   C93   1.479437 S    
N9    N10   1.329904 A    
O11   Cr3   2.029844 S    
C57   C61   1.403962 A    
C64   C65   1.411373 A    
C22   C23   1.405941 A    
C100  O33   1.223382 D    
C69   C70   1.406685 A    
O20   Cr4   2.030437 S    
C23   C97   1.488564 S    
C92   O18   1.269949 A    
C66   C67   1.402912 A    
C55   C61   1.463844 S    
O56   H19   1.013956 S    
C119  O71   1.222789 D    
C60   C107  1.489748 S    
C5    C49   1.493157 S    
C49   C50   1.416837 A    
O70   H26   1.013894 S    
N8    C41   1.357702 A    
C40   C100  1.488967 S    
C4    O9    1.272604 A    
N3    C28   1.355187 A    
O8    Cr1   1.913817 S    
C9    C10   1.412538 A    
C25   Cl4   1.768729 S    
C108  O50   1.397664 S    
C81   Cl17  1.773332 S    
C115  O64   1.397270 S    
C49   C54   1.423334 A    
H4    C83   1.085991 S    
O30   H6    1.013907 S    
C100  O34   1.398083 S    
C111  O56   1.399113 S    
C51   H3    1.084960 S    
C76   C94   1.499679 S    
O24   Cr6   2.031149 S    
O72   H27   1.013937 S    
C105  O44   1.398978 S    
O36   H9    1.013841 S    
C29   Cl5   1.775683 S    
C31   C98   1.487174 S    
Cr6   O26   1.972103 S    
C67   C68   1.408966 A    
C78   C115  1.494583 S    
C69   C73   1.405259 A    
O68   H25   1.013869 S    
C107  O48   1.398366 S    
C17   C18   1.431449 S    
N3    N4    1.330621 A    
C16   C119  1.488743 S    
O60   H21   1.013968 S    
C7    C12   1.413043 A    
C73   C74   1.446397 S    
C52   C56   1.477192 S    
C86   C87   1.409383 A    
C36   C99   1.482008 S    
N9    C55   1.353919 A    
C12   Cl16  1.766055 S    
C41   C47   1.466662 S    
C105  O43   1.222360 D    
C34   C91   1.483207 S    
O6    C3    1.278152 A    
C103  O40   1.398397 S    
C120  O74   1.398641 S    
O12   C6    1.278609 A    
N4    C27   1.358753 A    
C11   Cl10  1.776726 S    
C99   O32   1.395403 S    
C7    C8    1.414322 A    
C44   C48   1.410572 A    
C45   C46   1.425995 A    
C21   C26   1.414265 A    
N1    C27   1.354413 A    
O9    Cr2   2.031518 S    
C31   C34   1.421134 A    
C20   C92   1.476192 S    
C85   C117  1.488256 S    
C86   C116  1.488174 S    
C102  O38   1.398425 S    
C91   O16   1.267894 A    
C36   C37   1.409991 A    
C102  O37   1.223247 D    
Cr3   O13   1.972173 S    
C65   C66   1.411073 A    
O50   H16   1.013674 S    
C80   C81   1.404256 A    
C107  O47   1.223348 D    
O25   Cr6   1.914983 S    
N6    C42   1.358613 A    
C62   C95   1.492654 S    
C4    C77   1.498399 S    
C53   C54   1.418253 A    
C118  O70   1.397158 S    
C104  O42   1.398572 S    
C58   C106  1.479607 S    
C116  O66   1.397789 S    
O1    Cr1   2.031159 S    
C108  O49   1.223600 D    
C13   C17   1.390118 A    
C54   C105  1.491407 S    
C71   C72   1.419738 A    
H1    C13   1.085506 S    
C58   C62   1.421001 A    
C71   C76   1.422491 A    
Cr1   O13   1.972601 S    
N1    N2    1.329630 A    
C111  O55   1.221764 D    
O58   H20   1.013960 S    
O52   H17   1.013983 S    
O64   H23   1.013895 S    
C116  O65   1.223179 D    
Cr4   O26   1.972703 S    
C78   C79   1.415071 A    
O4    Cr2   1.916606 S    
O54   H18   1.014059 S    
C43   C44   1.382334 A    
C29   C30   1.396468 A    
C35   C36   1.420172 A    
C104  O41   1.222212 D    
C59   Cl12  1.774344 S    
C67   Cl14  1.772229 S    
O16   Cr5   2.030522 S    
C3    C21   1.482666 S    
O12   Cr3   1.916116 S    
C1    O3    1.272557 A    
C109  O51   1.222510 D    
C68   C109  1.484762 S    
C37   C38   1.411508 A    
C59   C62   1.419026 A    
O17   Cr5   1.917093 S    
O3    Cr2   2.031425 S    
C22   Cl20  1.774067 S    
C27   C33   1.467392 S    
C85   C90   1.427549 A    
C44   Cl7   1.760939 S    
O42   H12   1.013963 S    
C39   C40   1.411948 A    
O10   Cr2   1.914174 S    
C112  O57   1.223245 D    
C8    Cl18  1.771979 S    
C38   C42   1.470953 S    
C117  O68   1.398503 S    
C99   O31   1.222642 D    
O10   C5    1.278538 A    
C30   Cl3   1.771721 S    
O7    Cr1   2.032377 S    
C43   C47   1.392856 A    
C2    C7    1.476794 S    
C120  O73   1.222852 D    
O14   Cr4   2.032965 S    
C45   C48   1.424133 A    
O6    Cr3   1.913865 S    
C32   Cl6   1.770608 S    
O1    C3    1.269388 A    
C106  O45   1.222324 D    
C37   C101  1.489691 S    
C15   C20   1.418693 A    
N12   C55   1.355478 A    
C87   C88   1.438025 S    
C114  O62   1.395882 S    
O19   Cr6   1.915085 S    
C98   O29   1.223308 D    
C2    O5    1.269006 A    
O40   H11   1.013949 S    
C84   C90   1.424197 A    
C77   C82   1.418580 A    
C66   C75   1.443621 S    
C71   C111  1.492849 S    
C101  O35   1.222228 D    
N2    C28   1.358391 A    
Cr2   O13   1.972224 S    
C65   C112  1.489009 S    
C63   C64   1.416275 A    
C83   C87   1.388798 A    
C24   C25   1.406002 A    
C114  O61   1.223663 D    
O21   C94   1.276530 A    
C6    C63   1.500195 S    
Cr5   O26   1.972037 S    
O15   Cr4   1.914478 S    
N11   N12   1.329933 A    
C23   C24   1.413518 A    
O17   C92   1.274273 A    
C11   C12   1.393866 A    
N10   C56   1.359753 A    
C10   C11   1.401595 A    
C31   C32   1.414734 A    
O22   Cr5   2.032595 S    
C83   C84   1.393533 A    
C81   C82   1.410300 A    
C74   C75   1.203421 T    
C35   C40   1.420796 A    
N5    N6    1.331358 A    
C118  O69   1.222677 D    
C21   C22   1.417711 A    
C79   C80   1.407829 A    
O14   C93   1.269444 A    
O2    Cr1   1.916664 S    
C50   C51   1.392852 A    
C98   O30   1.398125 S    
C24   C28   1.471598 S    
C25   C26   1.405486 A    
C97   O28   1.397703 S    
C52   C53   1.413680 A    
C90   C96   1.498528 S    
C72   C110  1.484668 S    
C82   C114  1.486337 S    
O25   C96   1.276868 A    
C32   C33   1.406898 A    
C94   O22   1.280237 A    
O18   Cr6   2.032605 S    
C10   C19   1.434707 S    
O20   C96   1.278913 A    
C39   Cl8   1.771697 S    
C95   O24   1.273494 A    
N7    C42   1.354340 A    
O21   Cr4   1.915968 S    
C26   Cl2   1.770028 S    
O28   H5    1.014126 S    
C84   C113  1.482631 S    
C50   C104  1.482401 S    
C64   Cl15  1.770784 S    
C15   C16   1.419392 A    
C46   C103  1.487312 S    
O19   C93   1.275265 A    
C8    C9    1.417093 A    
C69   C108  1.484263 S    
C80   C89   1.442062 S    
C29   C33   1.405396 A    
O38   H10   1.013867 S    
C9    C120  1.488969 S    
C77   C78   1.423275 A    
N7    N8    1.329476 A    
O5    Cr3   2.033825 S    
C13   C14   1.383322 A    
C60   C61   1.409304 A    
O4    C2    1.274880 A    
O32   H7    1.013573 S    
C63   C68   1.423310 A    
O7    C6    1.279600 A    
C79   C118  1.482398 S    
N5    C41   1.355598 A    
C117  O67   1.223173 D    
C15   Cl19  1.771824 S    
C101  O36   1.398196 S    
O66   H24   1.013874 S    
C113  O60   1.398516 S    
C16   C17   1.411291 A    
O2    C1    1.279699 A    
C30   C34   1.417497 A    
C97   O27   1.223221 D    
O23   Cr5   1.913991 S    
C38   C39   1.406315 A    
O46   H14   1.013538 S    
C45   C102  1.488305 S    
C119  O72   1.398709 S    
C110  O54   1.397906 S    
C53   Cl9   1.772350 S    
C51   C52   1.397118 A    
C14   Cl1   1.762151 S    
C1    C35   1.493638 S    
C14   C20   1.412822 A    
O34   H8    1.013878 S    
O48   H15   1.014160 S    
N11   C56   1.356072 A    
C46   C47   1.413672 A    
C110  O53   1.222672 D    
O44   H13   1.013998 S    
C112  O58   1.398011 S    
C103  O39   1.223100 D    
C115  O63   1.223619 D    
O74   H28   1.013905 S    
C72   C73   1.409471 A    
C109  O52   1.398548 S    
C88   C89   1.201961 T    
O23   C95   1.279103 A    
C70   Cl13  1.776412 S    
C18   C19   1.198334 T    
C57   Cl11  1.775909 S    
C106  O46   1.398067 S    
C59   C60   1.410001 A    
C85   C86   1.423330 A    
C43   H2    1.085101 S    
C5    O11   1.275114 A    
O8    C4    1.282989 A    
O62   H22   1.013819 S    
O15   C91   1.277997 A    
C113  O59   1.223124 D    
