data_mof_unit_28065.cif
_audit_creation_date              2013-03-05T16:04:01-0500
_audit_creation_method            fapswitch 2.2
_symmetry_space_group_name_H-M    P1
_symmetry_Int_Tables_number       1
_space_group_crystal_system       triclinic
_cell_length_a                    25.728906
_cell_length_b                    7.274679
_cell_length_c                    23.248932
_cell_angle_alpha                 89.999747
_cell_angle_beta                  104.232787
_cell_angle_gamma                 89.99839
_cell_volume                      4217.92188566

loop_
_atom_site_label
_atom_site_type_symbol
_atom_site_description
_atom_site_fract_x
_atom_site_fract_y
_atom_site_fract_z
_atom_type_partial_charge
O1    O     O_R   0.438720 0.630760 0.439780 -0.567623
O2    O     O_R   0.061280 0.869240 0.060220 -0.590900
O3    O     O_R   0.561280 0.130760 0.560220 -0.590752
O4    O     O_R   0.938720 0.369240 0.939780 -0.567595
O5    O     O_R   0.546380 0.956770 0.446270 -0.551570
O6    O     O_R   0.953620 0.543230 0.053730 -0.537483
O7    O     O_R   0.453620 0.456770 0.553730 -0.537437
O8    O     O_R   0.046380 0.043230 0.946270 -0.551733
C1    C     C_R   0.561360 0.791832 0.433427 1.031494
C2    C     C_R   0.938761 0.708167 0.066758 1.032140
C3    C     C_R   0.438758 0.291836 0.566756 1.032042
C4    C     C_R   0.061366 0.208163 0.933434 1.031338
O9    O     O_R   0.438210 0.960230 0.432810 -0.567722
O10   O     O_R   0.061790 0.539770 0.067190 -0.561160
O11   O     O_R   0.561790 0.460230 0.567190 -0.561327
O12   O     O_R   0.938210 0.039770 0.932810 -0.567713
O13   O     O_R   0.452340 0.134240 0.546660 -0.604818
O14   O     O_R   0.047660 0.365760 0.953340 -0.588365
O15   O     O_R   0.547660 0.634240 0.453340 -0.588542
O16   O     O_R   0.952340 0.865760 0.046660 -0.604829
C5    C     C_R   0.417937 0.791613 0.417702 1.039188
C6    C     C_R   0.081002 0.708274 0.082876 1.022769
C7    C     C_R   0.581002 0.291722 0.582874 1.022675
C8    C     C_R   0.917937 0.208393 0.917701 1.039185
O17   O     O_3   0.504760 0.798440 0.537370 -0.286556
O18   O     O_3   0.995240 0.701560 0.962630 -0.271238
O19   O     O_3   0.495240 0.298440 0.462630 -0.271267
O20   O     O_3   0.004760 0.201560 0.037370 -0.286606
V1    V     V_3+5 0.499120 0.071860 0.493070 1.300697
V2    V     V_3+5 0.000880 0.428140 0.006930 1.317729
V3    V     V_3+5 0.500880 0.571860 0.506930 1.317639
V4    V     V_3+5 0.999120 0.928140 0.993070 1.300576
C9    C     C_R   0.728657 0.243260 0.662756 0.239420
C10   C     C_R   0.786648 0.389767 0.816542 0.249446
C11   C     C_R   0.286596 0.610402 0.316606 0.249537
C12   C     C_R   0.228676 0.756094 0.162767 0.239501
C13   C     C_R   0.680945 0.252095 0.616665 0.241380
C14   C     C_R   0.831759 0.373170 0.865496 0.250334
C15   C     C_R   0.331723 0.626969 0.365546 0.250276
C16   C     C_R   0.180970 0.747232 0.116671 0.241222
C17   C     C_R   0.631069 0.281339 0.630341 -0.304869
C18   C     C_R   0.867134 0.220667 0.869722 -0.343975
C19   C     C_R   0.367129 0.779361 0.369729 -0.343927
C20   C     C_R   0.131066 0.718649 0.130349 -0.304791
C21   C     C_R   0.628822 0.293567 0.689695 -0.134673
C22   C     C_R   0.854567 0.082659 0.826246 -0.033072
C23   C     C_R   0.354587 0.917277 0.326217 -0.033233
C24   C     C_R   0.128793 0.707097 0.189707 -0.134488
C25   C     C_R   0.675485 0.279874 0.735295 -0.030671
C26   C     C_R   0.809003 0.096185 0.779016 -0.037190
C27   C     C_R   0.309023 0.903740 0.278985 -0.037314
C28   C     C_R   0.175458 0.720772 0.235310 -0.030682
C29   C     C_R   0.725867 0.257904 0.722758 -0.018742
C30   C     C_R   0.774931 0.249518 0.773079 -0.046315
C31   C     C_R   0.274916 0.750523 0.273098 -0.046232
C32   C     C_R   0.225858 0.742119 0.222773 -0.018904
C33   C     C_R   0.348472 0.224999 0.581271 -0.091238
C34   C     C_R   0.152730 0.253609 0.919804 -0.061996
C35   C     C_R   0.652699 0.745868 0.419788 -0.061944
C36   C     C_R   0.848479 0.774971 0.081287 -0.091371
C37   C     C_R   0.311063 0.217937 0.615864 -0.070635
C38   C     C_R   0.190029 0.260396 0.885132 -0.034260
C39   C     C_R   0.690011 0.739115 0.385132 -0.034340
C40   C     C_R   0.811079 0.782047 0.115890 -0.070663
C41   C     C_R   0.325784 0.267623 0.675999 0.126196
C42   C     C_R   0.173886 0.228847 0.823874 0.112538
C43   C     C_R   0.673909 0.771165 0.323898 0.112581
C44   C     C_R   0.825812 0.732407 0.176028 0.126232
C45   C     C_R   0.379137 0.318938 0.701299 -0.101479
C46   C     C_R   0.119494 0.195806 0.797547 -0.112175
C47   C     C_R   0.619538 0.804647 0.297576 -0.112208
C48   C     C_R   0.879170 0.681129 0.201323 -0.101460
C49   C     C_R   0.416996 0.330477 0.666814 0.324436
C50   C     C_R   0.081267 0.188045 0.831773 0.325471
C51   C     C_R   0.581295 0.812402 0.331782 0.325409
C52   C     C_R   0.917024 0.669589 0.166831 0.324360
C53   C     C_R   0.401262 0.283801 0.605731 -0.289827
C54   C     C_R   0.098471 0.215987 0.894084 -0.299399
C55   C     C_R   0.598467 0.783990 0.394079 -0.299434
C56   C     C_R   0.901275 0.716210 0.105743 -0.289843
C57   C     C_R   0.278423 0.413373 0.748792 0.383730
C58   C     C_R   0.220577 0.083442 0.750674 0.389692
C59   C     C_R   0.720630 0.916616 0.250730 0.389669
C60   C     C_R   0.778459 0.586654 0.248823 0.383796
C61   C     C_R   0.243183 0.394937 0.786062 -0.211435
C62   C     C_R   0.256110 0.101436 0.713700 -0.218503
C63   C     C_R   0.756158 0.898621 0.213751 -0.218490
C64   C     C_R   0.743217 0.605080 0.286091 -0.211460
C65   C     C_R   0.213680 0.233183 0.787046 -0.118101
C66   C     C_R   0.285737 0.263143 0.712727 -0.113701
C67   C     C_R   0.785774 0.736895 0.212764 -0.113789
C68   C     C_R   0.713718 0.766846 0.287085 -0.118000
N1    N     N_R   0.779790 0.231286 0.648416 0.249640
O21   O     O_R   0.817781 0.347048 0.671400 -0.312083
O22   O     O_R   0.788896 0.103599 0.612975 -0.282495
N2    N     N_R   0.752965 0.549688 0.811085 0.247374
O23   O     O_R   0.741537 0.643727 0.761966 -0.373461
O24   O     O_R   0.733245 0.601068 0.854978 -0.321597
N3    N     N_R   0.252856 0.450647 0.311213 0.247470
O25   O     O_R   0.233140 0.399555 0.355137 -0.321423
O26   O     O_R   0.241382 0.356452 0.262127 -0.373327
N4    N     N_R   0.279824 0.767416 0.148443 0.249688
O27   O     O_R   0.289009 0.894577 0.112873 -0.282450
O28   O     O_R   0.317751 0.651579 0.171567 -0.312328
H1    H     H_    0.237054 0.510593 0.812991 0.221244
H2    H     H_    0.262158 0.985681 0.686802 0.219316
H3    H     H_    0.762211 0.014390 0.186862 0.219334
H4    H     H_    0.737082 0.489405 0.313009 0.221256
N5    N     N_R   0.683356 0.239071 0.555886 0.254009
O29   O     O_R   0.670108 0.379806 0.520846 -0.397295
O30   O     O_R   0.689298 0.079189 0.533293 -0.346658
N6    N     N_R   0.840722 0.510168 0.911285 0.258510
O31   O     O_R   0.840624 0.464185 0.965341 -0.396574
O32   O     O_R   0.846846 0.681829 0.898698 -0.378375
N7    N     N_R   0.340674 0.490043 0.411358 0.258473
O33   O     O_R   0.340627 0.536154 0.465417 -0.396522
O34   O     O_R   0.346734 0.318322 0.398790 -0.378294
N8    N     N_R   0.183407 0.759607 0.055890 0.253967
O35   O     O_R   0.170070 0.618656 0.020966 -0.397483
O36   O     O_R   0.189450 0.919206 0.033168 -0.346500
H5    H     H_    0.590702 0.311539 0.700843 0.198160
H6    H     H_    0.880509 0.964394 0.828244 0.202057
H7    H     H_    0.380552 0.035463 0.328186 0.201991
H8    H     H_    0.090655 0.689646 0.200856 0.198040
H9    H     H_    0.672309 0.287427 0.780837 0.170943
H10   H     H_    0.800312 0.986134 0.746689 0.187383
H11   H     H_    0.300359 0.013689 0.246618 0.187195
H12   H     H_    0.172269 0.713700 0.280855 0.170928
H13   H     H_    0.335937 0.187089 0.534836 0.178368
H14   H     H_    0.166391 0.275731 0.967202 0.189955
H15   H     H_    0.666332 0.723337 0.467169 0.189953
H16   H     H_    0.835934 0.812844 0.034850 0.178366
H17   H     H_    0.270324 0.175884 0.595441 0.152758
H18   H     H_    0.231742 0.287671 0.906257 0.161176
H19   H     H_    0.731702 0.711471 0.406255 0.161168
H20   H     H_    0.770335 0.824074 0.095472 0.152742
H21   H     H_    0.391112 0.353170 0.748052 0.173942
H22   H     H_    0.106991 0.174403 0.750026 0.176260
H23   H     H_    0.607064 0.826387 0.250069 0.176284
H24   H     H_    0.891152 0.646932 0.248079 0.173956
N9    N     N_R   0.471048 0.384286 0.695101 0.218063
O37   O     O_R   0.496779 0.499773 0.669552 -0.401688
O38   O     O_R   0.491913 0.338656 0.750060 -0.353927
N10   N     N_R   0.025771 0.156765 0.802106 0.237627
O39   O     O_R   0.993251 0.076296 0.828974 -0.414962
O40   O     O_R   0.008320 0.196297 0.746065 -0.311283
N11   N     N_R   0.525818 0.844096 0.302101 0.237694
O41   O     O_R   0.493268 0.924043 0.329045 -0.415087
O42   O     O_R   0.508404 0.805348 0.245997 -0.311346
N12   N     N_R   0.971085 0.615851 0.195117 0.218072
O43   O     O_R   0.996847 0.500510 0.169553 -0.401732
O44   O     O_R   0.991938 0.661435 0.250082 -0.353891
N13   N     N_R   0.304389 0.587487 0.746332 0.240294
O45   O     O_R   0.315383 0.694592 0.792585 -0.353743
O46   O     O_R   0.310888 0.650137 0.696137 -0.388638
N14   N     N_R   0.193543 0.910760 0.752151 0.242710
O47   O     O_R   0.184822 0.849416 0.801518 -0.377653
O48   O     O_R   0.183220 0.803932 0.705823 -0.355507
N15   N     N_R   0.693620 0.089333 0.252234 0.242660
O49   O     O_R   0.683282 0.196185 0.205912 -0.355595
O50   O     O_R   0.684943 0.150683 0.301622 -0.377673
N16   N     N_R   0.804425 0.412539 0.246359 0.240306
O51   O     O_R   0.810929 0.349906 0.196163 -0.388680
O52   O     O_R   0.815422 0.305424 0.292610 -0.353694

loop_
_geom_bond_atom_site_label_1
_geom_bond_atom_site_label_2
_geom_bond_distance
_ccdc_geom_bond_type
C34   C38   1.397705 A    
C59   C63   1.406524 A    
C31   C32   1.496549 S    
C40   H20   1.083054 S    
O1    C5    1.335534 A    
N1    O21   1.301304 A    
C63   C67   1.404945 A    
O19   V1    1.786874 S    
C8    C18   1.497942 S    
C33   H13   1.083656 S    
O3    C7    1.332152 A    
N11   O41   1.299981 A    
C48   C52   1.408089 A    
O4    V2    1.987694 S    
O15   V3    1.986019 S    
C36   H16   1.083658 S    
N6    O32   1.301002 A    
C28   H12   1.083187 S    
C37   H17   1.083054 S    
C49   N9    1.438780 S    
C29   C30   1.496580 S    
O7    C3    1.317006 A    
C59   C68   1.416683 A    
C35   H15   1.083196 S    
C26   C30   1.404349 A    
C58   C65   1.416668 A    
C40   C44   1.402951 A    
C12   N4    1.437010 S    
N14   O47   1.301330 A    
N11   O42   1.301615 A    
C10   N2    1.437523 S    
C16   N8    1.432640 S    
C14   C18   1.422955 A    
N9    O38   1.301422 A    
C18   C22   1.404797 A    
O4    C8    1.335529 A    
C61   H1    1.083180 S    
N7    O33   1.301093 A    
O1    V3    1.987675 S    
C44   C67   1.491417 S    
C57   N13   1.439712 S    
O2    V4    1.987674 S    
C1    C55   1.476835 S    
C33   C37   1.398743 A    
O3    V1    1.987697 S    
N8    O35   1.300531 A    
C3    C53   1.478188 S    
N5    O30   1.300592 A    
C5    C19   1.497952 S    
N9    O37   1.300110 A    
C1    O15   1.316492 A    
C6    C20   1.477828 S    
N3    O25   1.301162 A    
C2    O16   1.317197 A    
N7    O34   1.301006 A    
N2    O24   1.301187 A    
C46   C50   1.410138 A    
N15   O50   1.301334 A    
C45   C49   1.408085 A    
C26   H10   1.083132 S    
C60   C67   1.417876 A    
C52   N12   1.438798 S    
N13   O46   1.301354 A    
C16   C20   1.411979 A    
C13   N5    1.432703 S    
C44   C48   1.404508 A    
C58   N14   1.440417 S    
O11   C7    1.338403 A    
O12   C8    1.345384 A    
C9    C29   1.418356 A    
C62   H2    1.082683 S    
O10   V2    1.999662 S    
C11   N3    1.437529 S    
N6    O31   1.301085 A    
C42   C65   1.487763 S    
N16   O52   1.301475 A    
C45   H21   1.083395 S    
C41   C66   1.491462 S    
C39   C43   1.400954 A    
O7    V3    2.003488 S    
C38   C42   1.400936 A    
C11   C31   1.415280 A    
O8    V4    2.003488 S    
C33   C53   1.404075 A    
C12   C16   1.418606 A    
N10   O40   1.301602 A    
C62   C66   1.404966 A    
C35   C55   1.403925 A    
C2    C56   1.478164 S    
O18   V4    1.786886 S    
C47   H23   1.083323 S    
C27   C31   1.404333 A    
C21   H5    1.082207 S    
C58   C62   1.406535 A    
C9    C13   1.418622 A    
C4    C54   1.476826 S    
C39   H19   1.083151 S    
C11   C15   1.416877 A    
O5    C1    1.316799 A    
C12   C32   1.418293 A    
C9    N1    1.437058 S    
C23   H7    1.082862 S    
N15   O49   1.301497 A    
C21   C25   1.396222 A    
O8    C4    1.316788 A    
N2    O23   1.301295 A    
O9    C5    1.345374 A    
C64   C68   1.403566 A    
N4    O28   1.301288 A    
O14   V2    1.986010 S    
C57   C66   1.417890 A    
O6    V2    2.003462 S    
C10   C30   1.415321 A    
C15   N7    1.434937 S    
N12   O44   1.301422 A    
C48   H24   1.083394 S    
C14   N6    1.434920 S    
O5    V1    2.003462 S    
C60   N16   1.439708 S    
N16   O51   1.301355 A    
O16   V4    1.986021 S    
O9    V1    1.999660 S    
C41   C45   1.404521 A    
C50   N10   1.442930 S    
C36   C56   1.404068 A    
C61   C65   1.403548 A    
N3    O26   1.301305 A    
C10   C14   1.416850 A    
O17   V3    1.786885 S    
C52   C56   1.418887 A    
N10   O39   1.299995 A    
C63   H3    1.082681 S    
C3    O13   1.317208 A    
C24   H8    1.082227 S    
C23   C27   1.398869 A    
O11   V3    1.999618 S    
O12   V4    1.999618 S    
C25   H9    1.083192 S    
C22   C26   1.398845 A    
C35   C39   1.397685 A    
C7    C17   1.477799 S    
C36   C40   1.398736 A    
O2    C6    1.332156 A    
C51   N11   1.443041 S    
C38   H18   1.083144 S    
N14   O48   1.301505 A    
C27   H11   1.083136 S    
C20   C24   1.398081 A    
C17   C21   1.398079 A    
O13   V1    1.986006 S    
C47   C51   1.410154 A    
C46   H22   1.083325 S    
O10   C6    1.338413 A    
C42   C46   1.403459 A    
C60   C64   1.406106 A    
C19   C23   1.404816 A    
C34   H14   1.083181 S    
C25   C29   1.405908 A    
O20   V2    1.786874 S    
C43   C68   1.487841 S    
C43   C47   1.403485 A    
C13   C17   1.412003 A    
N4    O27   1.300592 A    
N8    O36   1.300609 A    
O6    C2    1.316997 A    
C34   C54   1.403883 A    
C64   H4    1.083178 S    
C37   C41   1.402964 A    
C24   C28   1.396273 A    
C59   N15   1.440396 S    
C15   C19   1.422953 A    
N1    O22   1.300592 A    
C50   C54   1.421479 A    
C4    O14   1.316495 A    
C49   C53   1.418875 A    
N12   O43   1.300115 A    
C22   H6    1.082852 S    
N13   O45   1.301477 A    
N5    O29   1.300542 A    
C51   C55   1.421582 A    
C57   C61   1.406110 A    
C28   C32   1.405860 A    
