data_mof_unit_47754.cif
_audit_creation_date              2013-03-05T15:46:48-0500
_audit_creation_method            fapswitch 2.2
_symmetry_space_group_name_H-M    P1
_symmetry_Int_Tables_number       1
_space_group_crystal_system       triclinic
_cell_length_a                    17.302969
_cell_length_b                    11.115625
_cell_length_c                    9.901544
_cell_angle_alpha                 110.276435
_cell_angle_beta                  93.677449
_cell_angle_gamma                 93.12192
_cell_volume                      1776.71366523

loop_
_atom_site_label
_atom_site_type_symbol
_atom_site_description
_atom_site_fract_x
_atom_site_fract_y
_atom_site_fract_z
_atom_type_partial_charge
O1    O     O_R   0.507280 0.332200 0.576490 -0.525793
O2    O     O_R   0.492720 0.667800 0.423510 -0.548509
O3    O     O_R   0.484240 0.295800 0.334620 -0.567201
O4    O     O_R   0.515760 0.704200 0.665380 -0.554195
C1    C     C_R   0.494502 0.255319 0.443085 0.883425
C2    C     C_R   0.507460 0.744100 0.556310 0.930711
O5    O     O_R   0.399260 0.520290 0.634950 -0.543036
O6    O     O_R   0.600740 0.479710 0.365050 -0.551877
O7    O     O_R   0.376220 0.483890 0.393080 -0.605665
O8    O     O_R   0.623780 0.516110 0.606920 -0.620817
C3    C     C_R   0.352532 0.504194 0.521104 0.875456
C4    C     C_R   0.647311 0.486558 0.476874 0.801729
Cu1   Cu    Cu3+1 0.513640 0.521550 0.643210 1.042705
Cu2   Cu    Cu3+1 0.486360 0.478450 0.356790 1.027940
C5    C     C_R   0.270163 0.512735 0.539905 -0.201668
C6    C     C_R   0.729631 0.462322 0.456635 -0.206670
C7    C     C_R   0.221127 0.399569 0.487966 -0.239513
C8    C     C_R   0.777596 0.459957 0.575124 -0.188359
C9    C     C_R   0.142192 0.403700 0.505120 -0.143855
C10   C     C_R   0.856343 0.446910 0.564992 -0.152926
C11   C     C_R   0.110017 0.522505 0.561653 -0.033086
C12   C     C_R   0.890867 0.451831 0.442566 -0.038158
C13   C     C_R   0.159629 0.636676 0.617933 0.468819
C14   C     C_R   0.843206 0.450739 0.320901 0.463915
C15   C     C_R   0.240395 0.630777 0.616223 0.201496
C16   C     C_R   0.761739 0.440617 0.322347 0.212091
C17   C     C_2   0.024528 0.528709 0.558905 0.180518
C18   C     C_2   0.976702 0.455590 0.440434 0.173846
H1    H     H_    0.244298 0.307639 0.436438 0.162294
H2    H     H_    0.754194 0.466384 0.676000 0.191936
H3    H     H_    0.890901 0.438967 0.656166 0.193223
H4    H     H_    0.105731 0.314166 0.468507 0.186759
C19   C     C_2   0.482963 0.118511 0.418137 -0.365343
C20   C     C_2   0.523526 0.878735 0.578563 -0.355887
C21   C     C_2   0.506606 0.070824 0.520385 0.372586
C22   C     C_2   0.480766 0.937513 0.505694 0.419982
H5    H     H_    0.577831 0.924359 0.640928 0.123612
H6    H     H_    0.448242 0.060570 0.320185 0.110325
N1    N     N_2   0.465840 0.446060 0.141630 -0.042819
N2    N     N_2   0.534160 0.553940 0.858370 -0.043843
C23   C     C_2   0.497105 0.526887 0.086115 0.549188
C24   C     C_2   0.485868 0.503033 0.924022 0.591621
N3    N     N_R   0.713630 0.394984 0.187272 0.131816
O9    O     O_R   0.661437 0.299331 0.163048 -0.323232
O10   O     O_R   0.733623 0.424739 0.077583 -0.369686
N4    N     N_R   0.290651 0.744862 0.691597 0.122790
O11   O     O_R   0.348421 0.777226 0.630671 -0.349838
O12   O     O_R   0.275693 0.821672 0.818319 -0.320041
N5    N     N_R   0.008045 0.382438 0.307789 0.140042
O13   O     O_R   0.978370 0.266160 0.233963 -0.289922
O14   O     O_R   0.058815 0.437360 0.251516 -0.347052
N6    N     N_R   0.993933 0.619387 0.682488 0.139223
O15   O     O_R   0.021980 0.632403 0.812359 -0.307105
O16   O     O_R   0.946338 0.700791 0.665407 -0.350986
O17   O     O_3   0.129380 0.754798 0.674518 -0.498861
C25   C     C_3   0.120387 0.807358 0.564169 -0.149356
H7    H     H_    0.079987 0.743983 0.471726 0.140797
H8    H     H_    0.177380 0.826035 0.525941 0.164894
H9    H     H_    0.094745 0.900926 0.608580 0.202713
O18   O     O_3   0.875876 0.451147 0.197212 -0.492101
C26   C     C_3   0.892123 0.580256 0.208531 -0.133132
H10   H     H_    0.935885 0.632016 0.300817 0.141143
H11   H     H_    0.838377 0.632351 0.219022 0.127887
H12   H     H_    0.916946 0.581129 0.108294 0.217709
O19   O     O_3   0.405519 0.887211 0.448073 -0.549506
C27   C     C_3   0.400688 0.830562 0.295869 -0.195288
H13   H     H_    0.454698 0.844976 0.246098 0.179021
H14   H     H_    0.353308 0.871867 0.249630 0.164116
H15   H     H_    0.384347 0.725910 0.263862 0.208377
O20   O     O_3   0.560645 0.143876 0.633483 -0.592121
C28   C     C_3   0.527283 0.173000 0.766609 -0.085972
H16   H     H_    0.535968 0.097372 0.814056 0.160290
H17   H     H_    0.464233 0.187680 0.757869 0.189850
H18   H     H_    0.557822 0.263363 0.843596 0.211522
O21   O     O_3   0.424462 0.419283 0.841428 -0.595732
C29   C     C_3   0.353820 0.472731 0.885367 -0.288962
H19   H     H_    0.341380 0.470415 0.992838 0.140414
H20   H     H_    0.305653 0.414530 0.806486 0.199532
H21   H     H_    0.353164 0.573583 0.887577 0.187614
O22   O     O_3   0.524019 0.649752 0.177116 -0.616090
C30   C     C_3   0.605596 0.661889 0.208020 -0.171881
H22   H     H_    0.628809 0.753735 0.199928 0.173169
H23   H     H_    0.635792 0.582720 0.134839 0.178213
H24   H     H_    0.621011 0.673601 0.321979 0.156963
O23   O     O_3   0.567142 0.671818 0.939614 -0.517076
C31   C     C_3   0.642525 0.684638 0.898049 -0.092244
H25   H     H_    0.641512 0.719577 0.806091 0.183829
H26   H     H_    0.672709 0.594646 0.875729 0.150588
H27   H     H_    0.677768 0.760018 0.988329 0.125872
O24   O     O_3   0.456814 0.322586 0.050571 -0.530799
C32   C     C_3   0.385532 0.265871 0.070467 -0.078596
H28   H     H_    0.347817 0.334104 0.141231 0.148407
H29   H     H_    0.396359 0.187626 0.112851 0.169009
H30   H     H_    0.352247 0.220605 0.963294 0.154818

loop_
_geom_bond_atom_site_label_1
_geom_bond_atom_site_label_2
_geom_bond_distance
_ccdc_geom_bond_type
C27   H14   1.109535 S    
O17   C25   1.410644 S    
C20   H5    1.085375 S    
C7    H1    1.083860 S    
C23   C24   1.530831 S    
C21   C22   1.478842 S    
C29   H21   1.114336 S    
N3    O9    1.301709 A    
C23   O22   1.384898 S    
C30   H22   1.107337 S    
N1    C23   1.315105 D    
O23   C31   1.407226 S    
C17   N6    1.442193 S    
O5    C3    1.297683 A    
C24   O21   1.384734 S    
O1    C1    1.297523 A    
C9    C11   1.405324 A    
C29   H20   1.109381 S    
C31   H26   1.113888 S    
C5    C15   1.412198 A    
C27   H15   1.109384 S    
C25   H7    1.113601 S    
O4    Cu1   1.963028 S    
C26   H11   1.113684 S    
Cu1   N2    2.037592 S    
C19   C21   1.347499 D    
Cu2   N1    2.037593 S    
C3    C5    1.453082 S    
C4    C6    1.477356 S    
C21   O20   1.393001 S    
N5    O14   1.301925 A    
C1    C19   1.453847 S    
O20   C28   1.413420 S    
C8    H2    1.082730 S    
N1    O24   1.349797 S    
C20   C22   1.343804 D    
C14   O18   1.382698 S    
N2    C24   1.309244 D    
C27   H13   1.113278 S    
C11   C17   1.483506 S    
C12   C18   1.485220 S    
Cu1   Cu2   2.712411 S    
O2    C2    1.293777 A    
C9    H4    1.082648 S    
C30   H23   1.108678 S    
N6    O16   1.301898 A    
C16   N3    1.442223 S    
C6    C16   1.421921 A    
N4    O12   1.301357 A    
C29   H19   1.107753 S    
O4    C2    1.304859 A    
C32   H28   1.111885 S    
C28   H17   1.114171 S    
O7    Cu2   1.962139 S    
C31   H25   1.106329 S    
C31   H27   1.108283 S    
C2    C20   1.443527 S    
O18   C26   1.411279 S    
N2    O23   1.348619 S    
C26   H12   1.109302 S    
O21   C29   1.415797 S    
C32   H29   1.108286 S    
O7    C3    1.305472 A    
C18   N5    1.442047 S    
O6    C4    1.304434 A    
N3    O10   1.301296 A    
O3    Cu2   1.963030 S    
O8    C4    1.311641 A    
C10   C12   1.401637 A    
O19   C27   1.412472 S    
C11   C13   1.409898 A    
C12   C14   1.411665 A    
O1    Cu1   1.969823 S    
C30   H24   1.103228 S    
N6    O15   1.301303 A    
C5    C7    1.395042 A    
N4    O11   1.296589 A    
O6    Cu2   1.974637 S    
C22   O19   1.391992 S    
C14   C16   1.409375 A    
O22   C30   1.414017 S    
O3    C1    1.306372 A    
O8    Cu1   1.962139 S    
C28   H18   1.108620 S    
C13   O17   1.383619 S    
C19   H6    1.080068 S    
C25   H9    1.109165 S    
C28   H16   1.108334 S    
C32   H30   1.109473 S    
O24   C32   1.410682 S    
C7    C9    1.388371 A    
C25   H8    1.113072 S    
C8    C10   1.384430 A    
C13   C15   1.403511 A    
C26   H10   1.113012 S    
O2    Cu2   1.969823 S    
O5    Cu1   1.974641 S    
C6    C8    1.401703 A    
N5    O13   1.301260 A    
C17   C18   1.364861 D    
C15   N4    1.435957 S    
C10   H3    1.082631 S    
