data_mof_unit_65397.cif
_audit_creation_date              2012-12-11T14:24:12-0500
_audit_creation_method            fapswitch 2.2
_symmetry_space_group_name_H-M    P1
_symmetry_Int_Tables_number       1
_space_group_crystal_system       triclinic
_cell_length_a                    6.94933
_cell_length_b                    17.457068
_cell_length_c                    18.870138
_cell_angle_alpha                 105.360641
_cell_angle_beta                  89.721734
_cell_angle_gamma                 90.478981
_cell_volume                      2207.36720925

loop_
_atom_site_label
_atom_site_type_symbol
_atom_type_description
_atom_site_fract_x
_atom_site_fract_y
_atom_site_fract_z
_atom_type_partial_charge
O1    O     O_R   0.494360 0.416740 0.414860 -0.543675
O2    O     O_R   0.818980 0.432970 0.557290 -0.528524
O3    O     O_R   0.994290 0.583260 0.585140 -0.529572
C1    C     C_R   0.649984 0.415982 0.580657 0.722785
O4    O     O_R   0.823740 0.407570 0.413690 -0.540830
O5    O     O_R   0.999090 0.557670 0.440510 -0.524168
C2    C     C_R   0.654392 0.384997 0.386502 0.732599
O6    O     O_R   0.489560 0.442330 0.559490 -0.523728
O7    O     O_3   0.662450 0.549280 0.508970 -0.344584
V1    V     V_3+5 0.935350 0.490860 0.498340 1.441980
O8    O     O_R   0.329100 0.567030 0.442710 -0.523490
C3    C     C_R   0.160957 0.584077 0.419392 0.716666
O9    O     O_R   0.324330 0.592430 0.586310 -0.515874
C4    C     C_R   0.155567 0.615185 0.613409 0.800307
V2    V     V_3+5 0.435960 0.509140 0.501660 1.469523
O10   O     O_3   0.158990 0.450720 0.491030 -0.372673
C5    C     C_2   0.274063 0.776413 0.792382 0.164855
C6    C     C_2   0.118088 0.822181 0.816253 -0.356481
H1    H     H_    0.995926 0.818192 0.779691 0.151934
C7    C     C_2   0.288491 0.726512 0.715364 0.169429
C8    C     C_2   0.143813 0.676549 0.684598 -0.357874
H2    H     H_    0.011888 0.676950 0.715881 0.150415
C9    C     C_1   0.110698 0.863862 0.132595 -0.194513
C10   C     C_1   0.118283 0.821293 0.176155 0.010146
C11   C     C_1   0.127818 0.771095 0.228057 0.007735
C12   C     C_1   0.135967 0.728832 0.271873 0.007596
C13   C     C_1   0.145493 0.678638 0.323778 0.009454
C14   C     C_1   0.153064 0.636076 0.367345 -0.196877
C15   C     C_1   0.641317 0.364061 0.632703 -0.206168
C16   C     C_1   0.636929 0.321472 0.676272 0.008582
C17   C     C_1   0.633238 0.271220 0.728148 0.007470
C18   C     C_1   0.630446 0.228884 0.771946 0.007539
C19   C     C_1   0.626760 0.178627 0.823817 0.008825
C20   C     C_1   0.622382 0.136028 0.867377 -0.206119
C21   C     C_2   0.778408 0.211790 0.215312 -0.128226
C22   C     C_2   0.613838 0.182828 0.180228 -0.307984
H3    H     H_    0.914242 0.184978 0.193633 0.135121
H4    H     H_    0.476383 0.208703 0.200140 0.128146
C23   C     C_2   0.790364 0.279667 0.282808 -0.131283
C24   C     C_2   0.637367 0.317548 0.319950 -0.306747
H5    H     H_    0.934092 0.298621 0.302617 0.134030
H6    H     H_    0.492426 0.299543 0.301790 0.129004
O11   O     O_R   0.774180 0.057760 0.940580 -0.524777
O12   O     O_R   0.439830 0.092440 0.086330 -0.545677
O13   O     O_R   0.264640 0.942310 0.059470 -0.521901
C25   C     C_R   0.608571 0.115071 0.113560 0.731612
O14   O     O_R   0.444740 0.067040 0.942730 -0.527612
O15   O     O_R   0.269590 0.916730 0.914840 -0.516732
C26   C     C_R   0.613735 0.084078 0.919397 0.723800
O16   O     O_R   0.769230 0.083340 0.085210 -0.539889
O17   O     O_3   0.601340 0.950770 0.991070 -0.341363
V3    V     V_3+5 0.328370 0.009130 0.001660 1.450120
O18   O     O_R   0.939550 0.907490 0.913620 -0.526607
C27   C     C_R   0.109042 0.884321 0.886961 0.802084
O19   O     O_R   0.934640 0.932890 0.057220 -0.525030
C28   C     C_R   0.102785 0.915870 0.080560 0.716955
V4    V     V_3+5 0.827780 0.990750 0.998250 1.468855
O20   O     O_3   0.104690 0.049230 0.008930 -0.373513
I1    I     I_    0.509892 0.767526 0.862118 -0.351981
I2    I     I_    0.547836 0.741012 0.658561 -0.373094

loop_
_geom_bond_atom_site_label_1
_geom_bond_atom_site_label_2
_ccdc_geom_bond_type
O5    V1    S    
O2    C1    A    
O8    C3    A    
C22   C25   S    
C15   C16   T    
O17   V4    S    
C7    I2    S    
O7    V1    S    
C25   O16   A    
C21   C23   S    
C1    C15   S    
O13   V3    S    
O9    V2    S    
C1    O6    A    
O19   C28   A    
C11   C12   T    
C18   C19   S    
O12   V3    S    
C24   H6    S    
C5    C6    D    
O7    V2    S    
O4    V1    S    
O14   C26   A    
O3    V1    S    
V1    O10   S    
O9    C4    A    
C10   C11   S    
O15   C27   A    
O16   V4    S    
V4    O20   S    
O14   V3    S    
O3    C4    A    
V3    O20   S    
C3    C14   S    
O1    V2    S    
C4    C8    S    
C22   H4    S    
C21   H3    S    
C5    I1    S    
C19   C20   T    
O6    V2    S    
O19   V4    S    
O5    C3    A    
C16   C17   S    
O11   V4    S    
C9    C10   T    
V2    O10   S    
O2    V1    S    
O15   V3    S    
C9    C28   S    
C5    C7    S    
O17   V3    S    
C7    C8    D    
O13   C28   A    
C23   H5    S    
C6    H1    S    
C23   C24   D    
O4    C2    A    
C6    C27   S    
O11   C26   A    
C20   C26   S    
O18   V4    S    
C12   C13   S    
C8    H2    S    
O1    C2    A    
C2    C24   S    
O8    V2    S    
C17   C18   T    
C21   C22   D    
O18   C27   A    
O12   C25   A    
C13   C14   T    
