data_mof_unit_6719.cif
_audit_creation_date              2012-12-10T21:04:23-0500
_audit_creation_method            fapswitch 2.2
_symmetry_space_group_name_H-M    P1
_symmetry_Int_Tables_number       1
_space_group_crystal_system       triclinic
_cell_length_a                    15.822433
_cell_length_b                    15.06694
_cell_length_c                    27.113099
_cell_angle_alpha                 88.799848
_cell_angle_beta                  89.830885
_cell_angle_gamma                 90.28627
_cell_volume                      6462.11602567

loop_
_atom_site_label
_atom_site_type_symbol
_atom_type_description
_atom_site_fract_x
_atom_site_fract_y
_atom_site_fract_z
_atom_type_partial_charge
C1    C     C_R   0.339012 0.499759 0.500360 0.921397
C2    C     C_R   0.420716 0.363064 0.870685 -0.126973
C3    C     C_3   0.719180 0.343661 0.997774 0.008240
C4    C     C_3   0.669843 0.313661 0.044039 -0.353650
C5    C     C_3   0.702355 0.225472 0.064814 -0.947227
C6    C     C_3   0.111258 0.601001 0.596388 0.121947
C7    C     C_3   0.047456 0.631556 0.634973 -0.312310
C8    C     C_3   0.077194 0.608842 0.687169 -1.012991
C9    C     C_3   0.906464 0.291484 0.479402 0.128660
C10   C     C_3   0.843554 0.226574 0.456949 -0.319167
C11   C     C_3   0.840161 0.138997 0.486247 -1.017152
C12   C     C_3   0.913053 0.713463 0.511152 0.126809
C13   C     C_R   0.490694 0.501753 0.351965 -0.218483
C14   C     C_3   0.878768 0.792374 0.539316 -0.319017
C15   C     C_3   0.882136 0.877647 0.507940 -1.000816
C16   C     C_3   0.116972 0.400338 0.402583 0.123377
C17   C     C_3   0.195662 0.348574 0.387696 -0.357164
C18   C     C_3   0.233230 0.384259 0.339217 -0.933212
C19   C     C_R   0.486601 0.494574 0.647655 -0.229589
C20   C     C_R   0.408403 0.380965 0.974074 -0.052618
C21   C     C_R   0.534300 0.478273 0.022439 -0.010338
C22   C     C_R   0.550538 0.443320 0.975134 -0.021210
C23   C     C_R   0.407003 0.385685 0.026244 -0.068197
C24   C     C_R   0.482918 0.406348 0.948964 -0.093464
C25   C     C_R   0.463387 0.444526 0.048882 -0.091733
C26   C     C_R   0.337267 0.355048 0.946398 0.506566
C27   C     C_R   0.661124 0.500217 0.499657 0.906248
C28   C     C_R   0.581500 0.549499 0.042537 0.420023
C29   C     C_R   0.345873 0.334949 0.896074 0.003349
C30   C     C_R   0.551876 0.588282 0.086445 0.041966
C31   C     C_R   0.499868 0.500748 0.405358 0.969378
C32   C     C_R   0.498284 0.498875 0.594537 0.979093
C33   C     C_R   0.352682 0.332997 0.056214 0.525942
C34   C     C_R   0.631801 0.437531 0.954297 0.526613
C35   C     C_R   0.956363 0.570456 0.520171 0.317883
C36   C     C_R   0.044638 0.434368 0.472807 0.318853
C37   C     C_R   0.044013 0.566145 0.524329 0.335019
C38   C     C_R   0.452161 0.465641 0.098680 -0.128510
C39   C     C_R   0.956452 0.433107 0.473404 0.326104
C40   C     C_R   0.913330 0.502137 0.496374 -0.217132
C41   C     C_R   0.087335 0.499357 0.499600 -0.229557
C42   C     C_1   0.824293 0.501498 0.496960 0.126826
C43   C     C_1   0.176210 0.498997 0.500552 0.095636
C44   C     C_1   0.250920 0.499213 0.500688 -0.188891
C45   C     C_1   0.749458 0.500824 0.498163 -0.184997
C46   C     C_R   0.429189 0.953074 0.481016 0.127191
C47   C     C_R   0.567049 0.047185 0.522693 0.128215
C48   C     C_R   0.569528 0.952273 0.519850 0.110059
C49   C     C_R   0.489925 0.396304 0.897738 -0.130492
C50   C     C_R   0.432474 0.048125 0.477479 0.108690
C51   C     C_R   0.499409 0.905283 0.500364 -0.053749
C52   C     C_R   0.499700 0.094931 0.500116 -0.051580
C53   C     C_1   0.499589 0.807013 0.500111 0.077450
C54   C     C_1   0.499856 0.193052 0.500004 0.076547
C55   C     C_R   0.399821 0.427330 0.180008 0.570866
C56   C     C_R   0.565929 0.421052 0.821380 0.538099
C57   C     C_R   0.494699 0.550068 0.169251 0.542065
C58   C     C_R   0.428717 0.365646 0.818953 0.625143
C59   C     C_R   0.523493 0.442390 0.271946 0.378531
C60   C     C_R   0.393572 0.416939 0.128491 -0.120091
C61   C     C_R   0.406698 0.447062 0.719441 0.421100
C62   C     C_R   0.536178 0.441900 0.323172 0.315439
C63   C     C_R   0.415351 0.451042 0.667770 0.333645
C64   C     C_R   0.430471 0.558028 0.330389 -0.338823
C65   C     C_R   0.543268 0.537916 0.678324 -0.315659
C66   C     C_R   0.413929 0.555318 0.279877 0.163913
C67   C     C_R   0.535865 0.528062 0.729659 0.201367
C68   C     C_R   0.460700 0.496662 0.250788 0.151647
C69   C     C_R   0.478465 0.462751 0.749089 0.017513
C70   C     C_3   0.366142 0.100856 0.448627 -0.409849
C71   C     C_R   0.567812 0.415474 0.873543 -0.109126
C72   C     C_3   0.290162 0.123449 0.480711 -0.833580
C73   C     C_3   0.646482 0.899819 0.537324 -0.401649
C74   C     C_3   0.642785 0.879668 0.592707 -0.840248
C75   C     C_3   0.635637 0.099480 0.549319 -0.408879
C76   C     C_3   0.603522 0.134867 0.598365 -0.838780
C77   C     C_3   0.351160 0.900854 0.465056 -0.406289
C78   C     C_3   0.301660 0.864336 0.509675 -0.820232
C79   C     C_3   0.345160 0.613576 0.258305 -0.373592
C80   C     C_3   0.371213 0.711281 0.257723 -0.838076
C81   C     C_3   0.580396 0.595441 0.761494 -0.340917
C82   C     C_R   0.338052 0.354881 0.105874 0.035557
C83   C     C_3   0.554075 0.690558 0.748251 -0.921492
C84   C     C_3   0.259996 0.313926 0.131086 -0.321508
C85   C     C_3   0.178172 0.338720 0.104225 -0.875520
C86   C     C_3   0.730729 0.435445 0.881579 -0.319157
C87   C     C_3   0.752295 0.530766 0.865711 -0.797088
C88   C     C_3   0.325810 0.337017 0.644013 0.113876
C89   C     C_3   0.380863 0.276614 0.612708 -0.353446
C90   C     C_3   0.354849 0.179378 0.619165 -0.988360
C91   C     C_3   0.571910 0.300523 0.347099 0.140662
C92   C     C_3   0.630167 0.249162 0.382226 -0.331078
C93   C     C_R   0.641673 0.428746 0.902787 0.037594
C94   C     C_3   0.608188 0.150428 0.384275 -0.994527
C95   C     C_3   0.285333 0.520287 0.740220 0.071532
C96   C     C_3   0.308869 0.573868 0.785793 -0.389628
C97   C     C_3   0.255530 0.657573 0.789142 -0.956609
C98   C     C_3   0.649976 0.425461 0.232475 0.105414
C99   C     C_3   0.681642 0.393566 0.182623 -0.332302
C100  C     C_3   0.766238 0.436294 0.168580 -0.997110
C101  C     C_3   0.276057 0.280219 0.872608 -0.304030
C102  C     C_3   0.213512 0.335588 0.842262 -0.791911
C103  C     C_3   0.567508 0.686985 0.094661 -0.337289
C104  C     C_R   0.499256 0.536430 0.118291 -0.072728
C105  C     C_3   0.484706 0.738184 0.099463 -0.825572
C106  C     C_3   0.217882 0.438384 0.957140 0.065709
C107  C     C_3   0.240054 0.507753 0.995710 -0.363776
C108  C     C_3   0.184549 0.589845 0.990166 -0.958369
C109  C     C_3   0.722460 0.587642 0.043848 0.140262
C110  C     C_3   0.797345 0.614152 0.010852 -0.297794
C111  C     C_3   0.880007 0.613489 0.039739 -0.991622
C112  C     C_3   0.366965 0.182185 0.050254 0.057746
C113  C     C_3   0.430785 0.163345 0.009167 -0.352370
C114  C     C_3   0.479965 0.078417 0.020156 -0.952587
H1    H     H_    0.393964 0.601860 0.353341 0.182027
H2    H     H_    0.697776 0.838427 0.603729 0.240462
H3    H     H_    0.525680 0.066855 0.989838 0.266267
H4    H     H_    0.436238 0.020628 0.023094 0.264187
H5    H     H_    0.787860 0.339781 0.005889 0.176428
H6    H     H_    0.707246 0.297016 0.967070 0.123588
H7    H     H_    0.675619 0.364877 0.072619 0.225128
H8    H     H_    0.602004 0.305343 0.034949 0.212486
H9    H     H_    0.696485 0.173031 0.036812 0.266926
H10   H     H_    0.664393 0.205435 0.097755 0.263879
H11   H     H_    0.769545 0.231993 0.075993 0.263822
H12   H     H_    0.173937 0.630652 0.604687 0.165576
H13   H     H_    0.651956 0.835928 0.517981 0.208663
H14   H     H_    0.119365 0.527460 0.599379 0.122754
H15   H     H_    0.038707 0.704545 0.631222 0.233820
H16   H     H_    0.985589 0.598517 0.628830 0.246306
H17   H     H_    0.084640 0.535909 0.691952 0.264980
H18   H     H_    0.029771 0.631850 0.714259 0.275097
H19   H     H_    0.138440 0.642239 0.694605 0.267187
H20   H     H_    0.883704 0.307707 0.517165 0.119098
H21   H     H_    0.969347 0.258965 0.482198 0.179283
H22   H     H_    0.779639 0.256865 0.456645 0.222178
H23   H     H_    0.862193 0.213110 0.418266 0.233647
H24   H     H_    0.706026 0.934210 0.526947 0.195934
H25   H     H_    0.902442 0.105411 0.484962 0.277374
H26   H     H_    0.791865 0.094575 0.470068 0.266797
H27   H     H_    0.823043 0.150923 0.525295 0.264644
H28   H     H_    0.872169 0.701795 0.478517 0.130437
H29   H     H_    0.978284 0.730452 0.498240 0.164625
H30   H     H_    0.812327 0.778566 0.550522 0.224881
H31   H     H_    0.917023 0.801688 0.573165 0.228891
H32   H     H_    0.947957 0.891988 0.495711 0.271583
H33   H     H_    0.859881 0.934128 0.530103 0.270081
H34   H     H_    0.840887 0.871543 0.475089 0.265111
H35   H     H_    0.555957 0.187542 0.592318 0.261837
H36   H     H_    0.133741 0.472462 0.402263 0.119894
H37   H     H_    0.066273 0.389843 0.374945 0.160965
H38   H     H_    0.244175 0.353744 0.417105 0.235487
H39   H     H_    0.178898 0.277349 0.383741 0.225428
H40   H     H_    0.186329 0.379060 0.309001 0.268210
H41   H     H_    0.289883 0.344972 0.329514 0.280601
H42   H     H_    0.252689 0.454763 0.342878 0.256275
H43   H     H_    0.574713 0.080649 0.621209 0.260671
H44   H     H_    0.657057 0.163938 0.619045 0.246952
H45   H     H_    0.692814 0.060513 0.557630 0.213762
H46   H     H_    0.657887 0.155743 0.525428 0.211306
H47   H     H_    0.339303 0.815307 0.531194 0.262763
H48   H     H_    0.283417 0.919075 0.534270 0.253395
H49   H     H_    0.592057 0.580380 0.662317 0.178456
H50   H     H_    0.243295 0.830692 0.496943 0.251577
H51   H     H_    0.306378 0.940328 0.442653 0.211262
H52   H     H_    0.370288 0.845296 0.441203 0.199996
H53   H     H_    0.382396 0.734310 0.295804 0.252994
H54   H     H_    0.429616 0.721463 0.235489 0.293421
H55   H     H_    0.320027 0.751970 0.241001 0.236927
H56   H     H_    0.329214 0.594774 0.220064 0.201731
H57   H     H_    0.286543 0.604675 0.280600 0.194038
H58   H     H_    0.576239 0.710146 0.710675 0.265420
H59   H     H_    0.484267 0.697143 0.750090 0.265253
H60   H     H_    0.258823 0.062370 0.495286 0.261800
H61   H     H_    0.582771 0.736921 0.774829 0.257348
H62   H     H_    0.564347 0.585225 0.801022 0.205640
H63   H     H_    0.649855 0.589531 0.756622 0.232826
H64   H     H_    0.169079 0.411728 0.104592 0.245423
H65   H     H_    0.178021 0.316160 0.065576 0.314876
H66   H     H_    0.123645 0.306799 0.123578 0.242389
H67   H     H_    0.266222 0.240551 0.132964 0.207723
H68   H     H_    0.249347 0.336506 0.168876 0.255408
H69   H     H_    0.707503 0.556129 0.837605 0.271220
H70   H     H_    0.749526 0.574912 0.897913 0.248563
H71   H     H_    0.310441 0.164728 0.512007 0.266748
H72   H     H_    0.817147 0.533494 0.849989 0.234659
H73   H     H_    0.778536 0.414302 0.909194 0.197955
H74   H     H_    0.740487 0.388523 0.851227 0.237096
H75   H     H_    0.259175 0.330033 0.631830 0.156840
H76   H     H_    0.327244 0.313753 0.683184 0.198141
H77   H     H_    0.374774 0.296489 0.573222 0.258438
H78   H     H_    0.447937 0.283863 0.623897 0.227842
H79   H     H_    0.362656 0.157269 0.658217 0.280576
H80   H     H_    0.395333 0.137553 0.595634 0.279734
H81   H     H_    0.287914 0.170047 0.608087 0.266624
H82   H     H_    0.243655 0.161759 0.458391 0.248480
H83   H     H_    0.575996 0.270755 0.309997 0.182390
H84   H     H_    0.505743 0.293906 0.361185 0.134226
H85   H     H_    0.696796 0.257410 0.369757 0.227009
H86   H     H_    0.624496 0.276504 0.419840 0.241225
H87   H     H_    0.540998 0.140441 0.394943 0.263248
H88   H     H_    0.648677 0.116089 0.412013 0.268283
H89   H     H_    0.619196 0.120561 0.347723 0.271102
H90   H     H_    0.216451 0.506097 0.741619 0.174538
H91   H     H_    0.296650 0.560475 0.705763 0.144401
H92   H     H_    0.299217 0.532735 0.819816 0.224335
H93   H     H_    0.393100 0.163869 0.433390 0.201307
H94   H     H_    0.376425 0.593598 0.783928 0.220710
H95   H     H_    0.265317 0.700640 0.755836 0.264971
H96   H     H_    0.274417 0.695154 0.822170 0.269002
H97   H     H_    0.187474 0.639921 0.792507 0.267983
H98   H     H_    0.694717 0.403493 0.261780 0.175382
H99   H     H_    0.648910 0.499593 0.231129 0.167399
H100  H     H_    0.688730 0.320196 0.184088 0.231625
H101  H     H_    0.634350 0.410817 0.153815 0.220203
H102  H     H_    0.759275 0.509406 0.164397 0.267184
H103  H     H_    0.788503 0.409797 0.132943 0.264518
H104  H     H_    0.346062 0.065973 0.415027 0.188538
H105  H     H_    0.814341 0.421136 0.197254 0.273118
H106  H     H_    0.166791 0.367424 0.866656 0.220571
H107  H     H_    0.246004 0.387615 0.819976 0.298161
H108  H     H_    0.178317 0.291727 0.817025 0.247680
H109  H     H_    0.303909 0.227112 0.850088 0.229962
H110  H     H_    0.239524 0.243173 0.901532 0.214515
H111  H     H_    0.498679 0.810184 0.102373 0.239053
H112  H     H_    0.444767 0.728104 0.066390 0.249681
H113  H     H_    0.448769 0.716620 0.132819 0.275143
H114  H     H_    0.608575 0.697799 0.127037 0.236374
H115  H     H_    0.644783 0.941623 0.613953 0.264518
H116  H     H_    0.601041 0.718118 0.062648 0.215395
H117  H     H_    0.148533 0.426539 0.958048 0.170551
H118  H     H_    0.233113 0.465868 0.919613 0.127518
H119  H     H_    0.231501 0.478814 0.033309 0.238993
H120  H     H_    0.307081 0.528635 0.991238 0.219882
H121  H     H_    0.192555 0.620463 0.952800 0.265879
H122  H     H_    0.203064 0.639226 0.018035 0.267709
H123  H     H_    0.117031 0.571881 0.996056 0.264436
H124  H     H_    0.734307 0.520372 0.060181 0.166785
H125  H     H_    0.719971 0.635111 0.074497 0.104762
H126  H     H_    0.583973 0.842430 0.602185 0.261599
H127  H     H_    0.802979 0.567159 0.980087 0.254763
H128  H     H_    0.786779 0.681766 0.994948 0.212828
H129  H     H_    0.877113 0.661539 0.070210 0.266828
H130  H     H_    0.933092 0.632652 0.014771 0.266808
H131  H     H_    0.892343 0.546016 0.055321 0.269531
H132  H     H_    0.323952 0.124011 0.054489 0.171248
H133  H     H_    0.400280 0.188506 0.086292 0.120086
H134  H     H_    0.396956 0.156872 0.973535 0.231267
H135  H     H_    0.476590 0.219087 0.005552 0.211459
H136  H     H_    0.515590 0.084424 0.055190 0.266694
N1    N     N_R   0.448313 0.493787 0.198630 -0.318353
N2    N     N_R   0.489826 0.418627 0.797468 -0.322173
N3    N     N_1   0.500000 0.270550 0.500000 -0.116863
N4    N     N_1   0.500000 0.729450 0.500000 -0.096473
O1    O     O_R   0.378020 0.573650 0.500020 -0.609905
O2    O     O_2   0.637447 0.428002 0.794638 -0.591523
O3    O     O_2   0.381515 0.312082 0.790996 -0.547298
O4    O     O_2   0.541253 0.614066 0.190275 -0.609686
O5    O     O_3   0.349402 0.427367 0.636790 -0.655189
O6    O     O_3   0.598647 0.390162 0.344754 -0.646269
O7    O     O_3   0.327184 0.437436 0.740337 -0.622546
O8    O     O_3   0.569579 0.387307 0.241948 -0.648579
O9    O     O_3   0.257459 0.355806 0.967640 -0.612616
O10   O     O_3   0.646848 0.589354 0.015598 -0.632498
O11   O     O_3   0.316548 0.256698 0.037588 -0.610176
O12   O     O_R   0.621980 0.426350 0.499980 -0.614043
O13   O     O_3   0.701476 0.433348 0.984872 -0.657206
O14   O     O_3   0.087312 0.632080 0.548810 -0.628807
O15   O     O_3   0.912085 0.368300 0.448756 -0.616857
O16   O     O_3   0.912268 0.637632 0.542696 -0.628082
O17   O     O_3   0.088784 0.368267 0.449266 -0.625473
O18   O     O_R   0.621980 0.573650 0.499980 -0.610891
O19   O     O_R   0.378020 0.426350 0.500020 -0.620950
O20   O     O_R   0.500010 0.573660 0.428760 -0.620698
O21   O     O_R   0.499990 0.426340 0.571240 -0.616708
O22   O     O_R   0.499990 0.573660 0.571240 -0.613495
O23   O     O_R   0.500010 0.426340 0.428760 -0.604166
O24   O     O_2   0.364392 0.367975 0.211739 -0.600613
Zn1   Zn    Zn3+2 0.500000 0.598370 0.500000 0.970510
Zn2   Zn    Zn3+2 0.500000 0.401630 0.500000 0.951253

loop_
_geom_bond_atom_site_label_1
_geom_bond_atom_site_label_2
_ccdc_geom_bond_type
C75   H46   S    
C95   H91   S    
C112  H133  S    
C66   C68   A    
C108  H122  S    
C78   H50   S    
C111  H130  S    
C83   H61   S    
C73   C74   S    
C6    C7    S    
C59   O8    S    
C58   N2    A    
C95   C96   S    
C34   C93   A    
C11   H26   S    
C49   C71   A    
C17   H39   S    
C99   H101  S    
C7    C8    S    
C61   C69   A    
C77   C78   S    
C112  H132  S    
C66   C79   S    
C13   C64   A    
C5    H10   S    
C76   H44   S    
C70   H104  S    
C97   H95   S    
C2    C29   A    
C79   H56   S    
C84   H67   S    
C2    C49   A    
C12   O16   S    
C87   H69   S    
C15   H34   S    
C59   C68   A    
C98   C99   S    
C96   H94   S    
C27   O12   A    
C106  C107  S    
C77   H51   S    
C114  H136  S    
C57   O4    S    
C88   O5    S    
C113  H135  S    
C106  H117  S    
C79   H57   S    
C61   C63   A    
C11   H25   S    
C110  C111  S    
C7    H16   S    
C38   C104  A    
C91   O6    S    
C69   N2    S    
C91   H84   S    
C60   C82   A    
C36   O17   S    
C48   C51   A    
C90   H81   S    
C20   C24   A    
C100  H105  S    
C19   C63   A    
C16   C17   S    
C23   C33   A    
C90   H80   S    
C30   C103  S    
C8    H18   S    
C47   C48   A    
C50   C52   A    
C107  C108  S    
C20   C23   A    
C94   H88   S    
C10   H23   S    
C72   H60   S    
C57   N1    A    
C92   H85   S    
C9    C10   S    
C80   H53   S    
C1    O19   A    
C18   H40   S    
C102  H106  S    
C9    O15   S    
C55   C60   A    
C9    H20   S    
C101  H109  S    
C103  H116  S    
C23   C25   A    
C27   O18   A    
C107  H119  S    
C108  H121  S    
C86   H73   S    
C64   H1    S    
C21   C22   A    
C96   C97   S    
C74   H126  S    
C41   C43   S    
C65   H49   S    
C36   C41   A    
C80   H55   S    
C74   H115  S    
C19   C32   S    
C112  C113  S    
C81   C83   S    
C52   C54   S    
C46   C50   A    
C87   H72   S    
C109  H125  S    
C88   H75   S    
C22   C34   A    
C86   C93   S    
C14   H30   S    
C76   H43   S    
C103  H114  S    
O19   Zn2   S    
C3    O13   S    
C97   H96   S    
C13   C62   A    
C58   O3    S    
C4    H8    S    
O20   Zn1   S    
C101  C102  S    
C34   O13   S    
O21   Zn2   S    
C84   C85   S    
C6    H12   S    
C3    H6    S    
C39   C40   A    
C86   C87   S    
C85   H64   S    
C26   O9    S    
C65   C67   A    
C70   H93   S    
C109  H124  S    
C98   H98   S    
C46   C51   A    
C56   O2    S    
C33   O11   S    
C67   C69   A    
C37   O14   S    
C64   C66   A    
C88   H76   S    
C75   C76   S    
C81   H62   S    
C73   H13   S    
C32   O22   A    
N3    Zn2   S    
C63   O5    S    
C25   C38   A    
C46   C77   S    
N4    Zn1   S    
C98   O8    S    
C1    C44   S    
C96   H92   S    
C99   C100  S    
C14   H31   S    
O22   Zn1   S    
C85   H65   S    
C56   C71   A    
C74   H2    S    
C83   H58   S    
C95   H90   S    
C8    H17   S    
C92   C94   S    
C17   C18   S    
C89   H77   S    
C29   C101  S    
C103  C105  S    
C94   H87   S    
C105  H112  S    
C108  H123  S    
C109  O10   S    
C11   H27   S    
C114  H4    S    
C3    H5    S    
C26   C29   A    
C38   C60   A    
C9    H21   S    
C101  H110  S    
C81   H63   S    
C21   C28   A    
C12   C14   S    
C100  H103  S    
C67   C81   S    
O18   Zn1   S    
C105  H111  S    
C83   H59   S    
C43   C44   T    
C6    O14   S    
C54   N3    T    
C22   C24   A    
C17   H38   S    
C53   N4    T    
C35   O16   S    
C5    H11   S    
C3    C4    S    
C62   O6    S    
C91   C92   S    
C16   O17   S    
C18   H42   S    
C102  H108  S    
C113  C114  S    
C33   C82   A    
C75   H45   S    
C24   C49   A    
C57   C104  A    
C21   C25   A    
C100  H102  S    
C59   C62   A    
C111  H129  S    
C97   H97   S    
O1    Zn1   S    
C8    H19   S    
C14   C15   S    
C6    H14   S    
C98   H99   S    
C48   C73   S    
C13   C31   S    
C36   C39   A    
C10   H22   S    
C4    C5    S    
C80   H54   S    
C72   H82   S    
C15   H32   S    
C16   H36   S    
C2    C58   A    
C42   C45   T    
C78   H48   S    
C47   C52   A    
C71   C93   A    
C99   H100  S    
C113  H134  S    
C5    H9    S    
C82   C84   S    
C12   H29   S    
O12   Zn2   S    
C18   H41   S    
C84   H68   S    
C35   C40   A    
C77   H52   S    
C61   O7    S    
C35   C37   A    
C32   O21   A    
C28   O10   S    
C109  C110  S    
C15   H33   S    
C110  H127  S    
C27   C45   S    
C50   C70   S    
C90   H79   S    
C20   C26   A    
C76   H35   S    
C85   H66   S    
C56   N2    A    
C28   C30   A    
C106  O9    S    
C89   H78   S    
C12   H28   S    
C4    H7    S    
C19   C65   A    
C16   H37   S    
C55   N1    A    
C105  H113  S    
C37   C41   A    
C31   O23   A    
C72   H71   S    
C7    H15   S    
C114  H3    S    
C10   C11   S    
C110  H128  S    
C47   C75   S    
C79   C80   S    
C91   H83   S    
C39   O15   S    
C95   O7    S    
C88   C89   S    
C55   O24   S    
C107  H120  S    
C73   H24   S    
O23   Zn2   S    
C30   C104  A    
C106  H118  S    
C40   C42   S    
C78   H47   S    
C68   N1    S    
C70   C72   S    
C94   H89   S    
C51   C53   S    
C89   C90   S    
C92   H86   S    
C31   O20   A    
C112  O11   S    
C87   H70   S    
C86   H74   S    
C1    O1    A    
C102  H107  S    
C111  H131  S    
