data_mof_unit_46209.cif
_audit_creation_date              2012-10-26T19:58:18-0400
_audit_creation_method            fapswitch 2.2
_symmetry_space_group_name_H-M    P1
_symmetry_Int_Tables_number       1
_space_group_crystal_system       triclinic
_cell_length_a                    7.424884
_cell_length_b                    8.725949
_cell_length_c                    13.374676
_cell_angle_alpha                 94.048716
_cell_angle_beta                  77.253455
_cell_angle_gamma                 103.131718
_cell_volume                      822.886393465

loop_
_atom_site_label
_atom_site_type_symbol
_atom_type_description
_atom_site_fract_x
_atom_site_fract_y
_atom_site_fract_z
_atom_type_partial_charge
C1    C     C_R   0.545345 0.800080 0.501902 0.569768
C2    C     C_R   0.336204 0.496123 0.807285 -0.007036
C3    C     C_2   0.566315 0.967493 0.504911 -0.093546
C4    C     C_R   0.399194 0.497814 0.694655 0.529130
C5    C     C_2   0.437779 0.032588 0.478027 0.191208
C6    C     C_R   0.457490 0.200254 0.491790 0.532648
C7    C     C_R   0.601779 0.509225 0.305731 0.532878
C8    C     C_R   0.869077 0.694055 0.057743 -0.145340
C9    C     C_R   0.664289 0.532666 0.195067 -0.008749
C10   C     C_R   0.149827 0.420572 0.850212 -0.134085
C11   C     C_R   0.093604 0.396972 0.955144 -0.148448
C12   C     C_R   0.416389 0.508445 0.976256 0.055542
C13   C     C_R   0.225057 0.438523 0.017629 -0.074097
C14   C     C_R   0.464791 0.554933 0.872578 0.011820
C15   C     C_R   0.558712 0.542094 0.035814 0.073203
C16   C     C_R   0.732558 0.648476 0.997604 0.007032
C17   C     C_R   0.767933 0.709782 0.900049 -0.139871
C18   C     C_R   0.637368 0.662620 0.837986 -0.124888
C19   C     C_R   0.537278 0.470083 0.130387 0.222830
C20   C     C_R   0.832403 0.640515 0.157174 -0.172097
Cu1   Cu    Cu3+1 0.321300 0.483160 0.488710 0.996456
Cu2   Cu    Cu3+1 0.678700 0.516840 0.511290 0.959600
H1    H     H_    0.932008 0.687915 0.205673 0.151751
H2    H     H_    0.989014 0.382388 0.420715 0.241476
H3    H     H_    0.434004 0.276714 0.207694 0.328696
H4    H     H_    0.047677 0.378009 0.802460 0.142446
H5    H     H_    0.010952 0.617587 0.579313 0.246926
H6    H     H_    0.898456 0.793420 0.870970 0.116740
H7    H     H_    0.000877 0.776615 0.029380 0.132826
H8    H     H_    0.171635 0.422104 0.098866 0.184793
H9    H     H_    0.947939 0.343134 0.988096 0.134346
H10   H     H_    0.670297 0.717578 0.764317 0.141064
H11   H     H_    0.686743 0.037989 0.532868 0.086063
H12   H     H_    0.221374 0.010975 0.412157 0.335581
N1    N     N_2   0.947230 0.542220 0.528320 -0.241737
N2    N     N_2   0.052770 0.457780 0.471680 -0.246751
O1    O     O_R   0.383920 0.714220 0.492660 -0.430490
O2    O     O_3   0.400229 0.334075 0.155584 -0.726970
O3    O     O_R   0.685730 0.742660 0.511730 -0.512344
O4    O     O_R   0.275440 0.478800 0.636790 -0.513127
O5    O     O_R   0.577250 0.507240 0.655860 -0.504860
O6    O     O_R   0.314270 0.257340 0.488270 -0.510871
O7    O     O_R   0.616080 0.285780 0.507340 -0.527319
O8    O     O_R   0.422750 0.492760 0.344140 -0.473364
O9    O     O_R   0.724560 0.521200 0.363210 -0.508282
O10   O     O_3   0.291198 0.942079 0.436525 -0.680550

loop_
_geom_bond_atom_site_label_1
_geom_bond_atom_site_label_2
_ccdc_geom_bond_type
C15   C16   A    
C2    C4    S    
C20   H1    S    
H12   O10   S    
C19   O2    S    
H3    O2    S    
Cu1   O8    S    
C5    O10   S    
C14   C18   A    
C9    C20   A    
N1    N2    D    
C12   C15   A    
C1    O1    A    
C10   H4    S    
C17   C18   A    
C11   H9    S    
C8    C16   A    
Cu1   N2    S    
C8    C20   A    
Cu1   Cu2   S    
C15   C19   A    
Cu2   N1    S    
C11   C13   A    
H2    N2    S    
Cu1   O4    S    
C8    H7    S    
C7    O9    A    
C12   C14   A    
C6    O7    A    
C6    O6    A    
C5    C6    S    
C2    C14   A    
Cu2   O5    S    
C18   H10   S    
C4    O5    A    
C3    H11   S    
Cu1   O6    S    
C2    C10   A    
C3    C5    D    
C13   H8    S    
Cu2   O9    S    
Cu1   O1    S    
C12   C13   A    
C10   C11   A    
C7    C9    S    
C1    O3    A    
H5    N1    S    
C7    O8    A    
C17   H6    S    
Cu2   O3    S    
C9    C19   A    
Cu2   O7    S    
C4    O4    A    
C16   C17   A    
C1    C3    S    
