data_mof_unit_63111.cif
_audit_creation_date              2013-03-05T16:08:04-0500
_audit_creation_method            fapswitch 2.2
_symmetry_space_group_name_H-M    P1
_symmetry_Int_Tables_number       1
_space_group_crystal_system       monoclinic
_cell_length_a                    23.468221
_cell_length_b                    11.57309
_cell_length_c                    10.76866
_cell_angle_alpha                 90.000144
_cell_angle_beta                  90.0
_cell_angle_gamma                 90.0
_cell_volume                      2924.76626595

loop_
_atom_site_label
_atom_site_type_symbol
_atom_site_description
_atom_site_fract_x
_atom_site_fract_y
_atom_site_fract_z
_atom_type_partial_charge
O1    O     O_R   0.500000 0.334450 0.602530 -0.606443
O2    O     O_R   0.500000 0.665550 0.397470 -0.606443
O3    O     O_R   0.500000 0.665550 0.602530 -0.606250
O4    O     O_R   0.500000 0.334450 0.397470 -0.606250
C1    C     C_R   0.500000 0.281145 0.500000 0.917326
C2    C     C_R   0.500000 0.718854 0.500000 0.917326
O5    O     O_R   0.416150 0.500000 0.602560 -0.617732
O6    O     O_R   0.583850 0.500000 0.397440 -0.617731
O7    O     O_R   0.583850 0.500000 0.602560 -0.617732
O8    O     O_R   0.416150 0.500000 0.397440 -0.617732
C3    C     C_R   0.388917 0.500000 0.500000 0.893474
C4    C     C_R   0.611083 0.500000 0.500000 0.893474
Zn1   Zn    Zn3+2 0.500000 0.500000 0.636920 0.993488
Zn2   Zn    Zn3+2 0.500000 0.500000 0.363080 0.993488
C5    C     C_R   0.880745 0.603376 0.502467 0.520622
C6    C     C_R   0.119255 0.396624 0.497532 0.520621
C7    C     C_R   0.880745 0.396624 0.497532 0.520622
C8    C     C_R   0.119255 0.603376 0.502468 0.520622
N1    N     N_R   0.852664 0.500000 0.500000 -0.360186
N2    N     N_R   0.147336 0.500000 0.500000 -0.360185
C9    C     C_R   0.940219 0.394356 0.497459 -0.015471
C10   C     C_R   0.059781 0.605644 0.502541 -0.015471
C11   C     C_R   0.940219 0.605644 0.502540 -0.015471
C12   C     C_R   0.059781 0.394356 0.497459 -0.015471
C13   C     C_R   0.970074 0.500000 0.500000 -0.018049
C14   C     C_R   0.029926 0.500000 0.500000 -0.018050
C15   C     C_R   0.970343 0.289608 0.494926 -0.145457
C16   C     C_R   0.029656 0.710392 0.505074 -0.145458
C17   C     C_R   0.970343 0.710392 0.505074 -0.145458
C18   C     C_R   0.029656 0.289608 0.494926 -0.145458
O9    O     O_2   0.851022 0.703209 0.504824 -0.542760
O10   O     O_2   0.148978 0.296791 0.495175 -0.542759
O11   O     O_2   0.851022 0.296791 0.495176 -0.542760
O12   O     O_2   0.148978 0.703209 0.504825 -0.542759
H1    H     H_    0.948236 0.207463 0.492938 0.195954
H2    H     H_    0.051764 0.792537 0.507062 0.195954
H3    H     H_    0.948236 0.792536 0.507062 0.195954
H4    H     H_    0.051764 0.207463 0.492938 0.195954
C19   C     C_R   0.237698 0.501143 0.386749 0.033241
C20   C     C_R   0.762302 0.498861 0.613251 0.033241
C21   C     C_R   0.237698 0.498857 0.613251 0.033241
C22   C     C_R   0.762302 0.501139 0.386749 0.033241
C23   C     C_R   0.296943 0.501116 0.387154 -0.239792
C24   C     C_R   0.703057 0.498888 0.612846 -0.239792
C25   C     C_R   0.296943 0.498884 0.612846 -0.239792
C26   C     C_R   0.703057 0.501112 0.387154 -0.239792
H5    H     H_    0.319671 0.502017 0.299489 0.171566
H6    H     H_    0.680329 0.497989 0.700510 0.171566
H7    H     H_    0.319671 0.497983 0.700510 0.171566
H8    H     H_    0.680329 0.502010 0.299490 0.171566
C27   C     C_R   0.326765 0.500000 0.500000 -0.070714
C28   C     C_R   0.673235 0.500000 0.500000 -0.070714
C29   C     C_R   0.208045 0.500000 0.500000 0.235076
C30   C     C_R   0.791955 0.500000 0.500000 0.235075
C31   C     C_1   0.500000 0.161035 0.500000 -0.173159
C32   C     C_1   0.500000 0.838965 0.500000 -0.173159
C33   C     C_1   0.500000 0.059151 0.500000 0.020080
C34   C     C_1   0.500000 0.940849 0.500000 0.020080
N3    N     N_1   0.500000 0.500000 0.180630 -0.079848
N4    N     N_1   0.500000 0.500000 0.819370 -0.079848
C35   C     C_1   0.500000 0.500000 0.069734 0.046077
C36   C     C_1   0.500000 0.500000 0.930266 0.046077
C37   C     C_1   0.207679 0.502395 0.269787 0.205691
N5    N     N_1   0.183554 0.503397 0.176066 -0.161297
C38   C     C_1   0.792321 0.497612 0.730213 0.205692
N6    N     N_1   0.816445 0.496613 0.823933 -0.161297
C39   C     C_1   0.207679 0.497605 0.730213 0.205691
N7    N     N_1   0.183554 0.496603 0.823934 -0.161297
C40   C     C_1   0.792321 0.502388 0.269787 0.205692
N8    N     N_1   0.816445 0.503386 0.176066 -0.161297

loop_
_geom_bond_atom_site_label_1
_geom_bond_atom_site_label_2
_geom_bond_distance
_ccdc_geom_bond_type
O5    Zn1   2.002297 S    
O5    C3    1.276027 A    
C39   N7    1.157258 T    
C5    O9    1.349850 S    
C32   C34   1.179112 T    
C6    O10   1.349851 S    
C19   C37   1.443231 S    
C26   H8    1.084348 S    
C20   C30   1.404195 A    
C35   C36   1.501885 S    
O3    Zn1   1.951389 S    
C25   H7    1.084349 S    
O6    C4    1.276027 A    
O3    C2    1.264763 A    
C23   C27   1.402392 A    
C24   C28   1.402391 A    
C5    C11   1.396005 A    
C9    C15   1.403606 A    
C24   H6    1.084348 S    
C6    C12   1.396003 A    
Zn1   N4    1.964741 S    
C10   C16   1.403608 A    
C21   C25   1.390377 A    
C22   C30   1.404196 A    
C15   C18   1.391971 A    
C5    N1    1.366137 A    
Zn2   N3    1.964742 S    
C8    O12   1.349851 S    
C21   C29   1.404197 A    
C33   C34   1.369114 S    
C19   C29   1.404198 A    
C7    O11   1.349850 S    
C15   H1    1.083238 S    
O1    C1    1.264761 A    
O4    C1    1.264763 A    
C11   C17   1.403606 A    
N1    C30   1.424742 S    
N4    C36   1.194201 T    
C6    N2    1.366139 A    
C4    C28   1.458597 S    
C12   C14   1.409421 A    
C8    N2    1.366138 A    
C20   C38   1.443230 S    
C31   C33   1.179112 T    
O4    Zn2   1.951390 S    
C40   N8    1.157257 T    
O2    Zn2   1.951387 S    
O7    C4    1.276027 A    
C12   C18   1.403608 A    
N3    C35   1.194201 T    
C3    C27   1.458597 S    
O8    C3    1.276027 A    
C25   C27   1.402391 A    
C10   C14   1.409420 A    
C37   N5    1.157258 T    
C26   C28   1.402392 A    
C20   C24   1.390377 A    
C11   C13   1.409420 A    
O1    Zn1   1.951389 S    
C16   H2    1.083239 S    
C21   C39   1.443231 S    
C38   N6    1.157257 T    
C22   C26   1.390377 A    
C17   H3    1.083238 S    
O8    Zn2   2.002297 S    
O7    Zn1   2.002295 S    
C16   C17   1.391971 A    
C19   C23   1.390377 A    
O6    Zn2   2.002295 S    
C18   H4    1.083239 S    
C7    N1    1.366138 A    
C13   C14   1.404604 A    
C8    C10   1.396003 A    
C23   H5    1.084349 S    
C1    C31   1.390053 S    
C22   C40   1.443230 S    
C7    C9    1.396005 A    
O2    C2    1.264761 A    
C2    C32   1.390053 S    
N2    C29   1.424739 S    
C9    C13   1.409421 A    
