data_mof_unit_38405.cif
_audit_creation_date              2012-12-11T16:29:24-0500
_audit_creation_method            fapswitch 2.2
_symmetry_space_group_name_H-M    P1
_symmetry_Int_Tables_number       1
_space_group_crystal_system       triclinic
_cell_length_a                    6.950307
_cell_length_b                    17.121329
_cell_length_c                    18.997632
_cell_angle_alpha                 106.104168
_cell_angle_beta                  90.145757
_cell_angle_gamma                 90.845678
_cell_volume                      2171.68937753

loop_
_atom_site_label
_atom_site_type_symbol
_atom_type_description
_atom_site_fract_x
_atom_site_fract_y
_atom_site_fract_z
_atom_type_partial_charge
O1    O     O_R   0.494360 0.415680 0.413760 -0.518517
O2    O     O_R   0.818810 0.432910 0.557230 -0.535055
O3    O     O_R   0.994290 0.584320 0.586240 -0.536929
C1    C     C_R   0.650597 0.418393 0.582637 0.703501
O4    O     O_R   0.823740 0.406440 0.412520 -0.533187
O5    O     O_R   0.999250 0.557660 0.440500 -0.526728
C2    C     C_R   0.652371 0.380441 0.387365 0.759395
O6    O     O_R   0.489400 0.442340 0.559500 -0.509657
O7    O     O_3   0.662500 0.549650 0.509350 -0.358161
V1    V     V_3+5 0.935340 0.490790 0.498270 1.468320
O8    O     O_R   0.329270 0.567090 0.442770 -0.515095
C3    C     C_R   0.161152 0.584140 0.419444 0.715847
O9    O     O_R   0.324340 0.593560 0.587480 -0.545494
C4    C     C_R   0.156891 0.615699 0.615682 0.672656
V2    V     V_3+5 0.435970 0.509210 0.501730 1.491225
O10   O     O_3   0.158940 0.450350 0.490650 -0.347840
C5    C     C_R   0.114093 0.580270 0.759941 0.146067
C6    C     C_R   0.042727 0.562056 0.822975 -0.040911
C7    C     C_R   0.994850 0.625676 0.884310 0.072629
C8    C     C_R   0.022729 0.707002 0.884102 0.197754
C9    C     C_R   0.083726 0.727635 0.819564 -0.006349
C10   C     C_R   0.115961 0.662452 0.754420 -0.057062
C11   C     C_R   0.116459 0.810617 0.818348 -0.130948
C12   C     C_R   0.164139 0.827305 0.751182 0.023166
C13   C     C_R   0.178426 0.763160 0.685595 0.036094
C14   C     C_R   0.152776 0.681080 0.686587 -0.121851
C15   C     C_R   0.193362 0.908300 0.747884 -0.185192
C16   C     C_R   0.236277 0.926416 0.682029 0.165588
C17   C     C_R   0.249044 0.863008 0.617018 0.032710
C18   C     C_R   0.219238 0.782561 0.619304 -0.184475
H1    H     H_    0.180904 0.958994 0.796393 0.103788
H2    H     H_    0.229575 0.735059 0.568341 0.146914
C19   C     C_1   0.111351 0.864668 0.133312 -0.170234
C20   C     C_1   0.118650 0.821851 0.176667 0.047346
C21   C     C_1   0.128103 0.771493 0.228411 0.026941
C22   C     C_1   0.136235 0.729097 0.272110 0.019392
C23   C     C_1   0.145761 0.678769 0.323888 0.040964
C24   C     C_1   0.153345 0.636151 0.367407 -0.182167
C25   C     C_1   0.642322 0.366201 0.634516 -0.114027
C26   C     C_1   0.637618 0.322902 0.677480 0.089040
C27   C     C_1   0.633607 0.271565 0.728436 0.049507
C28   C     C_1   0.630637 0.228230 0.771393 0.038724
C29   C     C_1   0.626840 0.176810 0.822280 0.044158
C30   C     C_1   0.622520 0.133417 0.865170 -0.172380
H3    H     H_    0.320444 0.127980 0.416772 0.155601
C31   C     C_R   0.712145 0.416125 0.248705 0.184317
C32   C     C_R   0.777460 0.433589 0.185850 -0.275452
C33   C     C_R   0.799679 0.373578 0.121073 -0.006848
C34   C     C_R   0.752870 0.291971 0.118453 -0.069934
C35   C     C_R   0.688629 0.269856 0.182806 -0.046909
C36   C     C_R   0.680634 0.333482 0.250394 0.091825
C37   C     C_R   0.631119 0.187906 0.182196 -0.151769
C38   C     C_R   0.578234 0.170086 0.248906 -0.035470
C39   C     C_R   0.570156 0.233951 0.315867 -0.028784
C40   C     C_R   0.635698 0.314376 0.317204 -0.158410
C41   C     C_R   0.529394 0.088634 0.250556 -0.053399
C42   C     C_R   0.414901 0.076325 0.307400 0.196791
C43   C     C_R   0.393789 0.139820 0.370363 -0.175022
C44   C     C_R   0.489161 0.214131 0.378397 -0.041820
H4    H     H_    0.803514 0.496680 0.187281 0.121191
O11   O     O_R   0.775690 0.057750 0.940570 -0.508513
O12   O     O_R   0.441200 0.093570 0.087490 -0.526335
O13   O     O_R   0.265840 0.942320 0.059480 -0.503019
C45   C     C_R   0.612722 0.120248 0.112425 0.657863
O14   O     O_R   0.446270 0.067110 0.942790 -0.533073
O15   O     O_R   0.270950 0.915660 0.913750 -0.544980
C46   C     C_R   0.614352 0.081067 0.916942 0.698126
O16   O     O_R   0.770580 0.084400 0.086300 -0.534778
O17   O     O_3   0.602640 0.950400 0.990690 -0.358559
V3    V     V_3+5 0.329740 0.009200 0.001730 1.510031
O18   O     O_R   0.940900 0.906360 0.912450 -0.529742
C47   C     C_R   0.109002 0.880983 0.886427 0.751732
O19   O     O_R   0.935830 0.932820 0.057160 -0.523163
C48   C     C_R   0.103832 0.916824 0.081369 0.732583
V4    V     V_3+5 0.829130 0.990680 0.998180 1.502376
O20   O     O_3   0.106100 0.049590 0.009310 -0.339935
C49   C     C_2   0.294796 0.880499 0.546479 0.371311
H5    H     H_    0.321107 0.942447 0.544470 0.088290
O21   O     O_2   0.304053 0.825866 0.489481 -0.534836
N1    N     N_3   0.664387 0.484762 0.308640 -0.649515
H6    H     H_    0.555599 0.516977 0.291411 0.221808
H7    H     H_    0.785422 0.523044 0.322033 0.227908
C50   C     C_2   0.864131 0.401662 0.056943 0.400609
H8    H     H_    0.930215 0.461591 0.066276 0.032488
O22   O     O_2   0.839433 0.360918 0.993701 -0.522271
C51   C     C_2   0.771243 0.232694 0.047186 0.522167
H9    H     H_    0.642104 0.213109 0.015303 -0.012818
O23   O     O_2   0.929551 0.209956 0.022894 -0.504129
C52   C     C_2   0.629248 0.016734 0.203469 0.444135
H10   H     H_    0.779016 0.022576 0.189708 0.015317
O24   O     O_2   0.548059 0.950762 0.180763 -0.515340
N2    N     N_3   0.337389 0.997043 0.304138 -0.598424
H11   H     H_    0.279669 0.995746 0.354590 0.224909
H12   H     H_    0.222337 0.986413 0.267023 0.232351
C53   C     C_2   0.514969 0.263268 0.454646 0.390616
H13   H     H_    0.656266 0.287806 0.473106 -0.005216
O25   O     O_2   0.382144 0.272552 0.498048 -0.528111
N3    N     N_3   0.208941 0.515612 0.707584 -0.608391
H14   H     H_    0.123272 0.492455 0.661088 0.257947
H15   H     H_    0.345586 0.534683 0.695792 0.222921
C54   C     C_2   0.020932 0.475981 0.825959 0.429941
H16   H     H_    0.005883 0.461943 0.877907 0.063339
O26   O     O_2   0.014831 0.419294 0.770320 -0.511488
N4    N     N_3   0.921502 0.609427 0.949607 -0.684119
H17   H     H_    0.797656 0.572788 0.936298 0.235221
H18   H     H_    0.025916 0.579051 0.971165 0.225913
N5    N     N_3   0.986552 0.768165 0.950962 -0.655142
H19   H     H_    0.074700 0.757242 0.991756 0.229302
H20   H     H_    0.842750 0.763378 0.965552 0.259283
N6    N     N_3   0.266146 0.009395 0.681003 -0.687124
H21   H     H_    0.145375 0.026231 0.656061 0.227595
H22   H     H_    0.273202 0.048142 0.734295 0.237562

loop_
_geom_bond_atom_site_label_1
_geom_bond_atom_site_label_2
_ccdc_geom_bond_type
C18   H2    S    
C54   H16   S    
C42   N2    S    
N5    H20   S    
O19   C48   A    
C53   H13   S    
C12   C15   A    
C2    C40   S    
C1    O6    A    
N4    H18   S    
C38   C39   A    
O11   V4    S    
O16   V4    S    
C23   C24   T    
C45   O16   A    
C16   C17   A    
C6    C7    A    
O5    C3    A    
C51   O23   D    
O14   V3    S    
C41   C42   A    
O12   V3    S    
C20   C21   S    
C27   C28   T    
N6    H21   S    
O12   C45   A    
C32   H4    S    
C39   C40   A    
O8    V2    S    
O15   C47   A    
C32   C33   A    
O14   C46   A    
C35   C37   A    
N5    H19   S    
C1    C25   S    
O1    V2    S    
C52   O24   D    
C5    N3    S    
C8    N5    S    
C54   O26   D    
O9    C4    A    
C3    C24   S    
O19   V4    S    
C44   C53   S    
C34   C51   S    
N4    H17   S    
C19   C20   T    
C39   C44   A    
C49   O21   D    
H3    C43   S    
C15   H1    S    
C12   C13   A    
N1    H7    S    
C37   C45   S    
C25   C26   T    
O4    C2    A    
C51   H9    S    
C35   C36   A    
C13   C14   A    
C49   H5    S    
C31   C36   A    
C6    C54   S    
O2    C1    A    
V4    O20   S    
C17   C18   A    
C7    N4    S    
O11   C46   A    
C50   H8    S    
O13   V3    S    
C11   C12   A    
N2    H12   S    
C5    C6    A    
C4    C14   S    
O3    C4    A    
C41   C52   S    
C50   O22   D    
N3    H14   S    
O6    V2    S    
N3    H15   S    
C9    C11   A    
C29   C30   T    
V3    O20   S    
C28   C29   S    
O2    V1    S    
C37   C38   A    
O7    V1    S    
C38   C41   A    
C13   C18   A    
C31   C32   A    
C26   C27   S    
O1    C2    A    
C11   C47   S    
N1    H6    S    
O5    V1    S    
O8    C3    A    
C53   O25   D    
O13   C48   A    
C5    C10   A    
C33   C50   S    
C16   N6    S    
C7    C8    A    
O9    V2    S    
C43   C44   A    
O18   C47   A    
O3    V1    S    
V1    O10   S    
O18   V4    S    
C42   C43   A    
O15   V3    S    
C33   C34   A    
N2    H11   S    
O17   V4    S    
C36   C40   A    
O7    V2    S    
O17   V3    S    
N6    H22   S    
C19   C48   S    
O4    V1    S    
C17   C49   S    
C8    C9    A    
C22   C23   S    
C34   C35   A    
C10   C14   A    
C15   C16   A    
C30   C46   S    
C21   C22   T    
C31   N1    S    
C52   H10   S    
C9    C10   A    
V2    O10   S    
