data_mof_unit_62898.cif
_audit_creation_date              2012-10-26T18:42:19-0400
_audit_creation_method            fapswitch 2.2
_symmetry_space_group_name_H-M    P1
_symmetry_Int_Tables_number       1
_space_group_crystal_system       triclinic
_cell_length_a                    15.87155
_cell_length_b                    19.423341
_cell_length_c                    18.175964
_cell_angle_alpha                 90.130268
_cell_angle_beta                  90.583365
_cell_angle_gamma                 90.802913
_cell_volume                      5602.4024945

loop_
_atom_site_label
_atom_site_type_symbol
_atom_type_description
_atom_site_fract_x
_atom_site_fract_y
_atom_site_fract_z
_atom_type_partial_charge
Br1   Br    Br    0.927899 0.528746 0.334142 -0.398112
Br2   Br    Br    0.072101 0.471253 0.665858 -0.398101
Br3   Br    Br    0.513325 0.860363 0.337281 -0.446199
Br4   Br    Br    0.486589 0.139635 0.662716 -0.446188
C1    C     C_R   0.499678 0.367470 0.500026 0.554349
C2    C     C_R   0.500641 0.254565 0.434333 -0.109405
C3    C     C_R   0.501044 0.708201 0.499487 -0.014650
C4    C     C_R   0.498950 0.291797 0.500514 -0.014645
C5    C     C_R   0.566512 0.964977 0.533588 -0.083581
C6    C     C_R   0.433471 0.035022 0.466424 -0.083566
C7    C     C_R   0.565699 0.036672 0.534721 -0.059915
C8    C     C_R   0.434285 0.963327 0.465289 -0.059908
C9    C     C_R   0.498897 0.071923 0.501551 0.049858
C10   C     C_R   0.501089 0.928076 0.498457 0.049857
C11   C     C_R   0.445605 0.456447 0.718832 0.059298
C12   C     C_R   0.500320 0.632529 0.499974 0.554349
C13   C     C_R   0.554385 0.543561 0.281168 0.059304
C14   C     C_R   0.442039 0.454236 0.796287 0.209947
C15   C     C_R   0.557947 0.545775 0.203714 0.209947
C16   C     C_R   0.339669 0.499908 0.499655 0.563625
C17   C     C_R   0.660331 0.500092 0.500345 0.563627
C18   C     C_R   0.495657 0.497658 0.838862 -0.019818
C19   C     C_R   0.504341 0.502343 0.161138 -0.019815
C20   C     C_R   0.550546 0.542081 0.801291 -0.136505
C21   C     C_R   0.449463 0.457911 0.198709 -0.136502
C22   C     C_R   0.552285 0.542652 0.724144 0.374312
C23   C     C_R   0.504575 0.815593 0.431039 0.173118
C24   C     C_R   0.447721 0.457342 0.275856 0.374312
C25   C     C_R   0.489959 0.560906 0.960420 -0.089256
C26   C     C_R   0.510041 0.439093 0.039580 -0.089264
C27   C     C_R   0.493346 0.562477 0.037744 -0.041259
C28   C     C_R   0.506651 0.437522 0.962256 -0.041267
C29   C     C_R   0.504002 0.501635 0.078459 0.059212
C30   C     C_R   0.495997 0.498364 0.921541 0.059215
C31   C     C_3   0.971263 0.438292 0.523441 -0.108577
C32   C     C_3   0.028737 0.561707 0.476559 -0.108576
C33   C     C_3   0.026263 0.450115 0.454296 -0.102597
C34   C     C_R   0.495385 0.184407 0.568962 0.173121
C35   C     C_3   0.973737 0.549884 0.545704 -0.102596
C36   C     C_1   0.249990 0.499904 0.498947 0.036402
C37   C     C_1   0.750010 0.500096 0.501053 0.036404
C38   C     C_3   0.029028 0.488284 0.567626 0.187550
C39   C     C_3   0.970972 0.511716 0.432374 0.187550
C40   C     C_3   0.082826 0.499984 0.499189 0.015007
C41   C     C_3   0.917174 0.500015 0.500811 0.015008
C42   C     C_1   0.174465 0.499933 0.498790 0.017043
C43   C     C_1   0.825535 0.500067 0.501210 0.017043
C44   C     C_R   0.503959 0.743834 0.432370 -0.084386
C45   C     C_R   0.501895 0.852615 0.497622 0.025669
C46   C     C_R   0.496005 0.256165 0.567630 -0.084388
C47   C     C_R   0.498092 0.147384 0.502382 0.025662
C48   C     C_R   0.499972 0.817127 0.564667 -0.137722
C49   C     C_R   0.500045 0.182869 0.435337 -0.137722
C50   C     C_R   0.499376 0.745432 0.565668 -0.109408
Cl1   Cl    Cl    0.366692 0.399474 0.837075 -0.530243
Cl2   Cl    Cl    0.633272 0.600558 0.162927 -0.530267
Cl3   Cl    Cl    0.623619 0.599834 0.682220 -0.552731
Cl4   Cl    Cl    0.376392 0.400157 0.317780 -0.552722
Cu1   Cu    Cu3+1 0.499980 0.500000 0.573360 1.046638
Cu2   Cu    Cu3+1 0.500020 0.500000 0.426640 1.046640
H1    H     H_    0.048740 0.409566 0.416405 0.162556
H2    H     H_    0.513570 0.388735 0.934185 0.168556
H3    H     H_    0.946771 0.387888 0.543196 0.154118
H4    H     H_    0.053229 0.612112 0.456804 0.154119
H5    H     H_    0.506343 0.716065 0.380702 0.170455
H6    H     H_    0.493600 0.283934 0.619297 0.170450
H7    H     H_    0.498097 0.845091 0.616263 0.144705
H8    H     H_    0.501940 0.154903 0.383743 0.144711
H9    H     H_    0.497357 0.719257 0.618178 0.179164
H10   H     H_    0.502681 0.280739 0.381824 0.179151
H11   H     H_    0.618377 0.938228 0.559440 0.133915
H12   H     H_    0.951260 0.590433 0.583596 0.162557
H13   H     H_    0.381602 0.061771 0.440578 0.133927
H14   H     H_    0.617114 0.064740 0.561223 0.150460
H15   H     H_    0.382868 0.935259 0.438790 0.150475
H16   H     H_    0.404065 0.423348 0.686565 0.172606
H17   H     H_    0.595920 0.576665 0.313435 0.172608
H18   H     H_    0.592858 0.576021 0.831943 0.159182
H19   H     H_    0.407159 0.423965 0.168057 0.159178
H20   H     H_    0.481805 0.608709 0.930803 0.131719
H21   H     H_    0.518198 0.391290 0.069198 0.131713
H22   H     H_    0.486422 0.611263 0.065816 0.168573
N1    N     N_R   0.499990 0.500020 0.683620 -0.251406
N2    N     N_R   0.500010 0.499980 0.316380 -0.251408
O1    O     O_R   0.499960 0.400180 0.561980 -0.525525
O2    O     O_R   0.500040 0.599820 0.438020 -0.525528
O3    O     O_R   0.500000 0.400190 0.438070 -0.456341
O4    O     O_R   0.500000 0.599810 0.561930 -0.456347
O5    O     O_R   0.379060 0.499990 0.561940 -0.507517
O6    O     O_R   0.620940 0.500010 0.438060 -0.507513
O7    O     O_R   0.379100 0.500000 0.438040 -0.443747
O8    O     O_R   0.620900 0.500000 0.561960 -0.443742

loop_
_geom_bond_atom_site_label_1
_geom_bond_atom_site_label_2
_ccdc_geom_bond_type
C15   Cl2   S    
C23   C44   A    
C11   C14   A    
C22   N1    A    
C24   N2    A    
Cu2   N2    S    
C21   C24   A    
C36   C42   T    
C25   H20   S    
C27   H22   S    
C2    C4    A    
C31   C33   S    
Cu1   N1    S    
C16   C36   S    
C6    H13   S    
C10   C45   S    
Cu1   O5    S    
C31   C38   S    
C49   H8    S    
Cu1   O4    S    
C9    C47   S    
Br1   C39   S    
C48   C50   A    
C19   C29   S    
C35   H12   S    
C27   C29   A    
C44   H5    S    
C35   C41   S    
C1    O1    A    
C11   H16   S    
Cu1   Cu2   S    
C21   H19   S    
C12   O2    A    
C38   C40   S    
Cu2   O3    S    
C40   C42   S    
C35   C38   S    
C17   O6    A    
C41   C43   S    
C18   C30   S    
C16   O7    A    
Cu2   O2    S    
C11   N1    A    
C34   C47   A    
C25   C30   A    
C6    C9    A    
C47   C49   A    
C28   C30   A    
C33   C39   S    
C15   C19   A    
C5    C10   A    
Cu1   O1    S    
C39   C41   S    
C45   C48   A    
C13   H17   S    
C37   C43   T    
C46   H6    S    
C48   H7    S    
C6    C8    A    
C14   Cl1   S    
C17   C37   S    
C20   H18   S    
C3    C12   S    
C8    C10   A    
Cu2   O6    S    
C5    C7    A    
C18   C20   A    
C32   C40   S    
C2    C49   A    
C31   C41   S    
C4    C46   A    
Cu2   O7    S    
C2    H10   S    
C26   C29   A    
C14   C18   A    
C32   C35   S    
C5    H11   S    
C20   C22   A    
C7    H14   S    
C1    C4    S    
C33   H1    S    
C34   C46   A    
C24   Cl4   S    
C16   O5    A    
C13   N2    A    
C3    C44   A    
C26   H21   S    
Br3   C23   S    
C28   H2    S    
C25   C27   A    
C32   H4    S    
C26   C28   A    
C7    C9    A    
C50   H9    S    
Br2   C38   S    
C13   C15   A    
Cu1   O8    S    
C19   C21   A    
C22   Cl3   S    
C1    O3    A    
C33   C40   S    
C8    H15   S    
C12   O4    A    
C32   C39   S    
C31   H3    S    
C3    C50   A    
Br4   C34   S    
C23   C45   A    
C17   O8    A    
