data_mof_unit_12229.cif
_audit_creation_date              2012-12-10T17:15:09-0500
_audit_creation_method            fapswitch 2.2
_symmetry_space_group_name_H-M    P1
_symmetry_Int_Tables_number       1
_space_group_crystal_system       triclinic
_cell_length_a                    10.100839
_cell_length_b                    10.771318
_cell_length_c                    12.891705
_cell_angle_alpha                 91.992747
_cell_angle_beta                  92.103497
_cell_angle_gamma                 96.32882
_cell_volume                      1392.05729999

loop_
_atom_site_label
_atom_site_type_symbol
_atom_type_description
_atom_site_fract_x
_atom_site_fract_y
_atom_site_fract_z
_atom_type_partial_charge
C1    C     C_R   0.443602 0.267025 0.490009 0.978787
C2    C     C_R   0.656323 0.431080 0.041585 0.456854
C3    C     C_R   0.353706 0.560693 0.851533 -0.206832
C4    C     C_R   0.647738 0.442120 0.148513 -0.191940
C5    C     C_R   0.556781 0.461246 0.871040 -0.138323
C6    C     C_R   0.444259 0.540964 0.129108 -0.140433
C7    C     C_R   0.554408 0.473498 0.977879 -0.021703
C8    C     C_R   0.447498 0.530127 0.022222 -0.016816
C9    C     C_2   0.406582 0.134133 0.490416 -0.355580
C10   C     C_2   0.593401 0.865869 0.509506 -0.350102
C11   C     C_2   0.498432 0.057311 0.470085 0.330638
C12   C     C_R   0.556397 0.732977 0.509973 0.978386
C13   C     C_2   0.501549 0.942696 0.529835 0.330316
C14   C     C_2   0.070978 0.490144 0.508510 -0.067394
C15   C     C_2   0.929027 0.509888 0.491517 -0.064124
C16   C     C_R   0.474432 0.502846 0.698467 0.947375
C17   C     C_R   0.525637 0.497341 0.301545 0.948119
C18   C     C_R   0.541191 0.494712 0.191338 -0.157025
C19   C     C_R   0.459442 0.506764 0.808737 -0.152117
C20   C     C_R   0.346021 0.573226 0.958474 0.452724
H1    H     H_    0.365238 0.583937 0.165452 0.233340
H2    H     H_    0.132965 0.612679 0.404693 0.195810
H3    H     H_    0.190193 0.800293 0.115031 0.397001
H4    H     H_    0.948844 0.418866 0.885261 0.395132
H5    H     H_    0.317397 0.016503 0.759878 0.407780
H6    H     H_    0.682392 0.983444 0.239981 0.408128
H7    H     H_    0.635023 0.417020 0.834769 0.232784
H8    H     H_    0.722412 0.407235 0.198702 0.224917
H9    H     H_    0.279014 0.595447 0.801280 0.223645
H10   H     H_    0.683039 0.895505 0.469284 0.195394
H11   H     H_    0.316917 0.104476 0.530598 0.195390
H12   H     H_    0.901005 0.576110 0.435366 0.164724
H13   H     H_    0.099000 0.423932 0.564670 0.160961
H14   H     H_    0.867038 0.387337 0.595320 0.193261
N1    N     N_2   0.162330 0.550370 0.457540 -0.173158
N2    N     N_2   0.837670 0.449630 0.542460 -0.174632
O1    O     O_R   0.567930 0.307680 0.508550 -0.554816
O2    O     O_2   0.130458 0.553624 0.074366 -0.268556
O3    O     O_3   0.269270 0.772121 0.081969 -0.527906
O4    O     O_2   0.889058 0.334274 0.077937 -0.235302
O5    O     O_2   0.744916 0.244155 0.931108 -0.274093
O6    O     O_3   0.875737 0.463418 0.912177 -0.511220
O7    O     O_2   0.253109 0.867381 0.588222 -0.291359
O8    O     O_2   0.436654 0.809369 0.699871 -0.284832
O9    O     O_3   0.386062 0.039586 0.708920 -0.555342
O10   O     O_2   0.563430 0.190752 0.300110 -0.290259
O11   O     O_2   0.746903 0.132427 0.411668 -0.289748
O12   O     O_R   0.432070 0.692320 0.491450 -0.556574
O13   O     O_3   0.613683 0.960431 0.290919 -0.554641
O14   O     O_R   0.351090 0.340020 0.481290 -0.619897
O15   O     O_R   0.648910 0.659980 0.518710 -0.618645
O16   O     O_R   0.590490 0.486480 0.665020 -0.613418
O17   O     O_R   0.409510 0.513520 0.334980 -0.615675
O18   O     O_R   0.373660 0.518820 0.637760 -0.609290
O19   O     O_R   0.626340 0.481180 0.362240 -0.606859
O20   O     O_2   0.120920 0.682719 0.922025 -0.240757
S1    S     S_3+6 0.209972 0.644582 0.008514 0.047484
S2    S     S_3+6 0.794516 0.363119 0.991519 0.062368
S3    S     S_3+6 0.390660 0.909617 0.633448 0.042076
S4    S     S_3+6 0.609301 0.090380 0.366460 0.039061
Zn1   Zn    Zn3+2 0.644780 0.478400 0.518200 1.045098
Zn2   Zn    Zn3+2 0.355220 0.521600 0.481800 1.041811

loop_
_geom_bond_atom_site_label_1
_geom_bond_atom_site_label_2
_ccdc_geom_bond_type
O1    Zn1   S    
C2    S2    S    
C3    C19   A    
C5    C19   A    
H5    O9    S    
O2    S1    D    
H4    O6    S    
C1    O14   A    
C17   O19   A    
C2    C4    A    
C2    C7    A    
O15   Zn1   S    
O7    S3    D    
C12   O12   A    
C4    C18   A    
O6    S2    S    
C14   H13   S    
C17   C18   S    
O11   S4    D    
C7    C8    A    
C3    C20   A    
C11   S4    S    
H2    N1    S    
C11   C13   S    
C8    C20   A    
O13   S4    S    
C10   C12   S    
C16   C19   S    
C13   S3    S    
O19   Zn1   S    
C4    H8    S    
O5    S2    D    
N1    Zn2   S    
H14   N2    S    
O16   Zn1   S    
C9    C11   D    
C6    C18   A    
C16   O18   A    
O14   Zn2   S    
O4    S2    D    
C9    H11   S    
O8    S3    D    
N2    Zn1   S    
O3    S1    S    
C17   O17   A    
C15   N2    D    
C15   H12   S    
C12   O15   A    
C1    C9    S    
O20   S1    D    
C3    H9    S    
O17   Zn2   S    
H6    O13   S    
C14   N1    D    
C5    C7    A    
C10   H10   S    
C14   C15   S    
O9    S3    S    
C6    C8    A    
O18   Zn2   S    
O10   S4    D    
C20   S1    S    
C5    H7    S    
C6    H1    S    
O12   Zn2   S    
H3    O3    S    
C16   O16   A    
C1    O1    A    
C10   C13   D    
