data_mof_unit_46782.cif
_audit_creation_date              2012-12-10T19:11:05-0500
_audit_creation_method            fapswitch 2.2
_symmetry_space_group_name_H-M    P1
_symmetry_Int_Tables_number       1
_space_group_crystal_system       triclinic
_cell_length_a                    10.817753
_cell_length_b                    9.084187
_cell_length_c                    7.779542
_cell_angle_alpha                 89.998382
_cell_angle_beta                  89.677159
_cell_angle_gamma                 90.052741
_cell_volume                      764.486953048

loop_
_atom_site_label
_atom_site_type_symbol
_atom_type_description
_atom_site_fract_x
_atom_site_fract_y
_atom_site_fract_z
_atom_type_partial_charge
C1    C     C_R   0.499922 0.220018 0.500001 0.894604
C2    C     C_R   0.259404 0.499414 0.500693 0.974676
C3    C     C_R   0.740655 0.499812 0.499316 0.976561
C4    C     C_R   0.499525 0.779969 0.500005 0.760982
C5    C     C_1   0.499709 0.065367 0.500001 -0.082042
C6    C     C_3   0.069789 0.424009 0.665265 0.937916
C7    C     C_3   0.072034 0.418117 0.341596 0.960233
C8    C     C_3   0.927896 0.441428 0.672850 0.966842
C9    C     C_3   0.929916 0.402163 0.352425 0.923948
C10   C     C_1   0.499555 0.934596 0.500000 -0.133684
C11   C     C_3   0.074477 0.675004 0.499881 0.123471
C12   C     C_3   0.926731 0.673034 0.468006 0.119373
C13   C     C_3   0.121820 0.506786 0.501825 -0.563709
C14   C     C_3   0.878371 0.506788 0.497754 -0.562418
Cu1   Cu    Cu3+1 0.500000 0.500010 0.669080 1.121682
Cu2   Cu    Cu3+1 0.500000 0.500010 0.330920 1.113587
N1    N     N_1   0.500000 0.499970 0.076820 0.004016
N2    N     N_1   0.500000 0.499970 0.923180 0.006357
O1    O     O_R   0.500000 0.288400 0.642760 -0.566770
O2    O     O_R   0.500000 0.288400 0.357240 -0.565589
O3    O     O_R   0.317700 0.499990 0.642790 -0.544628
O4    O     O_R   0.317700 0.499990 0.357210 -0.536043
O5    O     O_R   0.682300 0.499990 0.642790 -0.528566
O6    O     O_R   0.682300 0.499990 0.357210 -0.552474
O7    O     O_R   0.500000 0.711620 0.642810 -0.595888
O8    O     O_R   0.500000 0.711620 0.357190 -0.600813
F1    F     F_    0.120831 0.474205 0.817526 -0.547339
F2    F     F_    0.104607 0.485166 0.188343 -0.573671
F3    F     F_    0.895328 0.528680 0.811577 -0.601156
F4    F     F_    0.878672 0.430550 0.192811 -0.540148
F5    F     F_    0.099827 0.275558 0.656518 -0.568110
F6    F     F_    0.125090 0.278921 0.335693 -0.564163
F7    F     F_    0.874729 0.304728 0.704921 -0.543552
F8    F     F_    0.899449 0.256955 0.389342 -0.582747
C15   C     C_3   0.109134 0.753715 0.672717 -0.643488
H1    H     H_    0.056459 0.714110 0.785302 0.285366
H2    H     H_    0.208829 0.741387 0.701921 0.237169
H3    H     H_    0.091968 0.874141 0.665497 0.251621
C16   C     C_3   0.146053 0.769856 0.363127 -0.641893
H4    H     H_    0.245655 0.778267 0.394674 0.201267
H5    H     H_    0.141170 0.728232 0.230328 0.274742
H6    H     H_    0.110701 0.884649 0.362068 0.257578
C17   C     C_3   0.855648 0.785242 0.585533 -0.641134
H7    H     H_    0.860598 0.762446 0.724347 0.269586
H8    H     H_    0.891308 0.898705 0.565187 0.265442
H9    H     H_    0.756001 0.788620 0.553303 0.193777
C18   C     C_3   0.893052 0.727962 0.282595 -0.622356
H10   H     H_    0.793119 0.715995 0.255737 0.244452
H11   H     H_    0.912878 0.847267 0.267245 0.237021
H12   H     H_    0.944349 0.671824 0.178802 0.300114

loop_
_geom_bond_atom_site_label_1
_geom_bond_atom_site_label_2
_ccdc_geom_bond_type
C2    O4    A    
Cu1   N2    S    
Cu1   O1    S    
C9    C14   S    
C7    F6    S    
C18   H12   S    
C17   H8    S    
Cu2   O6    S    
C3    O5    A    
C15   H1    S    
Cu2   O2    S    
C11   C12   S    
C2    O3    A    
Cu1   O5    S    
N1    N2    T    
C5    C10   T    
C18   H11   S    
C6    C13   S    
C11   C16   S    
C11   C13   S    
C3    O6    A    
C3    C14   S    
C9    F4    S    
C12   C18   S    
C1    C5    S    
C8    F3    S    
C11   C15   S    
C15   H2    S    
C12   C14   S    
C6    F5    S    
C16   H6    S    
C8    F7    S    
C17   H7    S    
Cu2   O8    S    
C9    F8    S    
C17   H9    S    
C8    C14   S    
C4    O8    A    
Cu1   O7    S    
C1    O1    A    
C4    C10   S    
Cu1   Cu2   S    
C18   H10   S    
C4    O7    A    
Cu1   O3    S    
C15   H3    S    
C16   H5    S    
C16   H4    S    
C7    C9    S    
C2    C13   S    
C1    O2    A    
C6    C8    S    
C7    C13   S    
C12   C17   S    
C7    F2    S    
C6    F1    S    
Cu2   O4    S    
Cu2   N1    S    
