data_mof_unit_39010.cif
_audit_creation_date              2013-03-05T16:01:58-0500
_audit_creation_method            fapswitch 2.2
_symmetry_space_group_name_H-M    P1
_symmetry_Int_Tables_number       1
_space_group_crystal_system       triclinic
_cell_length_a                    14.862049
_cell_length_b                    14.186445
_cell_length_c                    14.096218
_cell_angle_alpha                 90.009893
_cell_angle_beta                  89.557089
_cell_angle_gamma                 90.007349
_cell_volume                      2971.952671

loop_
_atom_site_label
_atom_site_type_symbol
_atom_site_description
_atom_site_fract_x
_atom_site_fract_y
_atom_site_fract_z
_atom_type_partial_charge
O1    O     O_R   0.367850 0.580280 0.500020 -0.556717
O2    O     O_R   0.632150 0.419720 0.499980 -0.554227
O3    O     O_R   0.632150 0.580280 0.499980 -0.556481
O4    O     O_R   0.367850 0.419720 0.500020 -0.555030
C1    C     C_R   0.326805 0.500192 0.503512 0.931929
C2    C     C_R   0.673195 0.500206 0.496483 0.931934
O5    O     O_R   0.500000 0.580290 0.373720 -0.570381
O6    O     O_R   0.500000 0.419710 0.626280 -0.580612
O7    O     O_R   0.500000 0.580290 0.626280 -0.570405
O8    O     O_R   0.500000 0.419710 0.373720 -0.580353
C3    C     C_R   0.500341 0.500094 0.329383 0.869586
C4    C     C_R   0.499659 0.500107 0.670617 0.870031
Zn1   Zn    Zn3+2 0.500000 0.607200 0.500000 1.095738
Zn2   Zn    Zn3+2 0.500000 0.392800 0.500000 1.091722
C5    C     C_1   0.500147 0.500602 0.227906 -0.017077
C6    C     C_1   0.499860 0.500640 0.772095 -0.016338
C7    C     C_1   0.500070 0.500981 0.142568 0.111726
C8    C     C_1   0.499942 0.501015 0.857432 0.111744
C9    C     C_1   0.500026 0.501196 0.042677 0.098259
C10   C     C_1   0.499990 0.501208 0.957324 0.098232
C11   C     C_R   0.817998 0.501858 0.413337 0.333282
C12   C     C_R   0.181990 0.501513 0.586621 0.332921
C13   C     C_R   0.769689 0.503284 0.499692 -0.111459
C14   C     C_R   0.230312 0.503223 0.500288 -0.111471
C15   C     C_R   0.811387 0.525200 0.586570 0.116782
C16   C     C_R   0.188623 0.525345 0.413473 0.117027
C17   C     C_R   0.904927 0.538408 0.586755 0.067387
C18   C     C_R   0.095090 0.538576 0.413326 0.067405
C19   C     C_R   0.952852 0.538652 0.499859 -0.024903
C20   C     C_R   0.047160 0.538619 0.500220 -0.024743
C21   C     C_R   0.907190 0.534266 0.412570 -0.112994
C22   C     C_R   0.092819 0.533956 0.587494 -0.112864
C23   C     C_R   0.951883 0.555594 0.671059 -0.213351
C24   C     C_R   0.048153 0.556000 0.329074 -0.213381
C25   C     C_R   0.045321 0.558201 0.671453 0.456991
C26   C     C_R   0.954721 0.558694 0.328686 0.456958
H1    H     H_    0.916766 0.569552 0.737049 0.206141
H2    H     H_    0.083287 0.570100 0.263127 0.206192
C27   C     C_R   0.539658 0.801013 0.427078 0.423315
C28   C     C_R   0.511626 0.198199 0.583321 0.482178
C29   C     C_R   0.460327 0.801014 0.572935 0.422692
C30   C     C_R   0.488415 0.198168 0.416674 0.483049
N1    N     N_R   0.500000 0.750030 0.500000 -0.205047
N2    N     N_R   0.500000 0.249970 0.500000 -0.194987
C31   C     C_R   0.481001 0.898708 0.582973 -0.230453
C32   C     C_R   0.509832 0.099472 0.414565 -0.211723
C33   C     C_R   0.518956 0.898682 0.417042 -0.231175
C34   C     C_R   0.490157 0.099506 0.585453 -0.211590
C35   C     C_R   0.499972 0.949394 0.500005 -0.062098
C36   C     C_R   0.499976 0.049360 0.500006 -0.045119
C37   C     C_R   0.475911 0.947571 0.670229 0.390790
C38   C     C_R   0.529425 0.047551 0.329660 0.379024
C39   C     C_R   0.524068 0.947516 0.329796 0.390950
C40   C     C_R   0.470619 0.047618 0.670380 0.378906
S1    S     S_3+6 0.776172 0.434542 0.316251 0.106821
O9    O     O_2   0.714764 0.494044 0.256863 -0.265143
O10   O     O_2   0.852117 0.398241 0.255524 -0.193318
O11   O     O_3   0.719471 0.340301 0.356903 -0.478404
H3    H     H_    0.657267 0.348977 0.334019 0.395269
S2    S     S_3+6 0.223749 0.433774 0.683405 0.107305
O12   O     O_2   0.285467 0.492889 0.742859 -0.265709
O13   O     O_2   0.147809 0.397546 0.744175 -0.192789
O14   O     O_3   0.280035 0.339452 0.642298 -0.478188
H4    H     H_    0.342409 0.348039 0.664665 0.395307
C41   C     C_3   0.758128 0.529323 0.679134 -0.803747
H5    H     H_    0.686201 0.511429 0.671752 0.215752
H6    H     H_    0.786090 0.477988 0.730528 0.243719
H7    H     H_    0.761864 0.601511 0.709292 0.264059
C42   C     C_3   0.241888 0.529640 0.320923 -0.803716
H8    H     H_    0.238203 0.601894 0.290945 0.264044
H9    H     H_    0.313802 0.511692 0.328268 0.215809
H10   H     H_    0.213898 0.478421 0.269404 0.243734
S3    S     S_3+6 0.095925 0.616891 0.768510 0.126262
O15   O     O_2   0.108051 0.550338 0.850314 -0.196798
O16   O     O_2   0.185077 0.657879 0.739562 -0.164539
O17   O     O_3   0.027855 0.705097 0.803848 -0.527924
H11   H     H_    0.059410 0.735078 0.857654 0.407118
S4    S     S_3+6 0.904207 0.617718 0.231810 0.126270
O18   O     O_2   0.891788 0.551357 0.149873 -0.196543
O19   O     O_2   0.815213 0.658930 0.260961 -0.164221
O20   O     O_3   0.972501 0.705782 0.196575 -0.528222
H12   H     H_    0.940971 0.735957 0.142876 0.407115
S5    S     S_3+6 0.644301 0.763885 0.377366 0.143618
O21   O     O_2   0.631900 0.681526 0.312155 -0.177421
O22   O     O_2   0.688564 0.842174 0.322427 -0.203997
O23   O     O_3   0.715031 0.734650 0.465025 -0.514756
H13   H     H_    0.715898 0.790274 0.507507 0.355577
S6    S     S_3+6 0.586514 0.236981 0.674113 0.103233
O24   O     O_2   0.536773 0.289624 0.750567 -0.255858
O25   O     O_2   0.630935 0.152672 0.718367 -0.236790
O26   O     O_3   0.668883 0.305080 0.630237 -0.519543
H14   H     H_    0.708386 0.318472 0.684868 0.378584
S7    S     S_3+6 0.355673 0.763857 0.622623 0.143766
O27   O     O_2   0.368065 0.681499 0.687800 -0.177646
O28   O     O_2   0.311404 0.842137 0.677574 -0.203447
O29   O     O_3   0.284957 0.734609 0.534941 -0.514359
H15   H     H_    0.284951 0.789767 0.491868 0.355032
S8    S     S_3+6 0.413803 0.237016 0.325678 0.103122
O30   O     O_2   0.463830 0.289474 0.249307 -0.255962
O31   O     O_2   0.369303 0.152752 0.281369 -0.237026
O32   O     O_3   0.331493 0.305353 0.369303 -0.519720
H16   H     H_    0.292037 0.318639 0.314608 0.378557
S9    S     S_3+6 0.501181 0.886002 0.777457 0.124607
O33   O     O_2   0.417396 0.868758 0.835159 -0.175055
O34   O     O_2   0.544973 0.792866 0.755632 -0.302940
O35   O     O_3   0.573269 0.950547 0.841918 -0.465556
H17   H     H_    0.578897 0.916283 0.902816 0.403637
S10   S     S_3+6 0.584770 0.102549 0.231757 0.154655
O36   O     O_2   0.519993 0.118662 0.152078 -0.151704
O37   O     O_2   0.624811 0.194858 0.261239 -0.261554
O38   O     O_3   0.669095 0.033295 0.192925 -0.458953
H18   H     H_    0.694220 0.066324 0.136776 0.406166
S11   S     S_3+6 0.498765 0.885957 0.222555 0.124912
O39   O     O_2   0.582556 0.868556 0.164912 -0.174008
O40   O     O_2   0.454800 0.792904 0.244365 -0.303307
O41   O     O_3   0.426838 0.950605 0.158041 -0.465759
H19   H     H_    0.421238 0.916371 0.097112 0.403481
S12   S     S_3+6 0.415599 0.102723 0.768443 0.154888
O42   O     O_2   0.480615 0.118705 0.847946 -0.152714
O43   O     O_2   0.375661 0.195123 0.739162 -0.260489
O44   O     O_3   0.331224 0.033620 0.807451 -0.458639
H20   H     H_    0.307758 0.065473 0.865077 0.406135

loop_
_geom_bond_atom_site_label_1
_geom_bond_atom_site_label_2
_geom_bond_distance
_ccdc_geom_bond_type
O5    Zn1   1.820483 S    
S1    O9    1.502843 D    
S7    O27   1.498718 D    
C17   C19   1.412177 A    
S3    O16   1.500571 D    
S3    O15   1.502411 D    
O38   H18   0.990435 S    
O3    C2    1.290221 A    
O20   H12   0.990684 S    
C33   C35   1.399811 A    
C17   C23   1.404055 A    
O5    C3    1.297954 A    
C11   C21   1.402941 A    
O32   H16   0.990397 S    
C12   C22   1.402923 A    
S2    O14   1.678854 S    
O1    C1    1.290265 A    
C27   C33   1.426663 A    
C14   C16   1.411335 A    
C30   S8    1.789158 S    
C12   S2    1.784277 S    
S4    O19   1.500575 D    
O35   H17   0.990673 S    
C31   C37   1.413280 A    
C37   S9    1.788276 S    
C32   C38   1.433221 A    
S10   O36   1.502497 D    
S2    O13   1.502256 D    
C30   C32   1.436160 A    
C42   H9    1.104378 S    
O7    Zn1   1.820611 S    
S12   O42   1.502536 D    
C23   C25   1.389217 A    
C3    C5    1.430495 S    
C29   S7    1.780645 S    
C4    C6    1.430499 S    
C41   H6    1.110323 S    
C24   C26   1.389175 A    
O3    Zn1   2.000849 S    
C33   C39   1.413172 A    
S11   O41   1.681203 S    
C34   C36   1.405391 A    
C18   C24   1.403977 A    
S7    O28   1.502700 D    
C29   N1    1.385020 A    
O2    C2    1.295246 A    
C30   N2    1.397186 A    
C39   S11   1.788172 S    
C22   C25   1.415739 A    
C15   C41   1.521997 S    
O17   H11   0.990665 S    
O8    Zn2   1.820612 S    
O26   H14   0.990324 S    
C11   S1    1.784334 S    
S4    O18   1.502417 D    
C27   N1    1.384891 A    
O11   H3    0.989203 S    
C23   H1    1.081355 S    
S2    O12   1.502829 D    
S12   O44   1.680788 S    
C42   H10   1.110322 S    
C34   C40   1.433253 A    
C19   C20   1.401663 A    
S5    O21   1.498759 D    
S6    O26   1.674113 S    
C31   C35   1.399818 A    
O6    C4    1.300460 A    
C41   H7    1.110297 S    
O29   H15   0.990513 S    
S9    O34   1.503659 D    
S1    O10   1.502334 D    
O44   H20   0.990556 S    
S5    O22   1.502742 D    
S6    O25   1.504116 D    
C35   C36   1.418169 A    
S7    O29   1.680530 S    
S8    O31   1.504141 D    
C40   S12   1.781276 S    
S3    O17   1.682183 S    
C12   C14   1.408494 A    
O1    Zn1   2.000755 S    
C41   H5    1.104364 S    
Zn1   N1    2.026250 S    
C38   C39   1.421365 A    
O23   H13   0.990665 S    
Zn2   N2    2.026251 S    
S11   O39   1.502106 D    
C5    C7    1.202960 T    
C28   C34   1.436231 A    
C25   S3    1.773695 S    
O6    Zn2   1.820482 S    
C24   H2    1.081373 S    
O4    C1    1.295194 A    
C15   C17   1.402773 A    
S8    O32   1.674198 S    
C32   C36   1.405334 A    
C16   C18   1.402750 A    
S10   O38   1.680774 S    
C37   C40   1.421496 A    
C28   S6    1.789132 S    
C9    C10   1.203153 T    
C11   C13   1.408600 A    
C27   S5    1.780547 S    
C19   C21   1.411125 A    
C26   S4    1.773683 S    
C20   C22   1.411129 A    
S4    O20   1.682190 S    
C1    C14   1.435798 S    
C2    C13   1.435811 S    
C18   C20   1.412181 A    
C7    C9    1.408103 S    
S10   O37   1.498392 D    
O41   H19   0.990646 S    
S9    O35   1.681194 S    
C8    C10   1.408103 S    
C13   C15   1.411395 A    
O4    Zn2   2.000851 S    
C42   H8    1.110312 S    
O2    Zn2   2.000753 S    
O7    C4    1.297975 A    
S12   O43   1.498366 D    
O8    C3    1.300479 A    
O14   H4    0.988977 S    
C28   N2    1.397216 A    
S5    O23   1.680541 S    
S6    O24   1.501075 D    
C38   S10   1.781162 S    
C6    C8    1.202961 T    
S8    O30   1.501109 D    
S1    O11   1.678820 S    
S9    O33   1.502115 D    
C16   C42   1.521985 S    
C29   C31   1.426786 A    
C21   C26   1.415797 A    
S11   O40   1.503631 D    
