data_mof_unit_6548.cif
_audit_creation_date              2012-12-11T16:21:59-0500
_audit_creation_method            fapswitch 2.2
_symmetry_space_group_name_H-M    P1
_symmetry_Int_Tables_number       1
_space_group_crystal_system       triclinic
_cell_length_a                    13.47479
_cell_length_b                    14.026769
_cell_length_c                    29.942199
_cell_angle_alpha                 97.65748
_cell_angle_beta                  89.899566
_cell_angle_gamma                 118.752844
_cell_volume                      4904.61200143

loop_
_atom_site_label
_atom_site_type_symbol
_atom_type_description
_atom_site_fract_x
_atom_site_fract_y
_atom_site_fract_z
_atom_type_partial_charge
C1    C     C_R   0.720968 0.099133 0.568993 0.546652
C2    C     C_R   0.381693 0.700735 0.681451 -0.011658
C3    C     C_R   0.292336 0.714223 0.666489 -0.105792
C4    C     C_R   0.277381 0.723206 0.621133 0.000853
C5    C     C_R   0.265548 0.649380 0.828211 -0.164186
C6    C     C_R   0.235276 0.624420 0.871272 0.036287
C7    C     C_R   0.429058 0.661651 0.890258 -0.040689
C8    C     C_R   0.458256 0.688345 0.846036 0.080600
C9    C     C_R   0.373014 0.674833 0.814691 -0.026167
C10   C     C_1   0.390883 0.687874 0.768030 0.022818
C11   C     C_1   0.393042 0.694598 0.728420 -0.020844
C12   C     C_R   0.382357 0.786319 0.550916 0.525700
C13   C     C_R   0.313060 0.618319 0.901227 -0.014004
C14   C     C_3   0.257746 0.176117 0.728718 -0.105640
C15   C     C_3   0.219316 0.078209 0.755241 0.035014
C16   C     C_1   0.301851 0.191501 0.878377 0.015942
C17   C     C_1   0.365823 0.130625 0.614777 -0.017029
C18   C     C_3   0.358861 0.245028 0.764024 0.080720
C19   C     C_3   0.319522 0.147995 0.790548 0.026782
C20   C     C_3   0.433954 0.206663 0.737076 -0.092793
C21   C     C_3   0.332293 0.136390 0.702260 0.007015
C22   C     C_3   0.393915 0.108250 0.763795 -0.136405
C23   C     C_R   0.397228 0.117963 0.569779 0.543677
C24   C     C_3   0.292741 0.037211 0.727908 -0.097535
C25   C     C_1   0.311470 0.165877 0.839348 -0.026407
C26   C     C_1   0.346510 0.134234 0.653940 -0.058017
C27   C     C_3   0.864307 0.288305 0.735392 0.039634
C28   C     C_3   0.772525 0.228749 0.768130 0.075921
C29   C     C_1   0.899787 0.208372 0.878180 0.029494
C30   C     C_1   0.768277 0.133484 0.614375 -0.016713
C31   C     C_3   0.945216 0.256920 0.758408 0.014867
C32   C     C_3   0.853176 0.197718 0.790950 0.024749
C33   C     C_3   0.897690 0.147554 0.725322 -0.094949
C34   C     C_R   0.719415 0.095012 0.442359 0.540475
C35   C     C_3   0.816863 0.178625 0.702850 0.006224
C36   C     C_3   0.805356 0.090040 0.757716 0.011158
C37   C     C_3   0.723555 0.119686 0.734811 -0.114677
C38   C     C_1   0.874333 0.202807 0.839189 -0.004438
C39   C     C_1   0.794944 0.157788 0.654069 -0.065396
C40   C     C_3   0.248781 0.609926 0.259207 0.038058
C41   C     C_3   0.274878 0.700021 0.229625 -0.087530
C42   C     C_1   0.309468 0.607260 0.111184 0.002035
C43   C     C_1   0.368314 0.736419 0.378364 -0.012143
C44   C     C_3   0.315459 0.565383 0.229497 -0.057918
C45   C     C_R   0.382456 0.784201 0.424525 0.546501
C46   C     C_3   0.343057 0.656848 0.200448 0.034394
C47   C     C_3   0.425226 0.644227 0.260077 -0.083034
C48   C     C_3   0.356955 0.687252 0.289220 0.038441
C49   C     C_3   0.452713 0.734937 0.230066 -0.108844
C50   C     C_3   0.384647 0.778320 0.260047 -0.113209
C51   C     C_1   0.329246 0.635138 0.151271 -0.038217
C52   C     C_1   0.362230 0.708987 0.338341 -0.053165
C53   C     C_R   0.353462 0.136875 0.402528 -0.009354
C54   C     C_R   0.407749 0.242477 0.389994 -0.130629
C55   C     C_R   0.384664 0.259451 0.346896 0.066684
C56   C     C_R   0.395765 0.115117 0.443213 0.545480
C57   C     C_R   0.306838 0.167349 0.316057 0.011146
C58   C     C_R   0.245992 0.064269 0.329935 -0.144764
C59   C     C_R   0.268375 0.049154 0.372985 -0.137334
C60   C     C_R   0.227959 0.095773 0.150200 0.018458
C61   C     C_R   0.230122 0.106433 0.103943 0.009656
C62   C     C_R   0.417500 0.270877 0.118709 -0.021775
C63   C     C_R   0.412950 0.262143 0.165345 0.050573
C64   C     C_R   0.315938 0.177315 0.180854 -0.050608
C65   C     C_1   0.306834 0.173833 0.228656 0.075999
C66   C     C_1   0.303339 0.171417 0.268553 0.069267
C67   C     C_R   0.361641 0.727094 0.591051 0.017840
C68   C     C_R   0.317660 0.202637 0.089474 -0.023175
C69   C     C_R   0.772711 0.130005 0.400296 0.017313
C70   C     C_R   0.784877 0.054653 0.367960 -0.125428
C71   C     C_R   0.802306 0.074445 0.323468 -0.113708
C72   C     C_R   0.808672 0.169833 0.311149 0.037402
C73   C     C_R   0.806869 0.249747 0.343801 -0.105845
C74   C     C_R   0.789445 0.230214 0.388321 -0.121276
C75   C     C_R   0.838435 0.283584 0.159626 -0.117914
C76   C     C_R   0.874543 0.295165 0.115980 -0.138790
C77   C     C_R   0.854027 0.111809 0.106888 -0.100378
C78   C     C_R   0.440121 0.693569 0.604923 0.004781
C79   C     C_R   0.819343 0.101065 0.150496 -0.093628
C80   C     C_R   0.816594 0.188713 0.177499 0.037461
C81   C     C_1   0.809363 0.186444 0.224893 -0.014572
C82   C     C_1   0.808956 0.181209 0.264506 -0.017650
C83   C     C_R   0.888030 0.211302 0.090160 0.010975
C84   C     C_R   0.285101 0.231744 0.922541 0.560129
C85   C     C_R   0.269027 0.551800 0.939027 0.550607
C86   C     C_R   0.945890 0.222765 0.922865 0.547957
C87   C     C_R   0.293799 0.241632 0.048661 0.562047
C88   C     C_R   0.275294 0.558689 0.065078 0.548395
C89   C     C_R   0.452722 0.686454 0.650776 -0.100026
C90   C     C_R   0.952173 0.231951 0.049501 0.538278
Cr1   Cr    Cr6+3 0.583430 0.162610 0.509470 1.022231
Cr2   Cr    Cr6+3 0.584210 0.916680 0.495400 1.016201
Cr3   Cr    Cr6+3 0.332380 0.920740 0.495100 1.010716
Cr4   Cr    Cr6+3 0.086810 0.177030 0.983130 1.072717
Cr5   Cr    Cr6+3 0.337180 0.419300 0.994610 1.007881
Cr6   Cr    Cr6+3 0.084840 0.422330 0.995830 1.063526
H1    H     H_    0.201582 0.202260 0.713616 0.100798
H2    H     H_    0.265339 0.951269 0.712137 0.109002
H3    H     H_    0.448019 0.078567 0.778106 0.155298
H4    H     H_    0.521577 0.260080 0.728067 0.174024
H5    H     H_    0.632290 0.063624 0.724392 0.111865
H6    H     H_    0.948780 0.114272 0.707088 0.102963
H7    H     H_    0.204092 0.648768 0.804665 0.122829
H8    H     H_    0.213221 0.722811 0.216664 0.140519
H9    H     H_    0.413427 0.866036 0.273298 0.128573
H10   H     H_    0.536621 0.786652 0.217360 0.118861
H11   H     H_    0.486664 0.621391 0.273211 0.151086
H12   H     H_    0.286667 0.477615 0.216322 0.141382
H13   H     H_    0.186426 0.993565 0.306364 0.135732
H14   H     H_    0.235500 0.719430 0.691049 0.113083
H15   H     H_    0.224921 0.966947 0.381801 0.140603
H16   H     H_    0.471223 0.310842 0.413327 0.169131
H17   H     H_    0.898851 0.372130 0.103711 0.133338
H18   H     H_    0.834750 0.351158 0.180292 0.126292
H19   H     H_    0.813054 0.324347 0.334445 0.126324
H20   H     H_    0.781123 0.290110 0.412564 0.133011
H21   H     H_    0.772346 0.976841 0.376111 0.133771
H22   H     H_    0.802044 0.027190 0.164147 0.132284
H23   H     H_    0.861992 0.045073 0.087622 0.175639
H24   H     H_    0.804762 0.012727 0.298230 0.113279
H25   H     H_    0.517650 0.669353 0.662608 0.129448
O1    O     O_R   0.493980 0.188910 0.559650 -0.506281
O2    O     O_R   0.480180 0.824400 0.444640 -0.494090
O3    O     O_R   0.308310 0.808540 0.439800 -0.512462
O4    O     O_R   0.340740 0.020600 0.455570 -0.499600
O5    O     O_3   0.500010 0.000010 0.499990 -0.238335
O6    O     O_R   0.969650 0.150960 0.933380 -0.507429
O7    O     O_R   0.187740 0.180870 0.937580 -0.489124
O8    O     O_R   0.358510 0.327410 0.940870 -0.516858
O9    O     O_R   0.324180 0.507870 0.953930 -0.510273
O10   O     O_R   0.170560 0.527890 0.952050 -0.460209
O11   O     O_R   0.987620 0.318470 0.945550 -0.485614
O12   O     O_R   0.678640 0.153520 0.554450 -0.495309
O13   O     O_R   0.976400 0.159270 0.031530 -0.499021
O14   O     O_R   0.194000 0.188570 0.028560 -0.464431
O15   O     O_R   0.365260 0.335720 0.039020 -0.525778
O16   O     O_R   0.330440 0.515580 0.044910 -0.500373
O17   O     O_R   0.177310 0.536200 0.050190 -0.498591
O18   O     O_R   0.993870 0.326170 0.036530 -0.505588
O19   O     O_3   0.169610 0.339550 0.991190 -0.256796
O20   O     O_R   0.698130 0.004030 0.549500 -0.510249
O21   O     O_R   0.481060 0.827210 0.535360 -0.502068
O22   O     O_R   0.309260 0.811560 0.537660 -0.528919
O23   O     O_R   0.341620 0.023400 0.546290 -0.499556
O24   O     O_R   0.493030 0.185890 0.461780 -0.515025
O25   O     O_R   0.677760 0.150720 0.463730 -0.500904
O26   O     O_R   0.697180 0.001010 0.451640 -0.515267
C91   C     C_2   0.121557 0.606280 0.883434 0.601052
O27   O     O_2   0.037389 0.540830 0.858797 -0.555557
O28   O     O_R   0.111307 0.666946 0.922447 -0.663586
H26   H     H_    0.029665 0.648066 0.927018 0.338976
C92   C     C_2   0.396267 0.360838 0.785362 0.566151
O29   O     O_2   0.489047 0.434951 0.778472 -0.455247
O30   O     O_R   0.325186 0.382648 0.813843 -0.738736
H27   H     H_    0.359946 0.463061 0.827039 0.339815
C93   C     C_2   0.699933 0.266936 0.794378 0.557612
O31   O     O_2   0.695266 0.347782 0.786301 -0.523500
O32   O     O_R   0.637512 0.208980 0.828179 -0.708627
H28   H     H_    0.591581 0.242007 0.843581 0.343179
C94   C     C_3   0.889961 0.394840 0.717496 -0.265778
C95   C     C_3   0.946468 0.496811 0.753436 -0.387026
H29   H     H_    0.894051 0.488668 0.782641 0.244100
H30   H     H_    0.030581 0.511475 0.765675 0.156480
H31   H     H_    0.958570 0.569820 0.738600 0.127937
H32   H     H_    0.945894 0.405916 0.689149 0.131071
H33   H     H_    0.809089 0.386527 0.703883 0.170354
C96   C     C_3   0.769687 0.976476 0.770073 -0.268458
C97   C     C_3   0.719113 0.887780 0.728595 -0.432650
H34   H     H_    0.638827 0.881317 0.715389 0.160092
H35   H     H_    0.779450 0.907218 0.701580 0.143257
H36   H     H_    0.700639 0.807171 0.737834 0.191225
H37   H     H_    0.844746 0.976337 0.785205 0.140599
H38   H     H_    0.705287 0.958671 0.795440 0.196051
C98   C     C_3   0.071898 0.328909 0.772481 -0.262155
C99   C     C_3   0.140814 0.376196 0.732634 -0.429165
H39   H     H_    0.119371 0.310687 0.703290 0.139650
H40   H     H_    0.124630 0.440281 0.721945 0.145349
H41   H     H_    0.232756 0.414867 0.742582 0.185696
H42   H     H_    0.084915 0.396781 0.799602 0.186084
H43   H     H_    0.102523 0.277345 0.786342 0.178011
C100  C     C_3   0.134360 0.540090 0.277642 -0.276687
C101  C     C_3   0.042849 0.470914 0.239655 -0.438028
H44   H     H_    0.033951 0.524362 0.217549 0.154877
H45   H     H_    0.064078 0.412026 0.219107 0.165388
H46   H     H_    0.960595 0.423926 0.254417 0.149071
H47   H     H_    0.142614 0.485053 0.299055 0.161687
H48   H     H_    0.109332 0.595134 0.298907 0.149807
C102  C     C_2   0.147076 0.014151 0.069970 0.611790
O33   O     O_2   0.045999 0.966396 0.076239 -0.484267
O34   O     O_R   0.185605 0.983579 0.030067 -0.687810
H49   H     H_    0.121934 0.920840 0.009263 0.341762
C103  C     C_2   0.133510 0.000762 0.167178 0.603354
O35   O     O_2   0.151656 0.933518 0.182424 -0.531651
O36   O     O_R   0.025224 0.990884 0.167215 -0.672324
H50   H     H_    0.968334 0.923608 0.180122 0.333400
C104  C     C_2   0.506254 0.345593 0.198488 0.583571
O37   O     O_2   0.549249 0.316485 0.225927 -0.509285
O38   O     O_R   0.543836 0.457465 0.198387 -0.711502
H51   H     H_    0.606748 0.506242 0.222691 0.338739
C105  C     C_3   0.530303 0.346430 0.100209 -0.238631
C106  C     C_3   0.563752 0.283444 0.063047 -0.423685
H52   H     H_    0.568820 0.215226 0.076071 0.164698
H53   H     H_    0.501900 0.249071 0.033146 0.180175
H54   H     H_    0.648346 0.339887 0.052087 0.138129
H55   H     H_    0.528474 0.416972 0.088232 0.191610
H56   H     H_    0.601588 0.384007 0.126546 0.167897
C107  C     C_2   0.446170 0.372518 0.334749 0.587227
O39   O     O_2   0.411020 0.395991 0.302591 -0.523102
O40   O     O_R   0.543527 0.453469 0.360897 -0.715198
H57   H     H_    0.577218 0.526995 0.349523 0.335101
C108  C     C_3   0.174293 0.731673 0.605733 -0.258042
C109  C     C_3   0.071243 0.681506 0.633928 -0.466926
H58   H     H_    0.051124 0.597148 0.638953 0.155754
H59   H     H_    0.086518 0.733896 0.667115 0.132757
H60   H     H_    0.996373 0.676433 0.616006 0.143444
H61   H     H_    0.199192 0.819456 0.605330 0.173048
H62   H     H_    0.144054 0.685523 0.571005 0.171231
C110  C     C_3   0.510006 0.663120 0.572012 -0.268139
C111  C     C_3   0.489805 0.546527 0.573552 -0.446208
H63   H     H_    0.523129 0.540674 0.606350 0.155896
H64   H     H_    0.397682 0.486545 0.568146 0.161153
H65   H     H_    0.534514 0.524245 0.546393 0.146840
H66   H     H_    0.487372 0.663887 0.536574 0.167446
H67   H     H_    0.601565 0.722885 0.580030 0.151193
C112  C     C_2   0.575347 0.726257 0.831673 0.562261
O41   O     O_2   0.591244 0.676770 0.798109 -0.491974
O42   O     O_R   0.667084 0.818790 0.856045 -0.729794
H68   H     H_    0.742362 0.834602 0.843330 0.332279
C113  C     C_3   0.521039 0.680903 0.925429 -0.255135
C114  C     C_3   0.562262 0.596257 0.915943 -0.379103
H69   H     H_    0.613510 0.601123 0.946014 0.131634
H70   H     H_    0.489577 0.511713 0.908242 0.203353
H71   H     H_    0.616390 0.612412 0.886940 0.191320
H72   H     H_    0.593736 0.765003 0.927138 0.197114
H73   H     H_    0.491651 0.680386 0.960044 0.152136
C115  C     C_3   0.097806 0.005052 0.766852 -0.272603
C116  C     C_3   0.021964 0.933158 0.724770 -0.444216
H74   H     H_    0.019450 0.984857 0.700257 0.146057
H75   H     H_    0.053813 0.878404 0.708415 0.146705
H76   H     H_    0.934705 0.880883 0.734426 0.148032
H77   H     H_    0.098274 0.951439 0.790917 0.155249
H78   H     H_    0.063587 0.057779 0.783386 0.144407

loop_
_geom_bond_atom_site_label_1
_geom_bond_atom_site_label_2
_ccdc_geom_bond_type
C84   O7    A    
C49   H10   S    
C21   C26   S    
C5    H7    S    
C113  H73   S    
C105  H55   S    
Cr1   O5    S    
C80   C81   S    
C58   H13   S    
Cr4   O19   S    
C73   C74   A    
C14   C18   S    
Cr3   O3    S    
C57   C66   S    
Cr6   O18   S    
C7    C13   A    
C90   O18   A    
C53   C59   A    
C7    C8    A    
C99   H40   S    
C53   C54   A    
C45   O2    A    
C15   C19   S    
C28   C32   S    
C46   C49   S    
Cr5   O19   S    
C17   C23   S    
C4    C108  S    
C71   H24   S    
C111  H63   S    
C24   H2    S    
C17   C26   T    
C32   C36   S    
C14   C21   S    
C36   C37   S    
C35   C37   S    
C91   O28   S    
C112  O42   S    
Cr6   O17   S    
C5    C6    A    
C90   O13   A    
C1    O12   A    
C43   C52   T    
C104  O37   D    
C77   C83   A    
C3    H14   S    
C79   H22   S    
C84   O8    A    
C16   C84   S    
C33   C36   S    
C115  C116  S    
C114  H71   S    
C102  O34   S    
C18   C19   S    
C106  H52   S    
C115  H78   S    
C56   O24   A    
Cr3   O5    S    
Cr5   O15   S    
C33   C35   S    
C98   C99   S    
C97   H34   S    
C97   H36   S    
C47   C48   S    
C105  C106  S    
Cr1   O1    S    
Cr1   O12   S    
C15   C115  S    
C50   H9    S    
C59   H15   S    
C41   C46   S    
C31   C33   S    
O38   H51   S    
C94   H33   S    
C99   H41   S    
Cr2   O21   S    
C75   C80   A    
Cr3   O22   S    
C44   C47   S    
C42   C51   T    
Cr6   O11   S    
C48   C50   S    
C108  H61   S    
C78   C89   A    
C116  H74   S    
Cr2   O26   S    
C106  H53   S    
C69   C70   A    
C67   C78   A    
C85   O10   A    
C18   C92   S    
C2    C11   S    
C76   C83   A    
C95   H30   S    
C44   C46   S    
C81   C82   T    
C23   O1    A    
C57   C58   A    
C44   H12   S    
C45   O3    A    
C100  H48   S    
C108  H62   S    
C12   C67   S    
Cr5   O16   S    
C63   C64   A    
C27   C31   S    
C107  O39   D    
C87   O14   A    
C110  H66   S    
C19   C22   S    
C91   O27   D    
C104  O38   S    
Cr2   O2    S    
C96   C97   S    
C8    C9    A    
C27   C35   S    
C58   C59   A    
C100  C101  S    
C46   C51   S    
C61   C102  S    
C33   H6    S    
C102  O33   D    
C101  H46   S    
C103  O36   S    
C115  H77   S    
C29   C38   T    
C2    C89   A    
C35   C39   S    
C75   C76   A    
C63   C104  S    
C108  C109  S    
C5    C9    A    
C113  C114  S    
Cr5   O9    S    
C85   O9    A    
C111  H64   S    
C6    C91   S    
C34   O26   A    
O42   H68   S    
C20   H4    S    
C109  H60   S    
C40   C44   S    
C60   C103  S    
C74   H20   S    
C62   C63   A    
Cr4   O14   S    
C29   C86   S    
C77   C79   A    
C54   H16   S    
C69   C74   A    
C75   H18   S    
C94   H32   S    
C20   C21   S    
C8    C112  S    
C114  H70   S    
Cr2   O20   S    
C43   C45   S    
C34   C69   S    
C88   O17   A    
O30   H27   S    
C70   C71   A    
Cr3   O23   S    
Cr6   O10   S    
C15   C24   S    
Cr3   O4    S    
C92   O30   S    
C113  H72   S    
C42   C88   S    
C32   C38   S    
C116  H75   S    
O32   H28   S    
C106  H54   S    
C22   C24   S    
C23   O23   A    
C116  H76   S    
O34   H49   S    
C20   C22   S    
C28   C93   S    
C3    C4    A    
C98   H43   S    
C41   C50   S    
Cr1   O24   S    
C95   H31   S    
C14   H1    S    
C107  O40   S    
C40   C100  S    
C7    C113  S    
C53   C56   S    
C16   C25   T    
C40   C48   S    
C83   C90   S    
C54   C55   A    
C40   C41   S    
C105  H56   S    
C22   H3    S    
C112  O41   D    
C86   O6    A    
O28   H26   S    
C87   O15   A    
C31   C32   S    
C109  H59   S    
C72   C73   A    
C77   H23   S    
Cr2   O5    S    
Cr6   O19   S    
C4    C67   A    
C100  H47   S    
C41   H8    S    
C110  H67   S    
C96   H37   S    
Cr4   O7    S    
C47   C49   S    
C55   C57   A    
C55   C107  S    
C47   H11   S    
O40   H57   S    
C73   H19   S    
C12   O22   A    
C96   H38   S    
C60   C64   A    
C97   H35   S    
C103  O35   D    
C76   H17   S    
C2    C3    A    
C27   C94   S    
C62   C105  S    
C71   C72   A    
C65   C66   T    
C99   H39   S    
C95   H29   S    
C78   C110  S    
C111  H65   S    
C37   H5    S    
C34   O25   A    
C61   C68   A    
C86   O11   A    
C110  C111  S    
C89   H25   S    
C28   C37   S    
C64   C65   S    
C93   O32   S    
C1    C30   S    
Cr4   O13   S    
C12   O21   A    
C30   C39   T    
O36   H50   S    
C18   C20   S    
C62   C68   A    
C36   C96   S    
Cr4   O6    S    
C114  H69   S    
C19   C25   S    
C94   C95   S    
C101  H45   S    
C88   O16   A    
C1    O20   A    
C10   C11   T    
C79   C80   A    
C48   C52   S    
C93   O31   D    
C109  H58   S    
C56   O4    A    
C49   C50   S    
C21   C24   S    
C13   C85   S    
C27   C28   S    
Cr5   O8    S    
C68   C87   S    
C14   C15   S    
C60   C61   A    
C92   O29   D    
C70   H21   S    
C98   H42   S    
Cr1   O25   S    
C72   C82   S    
C101  H44   S    
C9    C10   S    
C6    C13   A    
C31   C98   S    
