data_mof_unit_22062.cif
_audit_creation_date              2012-12-10T17:35:42-0500
_audit_creation_method            fapswitch 2.2
_symmetry_space_group_name_H-M    P1
_symmetry_Int_Tables_number       1
_space_group_crystal_system       triclinic
_cell_length_a                    10.514375
_cell_length_b                    12.01677
_cell_length_c                    12.836863
_cell_angle_alpha                 93.546957
_cell_angle_beta                  89.246047
_cell_angle_gamma                 86.939131
_cell_volume                      1616.28569502

loop_
_atom_site_label
_atom_site_type_symbol
_atom_type_description
_atom_site_fract_x
_atom_site_fract_y
_atom_site_fract_z
_atom_type_partial_charge
C1    C     C_R   0.494204 0.522244 0.700366 0.992464
C2    C     C_R   0.598957 0.164023 0.593355 -0.069687
C3    C     C_R   0.546332 0.858932 0.544539 0.061412
C4    C     C_R   0.453636 0.141021 0.455431 0.048931
C5    C     C_R   0.539535 0.976452 0.538184 -0.119208
C6    C     C_R   0.459017 0.023581 0.462770 -0.112032
C7    C     C_R   0.742422 0.500738 0.499227 1.003180
C8    C     C_R   0.257684 0.499015 0.499381 1.008320
C9    C     C_3   0.957338 0.466415 0.592425 -0.609762
C10   C     C_3   0.043525 0.532491 0.404015 -0.561208
C11   C     C_3   0.036244 0.568822 0.575401 0.466113
C12   C     C_R   0.507574 0.477718 0.299750 0.968181
C13   C     C_3   0.964347 0.430349 0.420816 0.491688
C14   C     C_3   0.123167 0.497497 0.497855 -0.230172
C15   C     C_3   0.877113 0.501726 0.498652 -0.195960
C16   C     C_3   0.044495 0.395565 0.512891 0.470866
C17   C     C_3   0.956048 0.603403 0.483439 0.469791
C18   C     C_R   0.518317 0.462203 0.188213 -0.257594
C19   C     C_R   0.492733 0.537003 0.812077 -0.233702
C20   C     C_R   0.565280 0.637996 0.965631 0.563719
C21   C     C_R   0.464838 0.356681 0.032404 0.624726
C22   C     C_R   0.550932 0.628333 0.858404 -0.390317
C23   C     C_R   0.443233 0.455706 0.872170 0.398383
C24   C     C_R   0.469682 0.367383 0.139569 -0.321394
C25   C     C_3   0.996394 0.670653 0.731498 0.144544
C26   C     C_3   0.046099 0.761345 0.805648 -0.680353
C27   C     C_3   0.012792 0.320527 0.270752 0.138890
C28   C     C_3   0.968237 0.223595 0.201368 -0.662097
C29   C     C_3   0.034888 0.219906 0.580463 0.206529
C30   C     C_3   0.922706 0.174170 0.520656 -0.830320
C31   C     C_3   0.955635 0.765141 0.394718 0.204654
C32   C     C_3   0.898664 0.883857 0.392785 -0.670804
C33   C     C_3   0.501511 0.818573 0.010727 0.094217
C34   C     C_R   0.574672 0.542024 0.129802 0.342509
C35   C     C_3   0.545512 0.929633 0.055462 -0.666004
C36   C     C_3   0.561193 0.207567 0.936172 0.209611
C37   C     C_3   0.669857 0.189166 0.012843 -0.917593
C38   C     C_R   0.482690 0.451609 0.975515 -0.232371
C39   C     C_R   0.543188 0.544739 0.023976 -0.176149
C40   C     C_R   0.385973 0.951879 0.398269 0.356662
C41   C     C_R   0.609350 0.048279 0.605070 0.369273
C42   C     C_R   0.397022 0.836206 0.409569 -0.109388
H1    H     H_    0.914541 0.442429 0.666723 0.171901
H2    H     H_    0.904050 0.701931 0.699767 0.196303
H3    H     H_    0.066330 0.835868 0.762509 0.248483
H4    H     H_    0.973821 0.785701 0.867919 0.237314
H5    H     H_    0.135179 0.730063 0.842194 0.249896
H6    H     H_    0.101630 0.291638 0.309639 0.195437
H7    H     H_    0.034147 0.389531 0.220432 0.162054
H8    H     H_    0.881084 0.250408 0.159895 0.241972
H9    H     H_    0.043875 0.195338 0.142991 0.244659
H10   H     H_    0.946795 0.152752 0.249118 0.258806
H11   H     H_    0.003092 0.261881 0.656618 0.135120
H12   H     H_    0.085204 0.556893 0.329406 0.171883
H13   H     H_    0.098856 0.147698 0.599507 0.192473
H14   H     H_    0.954378 0.137418 0.442755 0.292886
H15   H     H_    0.880386 0.108835 0.564822 0.228523
H16   H     H_    0.848493 0.241089 0.510892 0.275083
H17   H     H_    0.936142 0.720779 0.318396 0.208707
H18   H     H_    0.060414 0.768770 0.405392 0.151059
H19   H     H_    0.923919 0.932271 0.465053 0.243586
H20   H     H_    0.937334 0.924460 0.324648 0.241479
H21   H     H_    0.793328 0.883669 0.387166 0.268375
H22   H     H_    0.554340 0.746019 0.228853 0.334398
H23   H     H_    0.439759 0.299475 0.184324 0.218848
H24   H     H_    0.152214 0.410159 0.728788 0.375311
H25   H     H_    0.420187 0.793998 0.059027 0.105977
H26   H     H_    0.468492 0.831095 0.929980 0.172963
H27   H     H_    0.631892 0.951406 0.012221 0.276077
H28   H     H_    0.469172 0.995805 0.047309 0.246599
H29   H     H_    0.568122 0.925082 0.139306 0.262109
H30   H     H_    0.592416 0.260379 0.873427 0.155657
H31   H     H_    0.541155 0.125444 0.897439 0.233293
H32   H     H_    0.634641 0.151028 0.083535 0.270989
H33   H     H_    0.746874 0.133411 0.975042 0.284351
H34   H     H_    0.583626 0.693716 0.811740 0.218817
H35   H     H_    0.710402 0.270154 0.036495 0.246884
H36   H     H_    0.268267 0.861910 0.193874 0.342790
H37   H     H_    0.901092 0.938817 0.663657 0.369815
H38   H     H_    0.393717 0.180873 0.399471 0.203747
H39   H     H_    0.606695 0.818999 0.600137 0.215038
H40   H     H_    0.650951 0.220238 0.643806 0.171888
H41   H     H_    0.341938 0.780176 0.361545 0.155457
H42   H     H_    0.980717 0.596635 0.777051 0.153218
N1    N     N_R   0.523490 0.207800 0.519350 -0.135822
N2    N     N_R   0.476510 0.792200 0.480650 -0.131279
O1    O     O_R   0.506270 0.421700 0.658830 -0.592205
O2    O     O_3   0.915343 0.356329 0.343685 -0.586656
O3    O     O_3   0.106132 0.288677 0.519340 -0.588094
O4    O     O_3   0.899056 0.711970 0.477020 -0.576083
O5    O     O_2   0.764807 0.553487 0.267955 -0.301408
O6    O     O_2   0.800713 0.634886 0.102064 -0.241146
O7    O     O_3   0.647739 0.743515 0.238012 -0.513123
O8    O     O_2   0.365285 0.268754 0.769215 -0.286312
O9    O     O_2   0.227142 0.351962 0.912144 -0.280146
O10   O     O_3   0.230996 0.450614 0.739162 -0.555951
O11   O     O_3   0.603729 0.737416 0.011676 -0.542756
O12   O     O_R   0.493730 0.578300 0.341170 -0.622355
O13   O     O_3   0.446600 0.251763 0.986117 -0.569887
O14   O     O_2   0.178624 0.080257 0.362166 -0.303946
O15   O     O_2   0.346214 0.066946 0.227867 -0.348735
O16   O     O_3   0.203454 0.898289 0.243233 -0.571561
O17   O     O_2   0.770871 0.091450 0.762596 -0.381669
O18   O     O_2   0.627040 0.940048 0.780983 -0.326106
O19   O     O_3   0.818602 0.904299 0.652266 -0.570763
O20   O     O_R   0.491200 0.609310 0.646410 -0.631733
O21   O     O_R   0.508800 0.390690 0.353590 -0.632407
O22   O     O_R   0.693580 0.406210 0.506230 -0.644310
O23   O     O_R   0.306420 0.593790 0.493770 -0.617390
O24   O     O_R   0.678510 0.593830 0.493810 -0.565860
O25   O     O_R   0.321490 0.406170 0.506190 -0.570513
O26   O     O_3   0.087303 0.643344 0.651088 -0.573512
S1    S     S_3+6 0.702045 0.618259 0.184671 0.069192
S2    S     S_3+6 0.314804 0.376601 0.823940 0.045089
S3    S     S_3+6 0.277246 0.002982 0.306012 -0.039828
S4    S     S_3+6 0.707171 0.997374 0.705078 -0.059622
Zn1   Zn    Zn3+2 0.510060 0.374730 0.508290 1.013817
Zn2   Zn    Zn3+2 0.489940 0.625270 0.491710 1.014304

loop_
_geom_bond_atom_site_label_1
_geom_bond_atom_site_label_2
_ccdc_geom_bond_type
C27   H6    S    
C1    O1    A    
C37   H32   S    
H36   O16   S    
O19   S4    S    
C22   H34   S    
O24   Zn2   S    
C29   O3    S    
O8    S2    D    
C34   S1    S    
C18   C24   A    
C36   C37   S    
C9    C16   S    
H22   O7    S    
O1    Zn1   S    
C38   C39   A    
C21   O13   S    
C11   C14   S    
C40   S3    S    
C10   C17   S    
C30   H15   S    
H37   O19   S    
C2    N1    A    
C31   H17   S    
O16   S3    S    
C26   H3    S    
C33   C35   S    
O18   S4    D    
C28   H8    S    
C21   C38   A    
C35   H28   S    
C3    H39   S    
C25   H42   S    
C42   N2    A    
O6    S1    D    
C12   O12   A    
C25   O26   S    
C1    O20   A    
C30   H14   S    
C40   C42   A    
C37   H33   S    
C35   H29   S    
C16   O3    S    
O20   Zn2   S    
C3    N2    A    
O10   S2    S    
O14   S3    D    
C25   H2    S    
O23   Zn2   S    
O12   Zn2   S    
C1    C19   S    
C9    H1    S    
C20   O11   S    
C34   C39   A    
C19   C22   A    
C4    C6    A    
C10   C14   S    
C8    O25   A    
C20   C39   A    
C4    N1    A    
C29   H13   S    
C25   C26   S    
C37   H35   S    
O5    S1    D    
C31   H18   S    
C19   C23   A    
C29   C30   S    
C9    C11   S    
C31   C32   S    
C31   O4    S    
N2    Zn2   S    
O7    S1    S    
N1    Zn1   S    
C18   C34   A    
C26   H5    S    
C24   H23   S    
C20   C22   A    
O9    S2    D    
C13   C15   S    
O15   S3    D    
C6    C40   A    
C2    H40   S    
C21   C24   A    
C41   S4    S    
C33   H25   S    
H24   O10   S    
C15   C17   S    
C5    C41   A    
C11   C17   S    
C8    C14   S    
C11   O26   S    
O22   Zn1   S    
C42   H41   S    
C32   H21   S    
C3    C5    A    
C10   C13   S    
C32   H19   S    
C12   O21   A    
C4    H38   S    
C23   C38   A    
C7    O24   A    
O25   Zn1   S    
O17   S4    D    
C9    C15   S    
C32   H20   S    
C8    O23   A    
C23   S2    S    
C17   O4    S    
C28   H10   S    
C5    C6    A    
C29   H11   S    
C30   H16   S    
C13   O2    S    
C7    C15   S    
C28   H9    S    
C36   O13   S    
C14   C16   S    
C27   O2    S    
C10   H12   S    
C36   H31   S    
C26   H4    S    
C27   H7    S    
C35   H27   S    
C13   C16   S    
C12   C18   S    
C27   C28   S    
C7    O22   A    
C2    C41   A    
C33   O11   S    
O21   Zn1   S    
C36   H30   S    
C33   H26   S    
