data_mof_unit_54867.cif
_audit_creation_date              2012-10-26T18:53:14-0400
_audit_creation_method            fapswitch 2.2
_symmetry_space_group_name_H-M    P1
_symmetry_Int_Tables_number       1
_space_group_crystal_system       triclinic
_cell_length_a                    14.706766
_cell_length_b                    14.802977
_cell_length_c                    15.875677
_cell_angle_alpha                 76.280602
_cell_angle_beta                  102.701549
_cell_angle_gamma                 115.628995
_cell_volume                      2999.98371742

loop_
_atom_site_label
_atom_site_type_symbol
_atom_type_description
_atom_site_fract_x
_atom_site_fract_y
_atom_site_fract_z
_atom_type_partial_charge
C1    C     C_R   0.879722 0.312309 0.517103 0.542424
C2    C     C_R   0.186441 0.795284 0.491386 -0.006709
C3    C     C_R   0.779655 0.032723 0.609558 -0.135921
C4    C     C_R   0.999707 0.499860 0.659612 0.545599
C5    C     C_R   0.847383 0.131266 0.582021 -0.140569
C6    C     C_R   0.705553 0.179935 0.524247 -0.138212
C7    C     C_R   0.636003 0.082343 0.554456 0.029201
C8    C     C_R   0.674475 0.007638 0.595815 0.051597
C9    C     C_R   0.529221 0.056102 0.541234 0.029786
C10   C     C_R   0.461764 0.952386 0.559469 0.030984
C11   C     C_R   0.503150 0.880918 0.604077 -0.146631
C12   C     C_3   0.040292 0.419283 0.075936 -0.191879
C13   C     C_R   0.607615 0.908566 0.622488 -0.137030
C14   C     C_R   0.487642 0.129956 0.510064 -0.140456
C15   C     C_R   0.383732 0.101983 0.486080 -0.133320
C16   C     C_R   0.119812 0.687627 0.488976 0.542975
C17   C     C_R   0.318068 0.999862 0.491366 0.049777
C18   C     C_R   0.355718 0.923788 0.530025 0.028539
C19   C     C_R   0.215222 0.973013 0.456648 -0.135923
C20   C     C_R   0.150198 0.871434 0.455323 -0.137280
C21   C     C_R   0.286822 0.821642 0.532277 -0.146890
C22   C     C_R   0.693127 0.625746 0.330200 -0.157962
C23   C     C_3   0.000204 0.497741 0.083449 0.062130
C24   C     C_R   0.785692 0.618791 0.364789 0.041886
C25   C     C_R   0.717405 0.511967 0.492852 0.035180
C26   C     C_R   0.621329 0.517147 0.461954 0.000462
C27   C     C_R   0.610212 0.573388 0.377520 0.042706
C28   C     C_R   0.000297 0.500112 0.340394 0.549607
C29   C     C_R   0.536004 0.468162 0.510328 -0.003111
C30   C     C_R   0.444595 0.482991 0.475307 0.022523
C31   C     C_R   0.432979 0.525089 0.386267 -0.136809
C32   C     C_R   0.515232 0.572963 0.339312 -0.141981
C33   C     C_R   0.537551 0.402826 0.590659 -0.127819
C34   C     C_3   0.069131 0.603884 0.039352 -0.222451
C35   C     C_R   0.453005 0.354528 0.636350 0.008757
C36   C     C_R   0.367048 0.378990 0.606437 0.026027
C37   C     C_R   0.365277 0.449434 0.528519 0.003074
C38   C     C_R   0.283023 0.335371 0.653284 -0.174901
C39   C     C_R   0.201734 0.364428 0.625697 0.007974
C40   C     C_3   0.040637 0.418093 0.978069 -0.079556
C41   C     C_R   0.285259 0.485218 0.509323 0.281626
C42   C     C_3   0.890300 0.470625 0.935891 -0.208691
C43   C     C_3   0.890623 0.468462 0.033972 -0.214113
C44   C     C_1   0.000564 0.499576 0.250874 -0.045730
C45   C     C_3   0.069006 0.602837 0.941989 -0.229049
C46   C     C_3   0.998985 0.496132 0.917825 0.087995
C47   C     C_3   0.983425 0.309342 0.956736 -0.427371
C48   C     C_3   0.377294 0.669847 0.465460 -0.295064
C49   C     C_3   0.457878 0.279366 0.718489 -0.406624
C50   C     C_1   0.000523 0.498874 0.175448 -0.083214
C51   C     C_1   0.998741 0.498048 0.825052 -0.076790
C52   C     C_1   0.998931 0.499190 0.749276 -0.043085
C53   C     C_R   0.810536 0.205481 0.539296 -0.005645
Cu1   Cu    Cu3+1 0.081750 0.475690 0.522550 0.944999
Cu2   Cu    Cu3+1 0.918250 0.524310 0.477450 0.927558
H1    H     H_    0.992467 0.342981 0.109071 0.121672
H2    H     H_    0.928339 0.149570 0.595082 0.123622
H3    H     H_    0.679546 0.237339 0.487275 0.124352
H4    H     H_    0.456829 0.802951 0.627024 0.096345
H5    H     H_    0.533571 0.210424 0.504118 0.107900
H6    H     H_    0.185950 0.030841 0.427634 0.104055
H7    H     H_    0.504157 0.609333 0.272334 0.101977
H8    H     H_    0.136802 0.328926 0.661315 0.126764
H9    H     H_    0.685539 0.669303 0.265734 0.086045
H10   H     H_    0.848485 0.655463 0.326679 0.122404
H11   H     H_    0.731360 0.467184 0.554329 0.117471
H12   H     H_    0.121045 0.442968 0.967638 0.125610
H13   H     H_    0.862909 0.528889 0.895721 0.110413
H14   H     H_    0.360131 0.521193 0.351391 0.112484
H15   H     H_    0.602594 0.384618 0.617714 0.092715
H16   H     H_    0.278932 0.278666 0.711252 0.100347
H17   H     H_    0.835581 0.396548 0.916321 0.113165
H18   H     H_    0.840352 0.391140 0.063214 0.114001
H19   H     H_    0.858879 0.522136 0.040341 0.113121
H20   H     H_    0.148108 0.624342 0.929989 0.108855
H21   H     H_    0.042526 0.660911 0.899914 0.115684
H22   H     H_    0.148354 0.626543 0.073914 0.110739
H23   H     H_    0.119054 0.438876 0.111136 0.098449
H24   H     H_    0.985110 0.308082 0.887485 0.139559
H25   H     H_    0.020928 0.260057 0.998516 0.120335
H26   H     H_    0.903136 0.276404 0.969282 0.136045
H27   H     H_    0.254755 0.569806 0.386443 0.246804
H28   H     H_    0.353339 0.733552 0.438351 0.148676
H29   H     H_    0.441935 0.684056 0.432142 0.141414
H30   H     H_    0.403185 0.669094 0.536728 0.142165
H31   H     H_    0.451105 0.306170 0.775565 0.124983
H32   H     H_    0.395198 0.203983 0.711171 0.133069
H33   H     H_    0.530655 0.269365 0.732352 0.124147
H34   H     H_    0.041570 0.661560 0.043834 0.115530
H35   H     H_    0.636184 0.851233 0.655944 0.104256
H36   H     H_    0.309906 0.760640 0.563011 0.120681
H37   H     H_    0.071988 0.852640 0.425257 0.127239
H38   H     H_    0.355113 0.160810 0.460106 0.112935
H39   H     H_    0.809526 0.976101 0.641940 0.103100
N1    N     N_R   0.795410 0.560790 0.443550 -0.233047
N2    N     N_R   0.204590 0.439170 0.556520 -0.211621
N3    N     N_2   0.292528 0.575394 0.449046 -0.477995
O1    O     O_R   0.977910 0.338120 0.529720 -0.506960
O2    O     O_R   0.839850 0.379180 0.491640 -0.506961
O3    O     O_R   0.069060 0.479460 0.639610 -0.503252
O4    O     O_R   0.931000 0.520530 0.601530 -0.501781
O5    O     O_R   0.160150 0.620820 0.508360 -0.472133
O6    O     O_R   0.022090 0.661880 0.470280 -0.504621
O7    O     O_R   0.069000 0.479470 0.398470 -0.494455
O8    O     O_R   0.930940 0.520540 0.360390 -0.498907

loop_
_geom_bond_atom_site_label_1
_geom_bond_atom_site_label_2
_ccdc_geom_bond_type
C43   H18   S    
C40   C47   S    
C8    C13   A    
C29   C33   A    
C13   H35   S    
C18   C21   A    
C49   H32   S    
C19   C20   A    
C47   H24   S    
C1    O2    A    
C7    C8    A    
C45   C46   S    
C40   C46   S    
C48   N3    S    
C20   H37   S    
C12   C23   S    
C26   C27   A    
C4    C52   S    
C45   H21   S    
C5    C53   A    
C36   C37   A    
C10   C18   A    
C34   H22   S    
C38   C39   A    
C41   N2    A    
Cu2   O6    S    
C23   C43   S    
C15   C17   A    
C42   C46   S    
C6    H3    S    
C1    C53   S    
C17   C19   A    
Cu1   Cu2   S    
C35   C36   A    
C40   H12   S    
C12   H23   S    
C35   C49   S    
C2    C16   S    
C9    C10   A    
Cu1   N2    S    
C43   H19   S    
C42   H13   S    
C49   H33   S    
Cu1   O3    S    
C47   H25   S    
C11   H4    S    
C2    C20   A    
C51   C52   T    
Cu2   N1    S    
C3    C8    A    
C24   N1    A    
C23   C50   S    
C25   C26   A    
C46   C51   S    
C28   C44   S    
C48   H29   S    
C30   C37   A    
C12   C40   S    
C9    C14   A    
C29   C30   A    
C28   O7    A    
C16   O6    A    
C31   C32   A    
C28   O8    A    
C23   C34   S    
C4    O4    A    
C2    C21   A    
C42   H17   S    
C17   C18   A    
C34   C45   S    
C12   H1    S    
C24   H10   S    
C33   H15   S    
C16   O5    A    
Cu2   O8    S    
C25   N1    A    
C22   C27   A    
C4    O3    A    
H27   N3    S    
C41   N3    S    
C42   C43   S    
C6    C53   A    
C14   H5    S    
C21   H36   S    
C44   C50   T    
C7    C9    A    
C38   H16   S    
C27   C32   A    
C48   H30   S    
C49   H31   S    
Cu1   O5    S    
C25   H11   S    
C3    C5    A    
C1    O1    A    
C15   H38   S    
C6    C7    A    
C39   H8    S    
Cu2   O4    S    
C48   H28   S    
C5    H2    S    
C45   H20   S    
C36   C38   A    
C34   H34   S    
C32   H7    S    
C11   C13   A    
C30   C31   A    
C19   H6    S    
C33   C35   A    
C3    H39   S    
C22   C24   A    
C47   H26   S    
C37   C41   A    
C39   N2    A    
C10   C11   A    
C22   H9    S    
C31   H14   S    
C26   C29   A    
Cu2   O2    S    
C14   C15   A    
Cu1   O1    S    
Cu1   O7    S    
