data_mof_unit_11284.cif
_audit_creation_date              2012-12-10T17:04:29-0500
_audit_creation_method            fapswitch 2.2
_symmetry_space_group_name_H-M    P1
_symmetry_Int_Tables_number       1
_space_group_crystal_system       triclinic
_cell_length_a                    15.019024
_cell_length_b                    10.74796
_cell_length_c                    9.999405
_cell_angle_alpha                 89.958632
_cell_angle_beta                  88.781221
_cell_angle_gamma                 90.033045
_cell_volume                      1613.77676678

loop_
_atom_site_label
_atom_site_type_symbol
_atom_type_description
_atom_site_fract_x
_atom_site_fract_y
_atom_site_fract_z
_atom_type_partial_charge
C1    C     C_R   0.502207 0.262616 0.499815 0.928890
C2    C     C_R   0.183346 0.475336 0.619510 -0.267756
C3    C     C_R   0.231389 0.510835 0.504569 -0.072940
C4    C     C_R   0.326783 0.502035 0.501418 0.887756
C5    C     C_R   0.188471 0.556321 0.392304 -0.228685
C6    C     C_2   0.505058 0.933055 0.387149 -0.153189
C7    C     C_2   0.490414 0.868913 0.499843 -0.330172
C8    C     C_2   0.499945 0.066935 0.386959 -0.160561
C9    C     C_2   0.511218 0.131189 0.499511 -0.329492
C10   C     C_2   0.474134 0.593201 0.925862 -0.132359
C11   C     C_2   0.482549 0.597193 0.075367 -0.118318
C12   C     C_R   0.910965 0.550707 0.381515 -0.126485
C13   C     C_R   0.498182 0.737389 0.499926 0.939293
C14   C     C_R   0.673722 0.499556 0.498255 0.920627
C15   C     C_R   0.818529 0.532136 0.376029 0.452565
C16   C     C_R   0.770304 0.502035 0.494666 -0.211266
C17   C     C_R   0.814354 0.474579 0.612568 -0.325479
C18   C     C_R   0.906122 0.477283 0.615063 0.161202
C19   C     C_R   0.954692 0.516976 0.500424 -0.068357
C20   C     C_3   0.785070 0.424838 0.188239 0.161797
C21   C     C_3   0.734223 0.427877 0.058339 -0.819986
C22   C     C_3   0.952758 0.618563 0.037865 0.120450
C23   C     C_R   0.949860 0.440440 0.730861 -0.216210
C24   C     C_3   0.992418 0.731693 0.966534 -0.834064
C25   C     C_R   0.042200 0.440915 0.733193 -0.239033
C26   C     C_R   0.091130 0.479266 0.620050 0.142150
C27   C     C_R   0.047331 0.519647 0.504109 0.091906
C28   C     C_R   0.096494 0.560603 0.391255 0.053355
C29   C     C_R   0.053604 0.604801 0.278639 -0.351907
C30   C     C_R   0.960616 0.598717 0.270639 0.511348
H1    H     H_    0.470301 0.911678 0.593844 0.146202
H2    H     H_    0.226671 0.587121 0.305073 0.160214
H3    H     H_    0.092990 0.643641 0.196928 0.159787
H4    H     H_    0.519903 0.887207 0.292439 0.170450
H5    H     H_    0.757937 0.346987 0.250651 0.121633
H6    H     H_    0.856284 0.405366 0.163202 0.106832
H7    H     H_    0.753052 0.510705 0.997896 0.256887
H8    H     H_    0.748914 0.342683 0.999133 0.187480
H9    H     H_    0.661935 0.431409 0.080777 0.250564
H10   H     H_    0.777199 0.447523 0.702218 0.180858
H11   H     H_    0.217520 0.441790 0.706958 0.161670
H12   H     H_    0.487342 0.112605 0.292231 0.169646
H13   H     H_    0.897539 0.584175 0.976305 0.168168
H14   H     H_    0.002310 0.541412 0.040442 0.098070
H15   H     H_    0.047429 0.772086 0.024685 0.240956
H16   H     H_    0.018794 0.704042 0.866299 0.223614
H17   H     H_    0.940256 0.803671 0.953730 0.265332
H18   H     H_    0.529470 0.088528 0.593273 0.149933
H19   H     H_    0.445930 0.673946 0.877409 0.160733
H20   H     H_    0.533873 0.429330 0.897098 0.161899
H21   H     H_    0.469853 0.685340 0.124818 0.157885
H22   H     H_    0.503740 0.415921 0.102012 0.152505
H23   H     H_    0.912640 0.409134 0.818643 0.129940
H24   H     H_    0.075277 0.410396 0.822731 0.141616
N1    N     N_2   0.500970 0.501330 0.852150 -0.193225
N2    N     N_2   0.500990 0.501360 0.147810 -0.195306
O1    O     O_R   0.499990 0.319060 0.613040 -0.623934
O2    O     O_3   0.916489 0.653470 0.164499 -0.562264
O3    O     O_R   0.500010 0.319100 0.386900 -0.624985
O4    O     O_R   0.367830 0.499950 0.613080 -0.618831
O5    O     O_R   0.367860 0.499990 0.386940 -0.621286
O6    O     O_R   0.499990 0.680900 0.613100 -0.621763
O7    O     O_R   0.500010 0.680940 0.386960 -0.616873
O8    O     O_R   0.632140 0.500010 0.613060 -0.622529
O9    O     O_R   0.632170 0.500050 0.386920 -0.564668
O10   O     O_3   0.775487 0.540348 0.255110 -0.543372
Zn1   Zn    Zn3+2 0.499980 0.499970 0.650990 0.942415
Zn2   Zn    Zn3+2 0.500020 0.500030 0.349010 0.958669

loop_
_geom_bond_atom_site_label_1
_geom_bond_atom_site_label_2
_ccdc_geom_bond_type
C22   O2    S    
N1    Zn1   S    
C6    C7    D    
C1    O1    A    
O3    Zn2   S    
C5    C28   A    
C19   C27   A    
H20   N1    S    
C13   O7    A    
C12   C15   A    
C5    H2    S    
C24   H16   S    
C4    O4    A    
C1    C9    S    
C1    O3    A    
C2    C3    A    
C3    C4    S    
C14   O8    A    
C2    C26   A    
C25   H24   S    
C10   N1    D    
C15   O10   S    
O5    Zn2   S    
C26   C27   A    
C29   C30   A    
C11   N2    D    
O6    Zn1   S    
O1    Zn1   S    
C24   H15   S    
C30   O2    S    
C12   C19   A    
C20   O10   S    
C28   C29   A    
C17   H10   S    
C14   O9    A    
C8    H12   S    
C23   H23   S    
C14   C16   S    
C23   C25   A    
C22   C24   S    
C11   H21   S    
C15   C16   A    
C13   O6    A    
C2    H11   S    
C24   H17   S    
C18   C23   A    
C20   H6    S    
O8    Zn1   S    
C29   H3    S    
C7    C13   S    
O9    Zn2   S    
C21   H7    S    
C20   C21   S    
C9    H18   S    
C17   C18   A    
C18   C19   A    
C10   C11   S    
C27   C28   A    
O7    Zn2   S    
C16   C17   A    
C6    C8    S    
C6    H4    S    
C12   C30   A    
C25   C26   A    
N2    Zn2   S    
C10   H19   S    
C4    O5    A    
C20   H5    S    
C7    H1    S    
C22   H14   S    
C21   H8    S    
H22   N2    S    
O4    Zn1   S    
C8    C9    D    
C3    C5    A    
C22   H13   S    
C21   H9    S    
