data_mof_unit_39355.cif
_audit_creation_date              2012-12-10T16:38:43-0500
_audit_creation_method            fapswitch 2.2
_symmetry_space_group_name_H-M    P1
_symmetry_Int_Tables_number       1
_space_group_crystal_system       triclinic
_cell_length_a                    10.897684
_cell_length_b                    10.867696
_cell_length_c                    17.781309
_cell_angle_alpha                 98.77496
_cell_angle_beta                  72.719402
_cell_angle_gamma                 98.640057
_cell_volume                      1974.97684981

loop_
_atom_site_label
_atom_site_type_symbol
_atom_type_description
_atom_site_fract_x
_atom_site_fract_y
_atom_site_fract_z
_atom_type_partial_charge
C1    C     C_R   0.158481 0.481139 0.516835 0.949227
C2    C     C_R   0.312530 0.668385 0.845381 0.356161
C3    C     C_R   0.478944 0.539294 0.838128 -0.345320
C4    C     C_R   0.451832 0.552867 0.921131 -0.005402
C5    C     C_R   0.363452 0.639050 0.966680 -0.005440
C6    C     C_R   0.512415 0.483399 0.959288 0.078872
C7    C     C_R   0.497441 0.511858 0.041304 0.059241
C8    C     C_R   0.406055 0.593073 0.085499 -0.225302
C9    C     C_R   0.337314 0.654205 0.050501 0.188387
C10   C     C_R   0.580340 0.380826 0.918754 -0.239633
C11   C     C_R   0.633844 0.308415 0.957025 0.218766
C12   C     C_R   0.842979 0.518663 0.481959 0.767901
C13   C     C_R   0.627449 0.342893 0.038167 -0.083178
C14   C     C_R   0.565253 0.450011 0.078945 -0.149567
C15   C     C_R   0.679713 0.274190 0.081120 0.379462
C16   C     C_R   0.639900 0.292591 0.164817 0.274674
C17   C     C_R   0.574099 0.492403 0.157006 0.337832
C18   C     C_2   0.981278 0.515693 0.471833 0.274622
C19   C     C_2   0.022261 0.473649 0.527406 -0.047766
C20   C     C_2   0.548333 0.969205 0.486271 0.254681
C21   C     C_2   0.447117 0.036296 0.520984 -0.054433
C22   C     C_R   0.466877 0.168843 0.517351 0.895851
C23   C     C_R   0.530800 0.833333 0.483939 0.818495
C24   C     C_R   0.564622 0.435500 0.287811 0.963572
C25   C     C_R   0.435602 0.563690 0.712833 0.845876
C26   C     C_R   0.407667 0.591449 0.800119 -0.175780
C27   C     C_R   0.592975 0.406085 0.201947 -0.256233
C28   C     C_R   0.302604 0.704674 0.926738 0.335028
H1    H     H_    0.557456 0.488978 0.801195 0.196178
H2    H     H_    0.379776 0.603308 0.149274 0.215409
H3    H     H_    0.584112 0.348087 0.857905 0.153826
O1    O     O_3   0.500000 0.500000 0.500000 -0.490942
O2    O     O_R   0.535460 0.243030 0.556410 -0.614911
O3    O     O_R   0.437420 0.784080 0.535340 -0.648373
O4    O     O_R   0.223560 0.397520 0.472140 -0.658534
O5    O     O_R   0.803560 0.575360 0.436110 -0.637652
O6    O     O_R   0.209690 0.568800 0.556400 -0.649750
O7    O     O_R   0.763190 0.458310 0.535350 -0.650718
O8    O     O_R   0.414000 0.207090 0.472140 -0.677248
O9    O     O_R   0.613120 0.765800 0.436110 -0.638069
O10   O     O_R   0.470800 0.371790 0.332500 -0.669555
O11   O     O_R   0.380610 0.619380 0.674980 -0.598323
O12   O     O_R   0.632640 0.524780 0.317540 -0.641946
O13   O     O_R   0.515950 0.484050 0.674980 -0.656503
Zn1   Zn    Zn3+2 0.577310 0.422690 0.565550 0.957867
Zn2   Zn    Zn3+2 0.403760 0.371330 0.445150 0.941679
Zn3   Zn    Zn3+2 0.634990 0.589920 0.423760 0.973758
Zn4   Zn    Zn3+2 0.383940 0.616050 0.565540 0.983886
C29   C     C_3   0.231671 0.727358 0.105749 -0.851440
H4    H     H_    0.214844 0.714076 0.168897 0.215617
H5    H     H_    0.258038 0.828924 0.101431 0.261885
H6    H     H_    0.139054 0.694971 0.091289 0.267749
O14   O     O_3   0.769571 0.191010 0.042476 -0.652824
C30   C     C_3   0.893185 0.241898 0.051254 0.116830
H7    H     H_    0.954152 0.163812 0.038542 0.157122
H8    H     H_    0.889392 0.283554 0.113088 0.167222
C31   C     C_3   0.959823 0.337985 0.992429 -0.403906
H9    H     H_    0.993189 0.288468 0.931750 0.221543
H10   H     H_    0.891191 0.403283 0.991930 0.229394
C32   C     C_3   0.074886 0.416210 0.014526 -0.955021
H11   H     H_    0.041078 0.474811 0.071939 0.262351
H12   H     H_    0.124614 0.478744 0.968172 0.266556
H13   H     H_    0.144446 0.355381 0.019424 0.278787
O15   O     O_3   0.072751 0.561853 0.406428 -0.665126
C33   C     C_3   0.057173 0.492875 0.334828 0.099380
H14   H     H_    0.021947 0.554517 0.303084 0.177081
H15   H     H_    0.987192 0.406196 0.343068 0.109552
C34   C     C_3   0.188127 0.453976 0.283481 -0.318572
H16   H     H_    0.261851 0.537184 0.278148 0.237095
H17   H     H_    0.218493 0.384697 0.312393 0.243344
C35   C     C_3   0.181777 0.395812 0.200798 -1.014946
H18   H     H_    0.106634 0.314386 0.204301 0.271889
H19   H     H_    0.276582 0.363658 0.166260 0.273880
H20   H     H_    0.158523 0.465944 0.169371 0.277198
C36   C     C_3   0.937706 0.425488 0.603854 -0.919328
H21   H     H_    0.997149 0.402412 0.639788 0.221390
H22   H     H_    0.876529 0.497901 0.640671 0.265607
H23   H     H_    0.877491 0.337442 0.590938 0.277435
O16   O     O_3   0.673483 0.028808 0.465942 -0.646599
C37   C     C_3   0.712781 0.044925 0.384678 0.079980
H24   H     H_    0.662774 0.120035 0.374222 0.144722
H25   H     H_    0.692033 0.956754 0.347156 0.133953
C38   C     C_3   0.858564 0.083910 0.360743 -0.287549
H26   H     H_    0.881764 0.168712 0.399921 0.221260
H27   H     H_    0.908830 0.006889 0.368415 0.232662
C39   C     C_3   0.908598 0.112260 0.274924 -0.995876
H28   H     H_    0.878201 0.032798 0.235043 0.275841
H29   H     H_    0.015814 0.126656 0.257787 0.263577
H30   H     H_    0.871469 0.198309 0.267922 0.288608
C40   C     C_3   0.306893 0.979920 0.546966 -0.894911
H31   H     H_    0.239437 0.052620 0.560002 0.234052
H32   H     H_    0.283412 0.909822 0.499401 0.255563
H33   H     H_    0.287705 0.936635 0.602565 0.274945
O17   O     O_3   0.560727 0.615120 0.191592 -0.656304
C41   C     C_3   0.659335 0.699183 0.148073 0.092879
H34   H     H_    0.620261 0.790293 0.155621 0.151193
H35   H     H_    0.689472 0.670153 0.082973 0.144300
C42   C     C_3   0.777613 0.719860 0.179984 -0.335946
H36   H     H_    0.750325 0.765110 0.242161 0.234929
H37   H     H_    0.812025 0.628367 0.179358 0.226837
C43   C     C_3   0.887502 0.802656 0.129594 -0.999890
H38   H     H_    0.926385 0.751936 0.069889 0.281449
H39   H     H_    0.966440 0.827689 0.158647 0.279089
H40   H     H_    0.852925 0.890241 0.122719 0.261626
O18   O     O_3   0.669649 0.213525 0.209731 -0.661194
C44   C     C_3   0.605072 0.091340 0.199982 0.081730
H41   H     H_    0.660717 0.025484 0.214789 0.154998
H42   H     H_    0.601543 0.059203 0.138058 0.164617
C45   C     C_3   0.468063 0.081875 0.256684 -0.360619
H43   H     H_    0.472256 0.116656 0.317976 0.257844
H44   H     H_    0.408257 0.140925 0.239413 0.225439
C46   C     C_3   0.404233 0.946888 0.255265 -0.976263
H45   H     H_    0.402174 0.908287 0.194069 0.266993
H46   H     H_    0.303395 0.943937 0.294258 0.279528
H47   H     H_    0.457971 0.887802 0.277285 0.270369
C47   C     C_3   0.688465 0.190815 0.910274 -0.832490
H48   H     H_    0.794591 0.200163 0.899991 0.261058
H49   H     H_    0.641794 0.108363 0.942341 0.258164
H50   H     H_    0.670676 0.171670 0.851014 0.206547
O19   O     O_3   0.230616 0.801512 0.967555 -0.663442
C48   C     C_3   0.284179 0.915528 0.935150 0.138076
H51   H     H_    0.231254 0.930299 0.893185 0.186368
H52   H     H_    0.389543 0.917730 0.903169 0.122758
C49   C     C_3   0.267757 0.023934 0.001867 -0.378491
H53   H     H_    0.165219 0.019685 0.038539 0.236420
H54   H     H_    0.329428 0.016007 0.040316 0.217048
C50   C     C_3   0.307257 0.150028 0.968889 -0.963076
H55   H     H_    0.405775 0.152373 0.927058 0.278675
H56   H     H_    0.307383 0.226130 0.018236 0.272037
H57   H     H_    0.238394 0.166238 0.937175 0.265711
O20   O     O_3   0.238455 0.717628 0.808318 -0.630603
C51   C     C_3   0.105961 0.672192 0.836670 0.110956
H58   H     H_    0.049097 0.736563 0.821458 0.166009
H59   H     H_    0.071770 0.673423 0.902300 0.155188
C52   C     C_3   0.076482 0.540081 0.796801 -0.382283
H60   H     H_    0.114684 0.538545 0.731412 0.250639
H61   H     H_    0.124694 0.472527 0.816209 0.203106
C53   C     C_3   0.931102 0.499198 0.818211 -0.966803
H62   H     H_    0.889058 0.506590 0.883512 0.266353
H63   H     H_    0.912853 0.400335 0.793325 0.270060
H64   H     H_    0.882145 0.558969 0.793356 0.269768

loop_
_geom_bond_atom_site_label_1
_geom_bond_atom_site_label_2
_ccdc_geom_bond_type
C8    C9    A    
O9    Zn3   S    
C43   H38   S    
C52   C53   S    
O2    Zn1   S    
O1    Zn1   S    
C41   H34   S    
C24   C27   S    
C29   H5    S    
C46   H46   S    
C40   H31   S    
C41   C42   S    
C7    C8    A    
O14   C30   S    
O19   C48   S    
C32   H13   S    
C15   O14   S    
C45   H44   S    
C39   H29   S    
C31   H10   S    
C44   H41   S    
C23   O9    A    
C47   H48   S    
O5    Zn3   S    
C32   H12   S    
C18   C19   D    
C3    H1    S    
C48   C49   S    
C10   H3    S    
C7    C14   A    
C51   H58   S    
O7    Zn1   S    
O10   Zn2   S    
C12   O5    A    
C1    O6    A    
C23   O3    A    
C16   C27   A    
C43   H39   S    
C21   C22   S    
C24   O10   A    
O1    Zn4   S    
C14   C17   A    
C37   C38   S    
C25   O13   A    
C46   H45   S    
C21   C40   S    
C30   H8    S    
C1    C19   S    
C17   C27   A    
C51   C52   S    
C52   H60   S    
C9    C29   S    
C4    C6    A    
C28   O19   S    
C45   C46   S    
C35   H19   S    
C39   H28   S    
C34   H16   S    
C31   C32   S    
C33   H15   S    
C25   C26   S    
C39   H30   S    
C32   H11   S    
C36   H21   S    
C50   H56   S    
C5    C9    A    
C5    C28   A    
C40   H32   S    
C38   H26   S    
C20   C23   S    
C33   C34   S    
C2    O20   S    
C2    C26   A    
O11   Zn4   S    
O6    Zn4   S    
C11   C47   S    
C36   H22   S    
C48   H51   S    
C6    C7    A    
C53   H63   S    
C16   O18   S    
C49   C50   S    
C37   H25   S    
C38   H27   S    
O20   C51   S    
C29   H4    S    
C43   H40   S    
C42   H37   S    
O8    Zn2   S    
O1    Zn3   S    
O3    Zn4   S    
C3    C4    A    
O13   Zn1   S    
C1    O4    A    
C40   H33   S    
C49   H54   S    
C52   H61   S    
C22   O2    A    
C30   H7    S    
C20   O16   S    
O1    Zn2   S    
C3    C26   A    
C29   H6    S    
C37   H24   S    
C53   H64   S    
C25   O11   A    
C6    C10   A    
C35   H20   S    
C41   H35   S    
C50   H55   S    
C42   C43   S    
O18   C44   S    
C47   H50   S    
C8    H2    S    
O15   C33   S    
C13   C15   A    
C50   H57   S    
C35   H18   S    
C45   H43   S    
C11   C13   A    
C18   O15   S    
C31   H9    S    
C44   H42   S    
C34   C35   S    
C51   H59   S    
C22   O8    A    
C19   C36   S    
C47   H49   S    
C33   H14   S    
C12   O7    A    
O17   C41   S    
C36   H23   S    
C48   H52   S    
C10   C11   A    
O16   C37   S    
C4    C5    A    
C38   C39   S    
C20   C21   D    
C34   H17   S    
C42   H36   S    
C12   C18   S    
C24   O12   A    
C2    C28   A    
C17   O17   S    
C13   C14   A    
O4    Zn2   S    
O12   Zn3   S    
C30   C31   S    
C46   H47   S    
C53   H62   S    
C15   C16   A    
C49   H53   S    
C44   C45   S    
