data_mof_unit_16556.cif
_audit_creation_date              2012-12-11T16:45:44-0500
_audit_creation_method            fapswitch 2.2
_symmetry_space_group_name_H-M    P1
_symmetry_Int_Tables_number       1
_space_group_crystal_system       triclinic
_cell_length_a                    19.950021
_cell_length_b                    17.187947
_cell_length_c                    15.349601
_cell_angle_alpha                 89.876832
_cell_angle_beta                  52.390683
_cell_angle_gamma                 89.610469
_cell_volume                      4169.48693872

loop_
_atom_site_label
_atom_site_type_symbol
_atom_type_description
_atom_site_fract_x
_atom_site_fract_y
_atom_site_fract_z
_atom_type_partial_charge
C1    C     C_R   0.864905 0.690183 0.004823 -0.116223
C2    C     C_R   0.211642 0.346846 0.973061 0.045378
C3    C     C_R   0.343462 0.813315 0.939938 0.065018
C4    C     C_R   0.711637 0.846841 0.973070 0.045385
C5    C     C_R   0.808897 0.639414 0.325465 0.071813
C6    C     C_R   0.190153 0.639049 0.674282 0.071698
C7    C     C_R   0.308896 0.139412 0.325464 0.071814
C8    C     C_R   0.690151 0.139050 0.674280 0.071697
C9    C     C_R   0.703931 0.636536 0.529360 0.165693
C10   C     C_R   0.293008 0.637019 0.470470 0.166203
C11   C     C_R   0.203929 0.136535 0.529360 0.165692
C12   C     C_R   0.139034 0.687685 0.988381 -0.108328
C13   C     C_R   0.792999 0.137021 0.470470 0.166197
C14   C     C_R   0.729438 0.665399 0.427875 0.033783
C15   C     C_R   0.268789 0.664884 0.571728 0.035916
C16   C     C_R   0.229436 0.165398 0.427874 0.033781
C17   C     C_R   0.768786 0.164884 0.571726 0.035921
C18   C     C_R   0.184426 0.229264 0.428778 -0.195907
C19   C     C_R   0.813949 0.227824 0.570887 -0.202748
C20   C     C_R   0.684427 0.729264 0.428779 -0.195909
C21   C     C_R   0.313947 0.727828 0.570892 -0.202745
C22   C     C_R   0.133464 0.274744 0.523981 -0.211603
C23   C     C_R   0.364918 0.190189 0.004804 -0.116227
C24   C     C_R   0.863911 0.273627 0.476414 -0.205294
C25   C     C_R   0.633463 0.774743 0.523982 -0.211601
C26   C     C_R   0.363909 0.773631 0.476419 -0.205295
C27   C     C_R   0.127498 0.255693 0.617749 0.027893
C28   C     C_R   0.868821 0.255738 0.383212 0.033259
C29   C     C_R   0.627498 0.755692 0.617750 0.027891
C30   C     C_R   0.368824 0.755739 0.383214 0.033254
C31   C     C_R   0.653259 0.681044 0.623265 0.159956
C32   C     C_R   0.342666 0.681854 0.377248 0.159765
C33   C     C_R   0.153258 0.181044 0.623264 0.159962
C34   C     C_R   0.639056 0.187674 0.988352 -0.108332
C35   C     C_R   0.842656 0.181857 0.377248 0.159762
C36   C     C_3   0.698342 0.653598 0.667840 -0.522751
C37   C     C_3   0.296150 0.656455 0.334198 -0.524199
C38   C     C_3   0.198340 0.153597 0.667839 -0.522755
C39   C     C_3   0.796130 0.156469 0.334207 -0.524194
C40   C     C_R   0.897966 0.302526 0.207896 -0.143186
C41   C     C_R   0.099335 0.301946 0.792884 -0.151874
C42   C     C_R   0.397967 0.802525 0.207896 -0.143191
C43   C     C_R   0.599335 0.801946 0.792884 -0.151873
C44   C     C_3   0.753959 0.605248 0.565144 -0.522841
C45   C     C_R   0.886655 0.315868 0.304515 0.075938
C46   C     C_3   0.241605 0.607717 0.436227 -0.524409
C47   C     C_3   0.253956 0.105246 0.565144 -0.522841
C48   C     C_3   0.741586 0.107730 0.436235 -0.524406
C49   C     C_2   0.742473 0.212804 0.021546 -0.247201
C50   C     C_2   0.276884 0.223491 0.945929 -0.234152
C51   C     C_2   0.242428 0.712835 0.021605 -0.247209
C52   C     C_2   0.776850 0.723479 0.945985 -0.234174
C53   C     C_2   0.295135 0.756514 0.931951 0.030502
C54   C     C_2   0.783097 0.801193 0.946611 0.016672
C55   C     C_2   0.795167 0.256502 0.931907 0.030506
C56   C     C_R   0.110515 0.315561 0.696415 0.084291
C57   C     C_2   0.283113 0.301206 0.946588 0.016689
C58   C     C_R   0.866154 0.388031 0.897374 0.051169
C59   C     C_R   0.168967 0.407205 0.049415 0.057302
C60   C     C_R   0.366143 0.888035 0.897388 0.051183
C61   C     C_R   0.668962 0.907200 0.049425 0.057300
C62   C     C_R   0.858626 0.578517 0.315490 -0.145205
C63   C     C_R   0.141016 0.578286 0.684368 -0.146430
C64   C     C_R   0.358625 0.078516 0.315489 -0.145204
C65   C     C_R   0.641015 0.078285 0.684367 -0.146431
C66   C     C_R   0.872385 0.300951 0.999769 -0.169472
C67   C     C_R   0.386656 0.815868 0.304515 0.075939
C68   C     C_R   0.160909 0.322890 0.946148 -0.157674
C69   C     C_R   0.372374 0.800955 0.999783 -0.169481
C70   C     C_R   0.660907 0.822888 0.946151 -0.157679
C71   C     C_R   0.851269 0.672863 0.221893 -0.126118
C72   C     C_R   0.147944 0.672801 0.777755 -0.118176
C73   C     C_R   0.351267 0.172862 0.221892 -0.126119
C74   C     C_R   0.647942 0.172803 0.777752 -0.118173
C75   C     C_R   0.905412 0.393465 0.304770 -0.143464
C76   C     C_R   0.093627 0.393739 0.695579 -0.150925
C77   C     C_R   0.405413 0.893465 0.304770 -0.143463
C78   C     C_R   0.610514 0.815561 0.696415 0.084291
C79   C     C_R   0.593626 0.893739 0.695580 -0.150926
C80   C     C_R   0.853620 0.597634 0.912062 -0.165386
C81   C     C_R   0.148987 0.596337 0.083738 -0.164242
C82   C     C_R   0.353637 0.097642 0.912037 -0.165382
C83   C     C_R   0.649011 0.096323 0.083705 -0.164252
C84   C     C_R   0.830017 0.672319 0.953377 0.165508
C85   C     C_R   0.180675 0.666030 0.029414 0.163277
C86   C     C_R   0.330043 0.172331 0.953339 0.165496
C87   C     C_R   0.680713 0.166008 0.029361 0.163287
C88   C     C_R   0.843480 0.313308 0.939914 0.065028
H1    H     H_    0.864891 0.745580 0.037558 0.094616
H2    H     H_    0.259987 0.704274 0.330732 0.203190
H3    H     H_    0.234031 0.200269 0.673234 0.202666
H4    H     H_    0.759969 0.204294 0.330750 0.203195
H5    H     H_    0.657132 0.617834 0.743261 0.188269
H6    H     H_    0.336551 0.620929 0.257999 0.187536
H7    H     H_    0.157130 0.117834 0.743261 0.188270
H8    H     H_    0.836524 0.120944 0.258007 0.187533
H9    H     H_    0.820784 0.625121 0.513007 0.200400
H10   H     H_    0.174747 0.628353 0.490148 0.200901
H11   H     H_    0.320781 0.125118 0.513007 0.200400
H12   H     H_    0.137395 0.744578 0.959650 0.093690
H13   H     H_    0.674730 0.128371 0.490165 0.200904
H14   H     H_    0.745031 0.541657 0.581537 0.191744
H15   H     H_    0.250401 0.544200 0.418626 0.191358
H16   H     H_    0.245027 0.041656 0.581537 0.191744
H17   H     H_    0.750375 0.044214 0.418632 0.191355
H18   H     H_    0.740175 0.215471 0.094060 0.124430
H19   H     H_    0.223679 0.195640 0.956468 0.121222
H20   H     H_    0.240120 0.715520 0.094125 0.124440
H21   H     H_    0.723631 0.695633 0.956552 0.121232
H22   H     H_    0.903895 0.246850 0.171330 0.098601
H23   H     H_    0.364905 0.245585 0.037540 0.094614
H24   H     H_    0.091223 0.246024 0.830236 0.098423
H25   H     H_    0.403897 0.746849 0.171331 0.098601
H26   H     H_    0.591223 0.746024 0.830237 0.098423
H27   H     H_    0.844333 0.537184 0.377303 0.110836
H28   H     H_    0.155428 0.537048 0.622373 0.111627
H29   H     H_    0.344332 0.037183 0.377302 0.110836
H30   H     H_    0.655427 0.037047 0.622373 0.111628
H31   H     H_    0.875744 0.246516 0.032528 0.100532
H32   H     H_    0.172457 0.275934 0.891801 0.107014
H33   H     H_    0.375725 0.746521 0.032550 0.100542
H34   H     H_    0.637420 0.244569 0.959623 0.093690
H35   H     H_    0.672453 0.775929 0.891808 0.107019
H36   H     H_    0.831278 0.722788 0.200497 0.087154
H37   H     H_    0.167261 0.723168 0.798615 0.090508
H38   H     H_    0.331275 0.222785 0.200494 0.087156
H39   H     H_    0.667256 0.223174 0.798609 0.090506
H40   H     H_    0.915510 0.420301 0.359466 0.087038
H41   H     H_    0.083520 0.421475 0.641186 0.081663
H42   H     H_    0.415511 0.920302 0.359466 0.087039
H43   H     H_    0.583519 0.921474 0.641187 0.081663
H44   H     H_    0.841796 0.569608 0.859897 0.107289
H45   H     H_    0.108586 0.329110 0.518656 0.122967
H46   H     H_    0.156926 0.572244 0.141724 0.113001
H47   H     H_    0.341822 0.069617 0.859862 0.107288
H48   H     H_    0.656960 0.072227 0.141679 0.113004
H49   H     H_    0.196635 0.250159 0.353804 0.125289
H50   H     H_    0.802538 0.247863 0.645606 0.126191
H51   H     H_    0.696636 0.750158 0.353805 0.125288
H52   H     H_    0.302534 0.747869 0.645612 0.126184
H53   H     H_    0.283024 0.799667 0.819005 0.093010
H54   H     H_    0.366597 0.738373 0.767582 0.106611
H55   H     H_    0.844293 0.869119 0.985617 0.080992
H56   H     H_    0.889034 0.327315 0.481980 0.123784
H57   H     H_    0.877957 0.878165 0.854964 0.113716
H58   H     H_    0.783013 0.299695 0.819013 0.093023
H59   H     H_    0.866607 0.238410 0.767525 0.106608
H60   H     H_    0.344277 0.369112 0.985664 0.080981
H61   H     H_    0.377947 0.378216 0.855011 0.113707
H62   H     H_    0.915564 0.462963 0.770927 0.093992
H63   H     H_    0.910186 0.372716 0.740785 0.084057
H64   H     H_    0.190501 0.385704 0.159478 0.095768
H65   H     H_    0.244433 0.461705 0.074902 0.086448
H66   H     H_    0.415568 0.962951 0.770921 0.093987
H67   H     H_    0.608585 0.829109 0.518657 0.122968
H68   H     H_    0.410141 0.872707 0.740814 0.084052
H69   H     H_    0.690462 0.885672 0.159515 0.095781
H70   H     H_    0.744418 0.961671 0.074953 0.086431
H71   H     H_    0.389028 0.827321 0.481988 0.123783
H72   H     H_    0.734032 0.700271 0.673236 0.202666
N1    N     N_R   0.908660 0.628630 0.995840 -0.046802
N2    N     N_R   0.096530 0.421430 0.063580 -0.045832
N3    N     N_R   0.403470 0.921430 0.936420 -0.052425
N4    N     N_R   0.596530 0.921430 0.063580 -0.045831
N5    N     N_R   0.927500 0.575670 0.211370 -0.040515
N6    N     N_R   0.072500 0.575670 0.788630 -0.040495
N7    N     N_R   0.427500 0.075670 0.211370 -0.040516
N8    N     N_R   0.572500 0.075670 0.788630 -0.040495
N9    N     N_R   0.908660 0.365680 0.995820 -0.044066
N10   N     N_R   0.091340 0.365680 0.004180 -0.048553
N11   N     N_R   0.408660 0.865680 0.995820 -0.044067
N12   N     N_R   0.091340 0.628630 0.004160 -0.048630
N13   N     N_R   0.591340 0.865680 0.004180 -0.048553
N14   N     N_R   0.922310 0.631420 0.151980 -0.042094
N15   N     N_R   0.077690 0.631420 0.848020 -0.040890
N16   N     N_R   0.422310 0.131420 0.151980 -0.042095
N17   N     N_R   0.577690 0.131420 0.848020 -0.040889
N18   N     N_R   0.927500 0.426330 0.211360 -0.039368
N19   N     N_R   0.072500 0.426330 0.788640 -0.038305
N20   N     N_R   0.427500 0.926330 0.211360 -0.039367
N21   N     N_R   0.572500 0.926330 0.788640 -0.038307
N22   N     N_R   0.903470 0.570760 0.936440 -0.043386
N23   N     N_R   0.408660 0.128630 0.995840 -0.046802
N24   N     N_R   0.096530 0.570760 0.063560 -0.040329
N25   N     N_R   0.403470 0.070760 0.936440 -0.043384
N26   N     N_R   0.596530 0.070760 0.063560 -0.040330
N27   N     N_3   0.302835 0.747956 0.833037 -0.210933
N28   N     N_3   0.858509 0.838291 0.917716 -0.206612
N29   N     N_3   0.802846 0.247976 0.833002 -0.210941
N30   N     N_3   0.358510 0.338314 0.917732 -0.206610
N31   N     N_3   0.875561 0.414914 0.802095 -0.227709
N32   N     N_3   0.185766 0.434144 0.122177 -0.227672
N33   N     N_3   0.375541 0.914917 0.802114 -0.227700
N34   N     N_R   0.591340 0.128630 0.004160 -0.048631
N35   N     N_3   0.685746 0.934121 0.122210 -0.227672
N36   N     N_R   0.922310 0.368460 0.151950 -0.037657
N37   N     N_R   0.077690 0.368460 0.848050 -0.035611
N38   N     N_R   0.422310 0.868460 0.151950 -0.037656
N39   N     N_R   0.577690 0.868460 0.848050 -0.035611
N40   N     N_R   0.903470 0.421430 0.936420 -0.052424
Ni1   Ni    Ni4+2 0.000000 0.630300 0.000000 0.207755
Ni2   Ni    Ni4+2 0.500000 0.130300 0.000000 0.207756
Ni3   Ni    Ni4+2 1.000000 0.369700 0.000000 0.202742
Ni4   Ni    Ni4+2 0.500000 0.869700 0.000000 0.202741
Ni5   Ni    Ni4+2 0.988090 0.497570 0.863760 0.202923
Ni6   Ni    Ni4+2 0.011910 0.497570 0.136240 0.214704
Ni7   Ni    Ni4+2 0.488090 0.997570 0.863760 0.202924
Ni8   Ni    Ni4+2 0.511910 0.997570 0.136240 0.214707

loop_
_geom_bond_atom_site_label_1
_geom_bond_atom_site_label_2
_ccdc_geom_bond_type
C50   H19   S    
C83   C87   A    
C21   C26   A    
N19   Ni5   S    
C69   N11   A    
N40   Ni5   S    
C80   H44   S    
C25   H67   S    
C61   N4    A    
H55   N28   S    
N25   Ni7   S    
C66   N9    A    
C11   C47   S    
C67   C77   A    
C80   C84   A    
C76   N19   A    
C51   C85   S    
C4    C70   A    
C2    C57   S    
N24   Ni6   S    
C81   H46   S    
C12   N12   A    
C82   N25   A    
C27   C33   A    
C43   C78   A    
C6    C72   A    
H54   N27   S    
C65   N8    A    
C58   N40   A    
H61   N30   S    
C12   C85   A    
N13   Ni4   S    
C56   C76   A    
C55   N29   S    
C20   H51   S    
N1    Ni1   S    
C3    C69   A    
C24   H56   S    
C13   C35   A    
C64   N7    A    
C2    C68   A    
C10   C15   A    
N23   N25   A    
C43   H26   S    
C66   C88   A    
C20   C25   A    
C73   H38   S    
N34   Ni2   S    
N18   Ni6   S    
C82   H47   S    
C60   N3    A    
C47   H11   S    
C75   H40   S    
C11   C16   A    
C72   N15   A    
N1    N22   A    
C52   C84   S    
C75   N18   A    
C49   C87   S    
H62   N31   S    
H66   N33   S    
C68   N10   A    
C70   H35   S    
C63   N6    A    
C29   C78   S    
C48   H17   S    
C28   C35   A    
C51   H20   S    
C23   C86   A    
C38   H7    S    
C10   C46   S    
C65   H30   S    
C83   N26   A    
N37   Ni3   S    
H53   N27   S    
N6    Ni5   S    
C80   N22   A    
N10   Ni3   S    
N5    Ni6   S    
C61   N35   S    
C31   C36   S    
C30   C67   S    
C77   H42   S    
C4    C54   S    
C3    C60   A    
C34   N34   A    
H63   N31   S    
C6    C15   S    
C1    N1    A    
C8    C65   A    
C34   H34   S    
C54   N28   S    
N2    Ni6   S    
H60   N30   S    
N23   Ni2   S    
C59   N32   S    
C36   H5    S    
C70   N13   A    
C52   C54   D    
C60   N33   S    
C9    C31   A    
C25   C29   A    
C40   C45   A    
C39   H8    S    
C28   C45   S    
C77   N20   A    
C22   H45   S    
N16   Ni2   S    
C71   H36   S    
C42   N38   A    
N15   Ni1   S    
C7    C73   A    
N4    Ni8   S    
C44   H14   S    
C78   C79   A    
C40   H22   S    
N19   N37   A    
N5    N14   A    
C82   C86   A    
N18   N36   A    
C4    C61   A    
C41   H24   S    
N14   Ni1   S    
C64   H29   S    
C79   N21   A    
C1    C84   A    
C6    C63   A    
C18   H49   S    
C35   C39   S    
C9    C14   A    
C41   C56   A    
C23   N23   A    
C14   C20   A    
N9    Ni3   S    
C44   H9    S    
N12   N24   A    
C42   H25   S    
C74   H39   S    
N2    N10   A    
C69   H33   S    
C79   H43   S    
C45   C75   A    
C76   H41   S    
C8    C74   A    
N6    N15   A    
N8    Ni7   S    
C26   H71   S    
H58   N29   S    
C16   C18   A    
C32   C37   S    
C27   C56   S    
N36   Ni3   S    
C5    C14   S    
N9    N40   A    
C63   H28   S    
C37   H2    S    
C41   N37   A    
C7    C16   S    
C2    C59   A    
C26   C30   A    
C36   H72   S    
C66   H31   S    
N38   Ni4   S    
N39   Ni4   S    
C36   C44   S    
N21   N39   A    
C39   H4    S    
N3    N11   A    
C40   N36   A    
C9    C44   S    
C1    H1    S    
C47   H16   S    
N21   Ni7   S    
H69   N35   S    
C50   C57   D    
C5    C62   A    
N26   N34   A    
C24   C28   A    
C58   C88   A    
C13   C48   S    
C71   N14   A    
C49   H18   S    
C11   C33   A    
N26   Ni8   S    
C23   H23   S    
C46   H15   S    
H70   N35   S    
C81   N24   A    
N11   Ni4   S    
C13   C17   A    
C72   H37   S    
C22   C27   A    
N22   Ni5   S    
N7    Ni8   S    
C73   N16   A    
C18   C22   A    
C19   C24   A    
C53   N27   S    
C57   N30   S    
C29   C31   A    
C59   N2    A    
C49   C55   D    
H57   N28   S    
H64   N32   S    
C8    C17   S    
C30   C32   A    
C3    C53   S    
C42   C67   A    
C74   N17   A    
C38   C47   S    
C52   H21   S    
H59   N29   S    
C19   H50   S    
C48   H13   S    
C38   H3    S    
N3    Ni7   S    
C17   C19   A    
C37   H6    S    
C55   C88   S    
H68   N33   S    
C34   C87   A    
C46   H10   S    
N12   Ni1   S    
N4    N13   A    
C81   C85   A    
C7    C64   A    
C12   H12   S    
N20   N38   A    
C50   C86   S    
C10   C32   A    
C15   C21   A    
C62   N5    A    
C5    C71   A    
C58   N31   S    
C62   H27   S    
N17   Ni2   S    
C39   C48   S    
C33   C38   S    
C43   N39   A    
C21   H52   S    
C51   C53   D    
C37   C46   S    
N20   Ni8   S    
C68   H32   S    
N8    N17   A    
N7    N16   A    
H65   N32   S    
C83   H48   S    
