data_mof_unit_57470.cif
_audit_creation_date              2012-10-26T18:34:46-0400
_audit_creation_method            fapswitch 2.2
_symmetry_space_group_name_H-M    P1
_symmetry_Int_Tables_number       1
_space_group_crystal_system       triclinic
_cell_length_a                    10.826966
_cell_length_b                    9.518406
_cell_length_c                    17.718403
_cell_angle_alpha                 89.997776
_cell_angle_beta                  89.79927
_cell_angle_gamma                 89.998771
_cell_volume                      1825.96693098

loop_
_atom_site_label
_atom_site_type_symbol
_atom_type_description
_atom_site_fract_x
_atom_site_fract_y
_atom_site_fract_z
_atom_type_partial_charge
C1    C     C_R   0.262070 0.500000 0.499313 0.615154
C2    C     C_R   0.501982 0.500078 0.644188 0.637443
C3    C     C_R   0.871778 0.499991 0.500677 0.060143
C4    C     C_R   0.128222 0.499992 0.499325 0.060183
C5    C     C_R   0.399946 0.577115 0.844040 -0.034961
C6    C     C_R   0.388758 0.482003 0.153013 -0.027404
C7    C     C_R   0.600364 0.576240 0.155926 -0.034932
C8    C     C_R   0.610842 0.480861 0.847085 -0.027476
C9    C     C_R   0.396025 0.555853 0.765284 -0.045972
C10   C     C_R   0.390613 0.466683 0.232372 -0.050137
C11   C     C_R   0.604264 0.554949 0.234682 -0.045922
C12   C     C_R   0.737930 0.499999 0.500690 0.615166
C13   C     C_R   0.609108 0.465776 0.767708 -0.050152
C14   C     C_R   0.500893 0.501579 0.727169 0.028507
C15   C     C_R   0.499106 0.501569 0.272843 0.028707
C16   C     C_R   0.419389 0.074375 0.455851 0.018927
C17   C     C_R   0.580563 0.925557 0.544190 0.016666
C18   C     C_R   0.580614 0.074362 0.544145 0.018897
C19   C     C_R   0.419438 0.925568 0.455809 0.016752
C20   C     C_R   0.505936 0.535860 0.884774 0.036210
C21   C     C_R   0.493993 0.536026 0.115260 0.036260
C22   C     C_2   0.290510 0.637958 0.883719 0.262633
C23   C     C_1   0.501995 0.537627 0.966129 0.166790
C24   C     C_2   0.277277 0.435905 0.110128 0.223004
C25   C     C_2   0.710183 0.636008 0.116178 0.262836
C26   C     C_2   0.721838 0.433516 0.890053 0.222921
C27   C     C_2   0.282293 0.594008 0.722811 0.213197
C28   C     C_2   0.274942 0.424233 0.272407 0.189660
C29   C     C_2   0.718303 0.592113 0.277101 0.212887
C30   C     C_2   0.724752 0.422785 0.727775 0.189733
C31   C     C_1   0.497854 0.537686 0.033904 0.166829
C32   C     C_R   0.063873 0.372312 0.499624 -0.097433
C33   C     C_R   0.936128 0.627669 0.500341 -0.124474
C34   C     C_R   0.936132 0.372311 0.500382 -0.097218
C35   C     C_R   0.063867 0.627669 0.499654 -0.124220
C36   C     C_R   0.498061 0.500080 0.355817 0.637386
Cu1   Cu    Cu3+1 0.500000 0.640660 0.500000 0.987638
Cu2   Cu    Cu3+1 0.500000 0.359340 0.500000 1.060071
H1    H     H_    0.354757 0.130330 0.420512 0.158901
H2    H     H_    0.220359 0.350741 0.131385 0.119945
H3    H     H_    0.802743 0.611265 0.135287 0.121967
H4    H     H_    0.778049 0.347709 0.868835 0.119872
H5    H     H_    0.229571 0.686614 0.738292 0.106514
H6    H     H_    0.186027 0.459238 0.251470 0.119053
H7    H     H_    0.771728 0.684139 0.261528 0.106530
H8    H     H_    0.813764 0.456699 0.749046 0.119439
H9    H     H_    0.645064 0.869468 0.579627 0.114917
H10   H     H_    0.645253 0.130302 0.579476 0.159130
H11   H     H_    0.354938 0.869486 0.420369 0.114881
H12   H     H_    0.111946 0.272501 0.499370 0.138452
H13   H     H_    0.888060 0.727482 0.500523 0.130300
H14   H     H_    0.888063 0.272501 0.500640 0.138549
H15   H     H_    0.111931 0.727483 0.499468 0.130356
H16   H     H_    0.197799 0.614148 0.864542 0.121967
N1    N     N_R   0.500000 0.852070 0.500000 -0.231924
N2    N     N_R   0.500000 0.147930 0.500000 -0.240079
O1    O     O_R   0.319640 0.618740 0.499990 -0.515018
O2    O     O_2   0.245906 0.494224 0.051935 -0.460816
O3    O     O_2   0.698250 0.716675 0.063118 -0.438527
O4    O     O_2   0.753606 0.491480 0.948264 -0.460985
O5    O     O_2   0.244311 0.519738 0.671795 -0.506434
O6    O     O_2   0.276865 0.346813 0.327236 -0.517599
O7    O     O_2   0.755755 0.517628 0.328176 -0.506422
O8    O     O_2   0.722711 0.346181 0.672631 -0.517910
O9    O     O_R   0.680360 0.381260 0.500010 -0.489357
O10   O     O_R   0.680360 0.618740 0.500010 -0.515305
O11   O     O_R   0.319640 0.381260 0.499990 -0.489767
O12   O     O_R   0.500000 0.618830 0.391250 -0.509588
O13   O     O_R   0.500000 0.381170 0.608750 -0.448787
O14   O     O_R   0.500000 0.618830 0.608750 -0.509331
O15   O     O_R   0.500000 0.381170 0.391250 -0.448674
O16   O     O_2   0.302954 0.718494 0.936793 -0.438547

loop_
_geom_bond_atom_site_label_1
_geom_bond_atom_site_label_2
_ccdc_geom_bond_type
C6    C10   A    
C9    C14   A    
C16   N2    A    
C5    C9    A    
C8    C13   A    
C1    O11   A    
C30   O8    D    
C35   H15   S    
C2    O13   A    
C8    C26   S    
C12   O9    A    
C19   H11   S    
C34   H14   S    
C7    C25   S    
Cu2   O9    S    
C18   N2    A    
C27   O5    D    
C1    C4    S    
C6    C24   S    
Cu1   O10   S    
C11   C15   A    
C36   O12   A    
C17   C18   A    
C4    C35   A    
C22   H16   S    
C5    C20   A    
C4    C32   A    
Cu1   O14   S    
C6    C21   A    
C7    C11   A    
C21   C31   S    
C32   C34   A    
C9    C27   S    
C8    C20   A    
C2    O14   A    
C16   C19   A    
C17   N1    A    
C22   O16   D    
C29   O7    D    
C33   C35   A    
Cu1   Cu2   S    
C28   H6    S    
C32   H12   S    
C1    O1    A    
C10   C15   A    
C26   H4    S    
C28   O6    D    
C2    C14   S    
Cu2   O13   S    
C33   H13   S    
C3    C33   A    
C16   H1    S    
C25   H3    S    
C23   C31   T    
Cu1   N1    S    
Cu1   O12   S    
C27   H5    S    
C13   C30   S    
Cu2   N2    S    
Cu2   O11   S    
C11   C29   S    
C36   O15   A    
C24   O2    D    
C10   C28   S    
C12   O10   A    
C19   N1    A    
Cu2   O15   S    
C3    C12   S    
C25   O3    D    
C3    C34   A    
C24   H2    S    
C15   C36   S    
C13   C14   A    
C20   C23   S    
C26   O4    D    
C30   H8    S    
Cu1   O1    S    
C5    C22   S    
C17   H9    S    
C29   H7    S    
C7    C21   A    
C18   H10   S    
