data_mof_unit_47964.cif
_audit_creation_date              2013-03-05T16:11:52-0500
_audit_creation_method            fapswitch 2.2
_symmetry_space_group_name_H-M    P1
_symmetry_Int_Tables_number       1
_space_group_crystal_system       triclinic
_cell_length_a                    11.034018
_cell_length_b                    9.547977
_cell_length_c                    23.534955
_cell_angle_alpha                 89.331295
_cell_angle_beta                  90.53873
_cell_angle_gamma                 88.311265
_cell_volume                      2478.10400482

loop_
_atom_site_label
_atom_site_type_symbol
_atom_site_description
_atom_site_fract_x
_atom_site_fract_y
_atom_site_fract_z
_atom_type_partial_charge
O1    O     O_R   0.317570 0.620260 0.500030 -0.529890
O2    O     O_R   0.317570 0.379740 0.500030 -0.526631
C1    C     C_R   0.260188 0.500893 0.506485 0.869308
O3    O     O_R   0.499840 0.620290 0.417900 -0.489694
O4    O     O_R   0.499840 0.379710 0.417900 -0.491899
C2    C     C_R   0.497557 0.500332 0.391362 0.796836
Cu1   Cu    Cu3+1 0.499860 0.642410 0.500030 1.044749
Cu2   Cu    Cu3+1 0.499860 0.357590 0.500030 1.034598
O5    O     O_R   0.682190 0.620260 0.500010 -0.503293
O6    O     O_R   0.682190 0.379740 0.500010 -0.534406
O7    O     O_R   0.499920 0.620230 0.582140 -0.600746
O8    O     O_R   0.499920 0.379770 0.582140 -0.606645
C3    C     C_R   0.738946 0.498402 0.503466 0.897993
C4    C     C_R   0.502950 0.499220 0.608880 0.772709
C5    C     C_R   0.603059 0.464303 0.880451 0.541887
N1    N     N_R   0.494800 0.475771 0.851956 -0.472894
C6    C     C_R   0.386853 0.475939 0.879641 0.587072
C7    C     C_R   0.383931 0.465723 0.939467 -0.098630
C8    C     C_R   0.494796 0.462687 0.970069 -0.122212
C9    C     C_R   0.606835 0.463349 0.940577 -0.003631
C10   C     C_R   0.273301 0.460708 0.969038 0.427178
C11   C     C_R   0.272976 0.441437 0.028734 0.044649
C12   C     C_R   0.383075 0.453577 0.060155 -0.067056
C13   C     C_R   0.493568 0.462449 0.030261 -0.054932
C14   C     C_R   0.603629 0.470570 0.060624 -0.030689
C15   C     C_R   0.713445 0.471004 0.031586 -0.148447
C16   C     C_R   0.717330 0.465342 0.972344 0.125320
C17   C     C_R   0.387674 0.458530 0.120483 0.567431
N2    N     N_R   0.495739 0.473342 0.148660 -0.454543
C18   C     C_R   0.602436 0.479197 0.119945 0.549311
O9    O     O_2   0.705755 0.454993 0.850003 -0.523140
O10   O     O_2   0.283061 0.486202 0.848894 -0.446001
O11   O     O_2   0.285520 0.450846 0.151145 -0.539712
O12   O     O_2   0.707321 0.495874 0.148774 -0.531649
H1    H     H_    0.797804 0.475290 0.055398 0.186505
C19   C     C_R   0.567215 0.387968 0.242734 -0.092418
H2    H     H_    0.621623 0.306691 0.222650 0.175223
C20   C     C_R   0.567653 0.396833 0.301697 -0.251369
H3    H     H_    0.624693 0.323616 0.326179 0.206688
C21   C     C_R   0.494965 0.498247 0.328974 -0.142716
C22   C     C_R   0.419260 0.590771 0.295899 0.396857
C23   C     C_R   0.425555 0.586179 0.236715 -0.083393
H4    H     H_    0.370097 0.659328 0.211469 0.177211
C24   C     C_R   0.497096 0.483358 0.209743 0.246550
C25   C     C_R   0.457759 0.373736 0.758983 -0.122450
H5    H     H_    0.425484 0.280749 0.780066 0.167210
C26   C     C_R   0.461386 0.378944 0.700037 -0.257723
H6    H     H_    0.428554 0.290488 0.676618 0.177352
C27   C     C_R   0.505865 0.496517 0.671625 -0.150083
C28   C     C_R   0.548541 0.610321 0.703858 0.388853
C29   C     C_R   0.537016 0.608627 0.763354 0.165492
C30   C     C_R   0.494871 0.487440 0.790984 0.271437
C31   C     C_3   0.060728 0.632374 0.544080 0.311628
C32   C     C_3   0.070957 0.360885 0.543199 0.370811
C33   C     C_3   0.918904 0.642506 0.531454 0.706283
C34   C     C_3   0.927195 0.377962 0.549983 0.691398
C35   C     C_3   0.071870 0.499778 0.446310 0.644545
C36   C     C_3   0.119765 0.499518 0.509978 -0.260303
C37   C     C_3   0.876249 0.497281 0.506815 -0.323327
C38   C     C_3   0.930120 0.478075 0.444468 0.449746
C39   C     C_3   0.626650 0.079122 0.498943 0.267957
C40   C     C_3   0.624702 0.911690 0.493907 0.260325
H7    H     H_    0.675046 0.103840 0.539222 0.136824
H8    H     H_    0.682894 0.869951 0.529423 0.167729
H9    H     H_    0.496024 0.122712 0.591970 0.206427
H10   H     H_    0.524294 0.885491 0.590962 0.219469
C41   C     C_3   0.448100 0.082307 0.554093 -0.466720
C42   C     C_3   0.459332 0.916820 0.556364 -0.444874
C43   C     C_3   0.435334 0.089155 0.449611 0.734499
C44   C     C_3   0.419990 0.922947 0.454881 0.744000
N3    N     N_3   0.500250 0.143650 0.501250 -0.158620
N4    N     N_3   0.500250 0.856350 0.501250 -0.190999
H11   H     H_    0.353267 0.116797 0.559509 0.189164
H12   H     H_    0.373295 0.872325 0.569941 0.208583
O13   O     O_3   0.165557 0.474432 0.939026 -0.666860
H13   H     H_    0.110257 0.535927 0.961216 0.319545
O14   O     O_3   0.603701 0.723171 0.679021 -0.731923
H14   H     H_    0.653181 0.688070 0.647032 0.360181
C45   C     C_3   0.572653 0.736072 0.796297 -0.693329
H15   H     H_    0.548250 0.729559 0.841812 0.202537
H16   H     H_    0.671990 0.749428 0.793168 0.260634
H17   H     H_    0.524902 0.830750 0.778263 0.235696
C46   C     C_3   0.112367 0.777773 0.533218 -0.757114
H18   H     H_    0.113860 0.805310 0.487952 0.301300
H19   H     H_    0.056493 0.859845 0.554629 0.221812
H20   H     H_    0.202522 0.784163 0.552859 0.231773
C47   C     C_3   0.101478 0.216627 0.515981 -0.744299
H21   H     H_    0.069294 0.203984 0.471943 0.288785
H22   H     H_    0.197277 0.192705 0.518408 0.262495
H23   H     H_    0.063503 0.130755 0.541940 0.225788
O15   O     O_3   0.077752 0.610155 0.603171 -0.607306
H24   H     H_    0.166274 0.603147 0.611422 0.333238
O16   O     O_3   0.123368 0.350961 0.598273 -0.678548
H25   H     H_    0.212828 0.342426 0.595067 0.314477
O17   O     O_3   0.856971 0.669817 0.582617 -0.640036
H26   H     H_    0.875483 0.766420 0.594469 0.350509
O18   O     O_3   0.900598 0.419405 0.606034 -0.589654
H27   H     H_    0.912954 0.336993 0.631854 0.387230
O19   O     O_3   0.884584 0.754780 0.494165 -0.714982
H28   H     H_    0.936921 0.758030 0.460696 0.382713
O20   O     O_3   0.867927 0.250121 0.543262 -0.756340
H29   H     H_    0.878531 0.217496 0.504399 0.350526
O21   O     O_3   0.101515 0.628518 0.420644 -0.742774
H30   H     H_    0.086036 0.623590 0.379115 0.371416
O22   O     O_3   0.133774 0.392173 0.416398 -0.688404
H31   H     H_    0.104977 0.394644 0.376290 0.358574
O23   O     O_3   0.876924 0.576361 0.405335 -0.698424
H32   H     H_    0.789715 0.557416 0.400022 0.336210
O24   O     O_3   0.909069 0.342811 0.423744 -0.758763
H33   H     H_    0.822121 0.336194 0.413561 0.356378
C48   C     C_3   0.156052 0.399465 0.056795 -0.730842
H34   H     H_    0.087699 0.363471 0.025861 0.217705
H35   H     H_    0.173385 0.307783 0.085475 0.265885
H36   H     H_    0.115811 0.489014 0.080484 0.258124
O25   O     O_3   0.693157 0.138821 0.454603 -0.658198
H37   H     H_    0.771928 0.086519 0.452470 0.334936
O26   O     O_3   0.678405 0.859371 0.443884 -0.616851
H38   H     H_    0.654618 0.919605 0.410991 0.388241
O27   O     O_3   0.322346 0.159297 0.443063 -0.715662
H39   H     H_    0.278445 0.118817 0.410383 0.317713
O28   O     O_3   0.298951 0.891988 0.465150 -0.733761
H40   H     H_    0.265906 0.958917 0.493226 0.294576
O29   O     O_3   0.503331 0.118822 0.400237 -0.684020
H41   H     H_    0.450065 0.119948 0.366008 0.315586
O30   O     O_3   0.448519 0.864896 0.402065 -0.669190
H42   H     H_    0.383994 0.895678 0.374578 0.343038
C49   C     C_3   0.841087 0.465312 0.945524 -0.686688
H43   H     H_    0.849751 0.559378 0.917851 0.261292
H44   H     H_    0.914217 0.468567 0.977974 0.185669
H45   H     H_    0.856832 0.367871 0.921059 0.272134
O31   O     O_3   0.333514 0.680821 0.318912 -0.712510
H46   H     H_    0.315103 0.648877 0.357929 0.363684

loop_
_geom_bond_atom_site_label_1
_geom_bond_atom_site_label_2
_geom_bond_distance
_ccdc_geom_bond_type
C35   O22   1.415026 S    
C47   H21   1.101548 S    
O16   H25   0.991717 S    
C31   C36   1.631718 S    
C33   C37   1.591399 S    
C7    C10   1.412577 A    
C22   C23   1.396415 A    
H10   C42   1.112218 S    
C8    C9    1.423577 A    
O18   H27   0.993964 S    
O29   H41   0.992504 S    
C26   C27   1.403329 A    
C25   H5    1.083050 S    
Cu1   O7    1.941555 S    
O31   H46   0.989002 S    
C15   C16   1.396940 A    
O20   H29   0.976632 S    
C46   H18   1.094705 S    
C17   N2    1.370697 A    
C34   O20   1.411465 S    
O4    C2    1.303202 A    
O7    C4    1.308610 A    
C4    C27   1.476656 S    
C43   O29   1.419383 S    
C42   H12   1.100054 S    
C5    N1    1.365342 A    
C39   H7    1.114740 S    
C7    C8    1.413093 A    
C43   N3    1.510354 S    
O5    C3    1.306294 A    
C32   O16   1.415350 S    
C40   H8    1.112114 S    
C38   O24   1.410696 S    
O21   H30   0.992506 S    
C16   C49   1.509743 S    
C26   H6    1.083280 S    
N1    C6    1.362978 A    
H9    C41   1.110980 S    
C39   O25   1.406264 S    
C12   C13   1.417536 A    
C41   H11   1.096720 S    
C42   N4    1.494255 S    
C39   N3    1.509733 S    
C25   C26   1.388581 A    
C37   C38   1.598841 S    
C10   C11   1.414859 A    
C43   C44   1.604401 S    
C23   C24   1.402914 A    
C34   O18   1.412629 S    
O3    Cu1   1.946880 S    
C28   C29   1.407139 A    
C31   C33   1.590035 S    
C5    C9    1.415188 A    
C35   O21   1.411700 S    
C32   C34   1.599517 S    
C18   O12   1.350444 S    
C41   C42   1.581514 S    
Cu1   Cu2   2.719454 S    
C20   H3    1.083813 S    
C13   C14   1.407814 A    
C33   O17   1.413209 S    
O15   H24   0.994243 S    
C45   H16   1.110240 S    
C35   C38   1.584045 S    
C25   C30   1.397500 A    
C14   C15   1.396827 A    
O14   H14   0.989953 S    
C43   O27   1.404030 S    
C29   C30   1.413442 A    
O1    C1    1.327860 A    
O13   H13   0.990883 S    
C49   H44   1.107141 S    
C31   O15   1.414272 S    
N2    C18   1.365214 A    
O4    Cu2   1.941978 S    
O19   H28   0.981799 S    
Cu2   O8    1.946473 S    
C6    C7    1.410996 A    
C40   N4    1.496607 S    
C48   H35   1.110125 S    
C12   C17   1.421630 A    
O28   H40   0.989237 S    
C38   O23   1.417954 S    
C44   O30   1.401626 S    
O3    C2    1.311739 A    
C21   C22   1.418574 A    
C46   H19   1.111153 S    
O8    C4    1.310162 A    
C17   O11   1.347430 S    
C11   C48   1.517079 S    
C40   O26   1.412833 S    
N2    C24   1.441850 S    
O30   H42   0.993149 S    
C6    O10   1.349420 S    
C2    C21   1.468685 S    
C19   C24   1.400589 A    
C23   H4    1.083309 S    
O23   H32   0.991375 S    
C49   H43   1.110198 S    
C28   O14   1.379760 S    
Cu1   N4    2.043362 S    
C22   O31   1.378514 S    
C32   C36   1.636827 S    
C14   C18   1.399669 A    
Cu1   O5    2.016716 S    
C19   H2    1.082813 S    
Cu2   N3    2.042438 S    
C48   H34   1.108050 S    
O1    Cu1   2.028667 S    
O2    Cu2   2.016270 S    
N1    C30   1.438018 S    
O6    C3    1.313568 A    
C45   H17   1.110722 S    
O27   H39   0.993254 S    
C5    O9    1.347691 S    
C3    C37   1.516035 S    
C9    C16   1.424898 A    
O22   H31   0.992955 S    
C10   O13   1.379238 S    
C34   C37   1.603294 S    
C31   C46   1.535704 S    
C19   C20   1.391230 A    
C8    C13   1.416801 A    
C49   H45   1.110022 S    
O24   H33   0.990680 S    
C20   C21   1.404074 A    
C44   O28   1.398979 S    
C35   C36   1.584137 S    
C32   C47   1.555067 S    
O2    C1    1.313317 A    
C48   H36   1.110145 S    
C41   N3    1.495723 S    
C39   C40   1.605166 S    
C29   C45   1.510273 S    
C45   H15   1.108452 S    
C1    C36   1.552814 S    
C15   H1    1.084043 S    
C46   H20   1.096613 S    
Cu2   O6    2.029112 S    
C27   C28   1.421471 A    
C47   H23   1.111050 S    
C33   O19   1.417965 S    
O17   H26   0.993137 S    
C47   H22   1.075687 S    
C11   C12   1.424613 A    
C44   N4    1.520513 S    
O26   H38   0.987828 S    
O25   H37   0.991542 S    
