data_mof_unit_13685.cif
_audit_creation_date              2012-12-10T17:51:23-0500
_audit_creation_method            fapswitch 2.2
_symmetry_space_group_name_H-M    P1
_symmetry_Int_Tables_number       1
_space_group_crystal_system       triclinic
_cell_length_a                    9.91391
_cell_length_b                    10.633115
_cell_length_c                    16.841366
_cell_angle_alpha                 91.578445
_cell_angle_beta                  86.383601
_cell_angle_gamma                 90.24037
_cell_volume                      1771.13223864

loop_
_atom_site_label
_atom_site_type_symbol
_atom_type_description
_atom_site_fract_x
_atom_site_fract_y
_atom_site_fract_z
_atom_type_partial_charge
C1    C     C_R   0.500536 0.739180 0.496718 0.853510
C2    C     C_R   0.524518 0.507796 0.261152 -0.031191
C3    C     C_R   0.373501 0.863146 0.368399 -0.254557
C4    C     C_R   0.482873 0.507445 0.652782 0.845243
C5    C     C_R   0.307401 0.926109 0.310558 -0.229680
C6    C     C_R   0.305484 0.057391 0.311243 0.532865
C7    C     C_R   0.369331 0.125235 0.370442 -0.291929
C8    C     C_R   0.434279 0.062745 0.430552 0.030990
C9    C     C_R   0.435673 0.930868 0.429840 0.103395
C10   C     C_R   0.502130 0.871198 0.490268 -0.069452
C11   C     C_R   0.571376 0.938013 0.547088 -0.216392
C12   C     C_R   0.354278 0.567783 0.779963 -0.221389
C13   C     C_R   0.570836 0.066355 0.547390 -0.200739
C14   C     C_R   0.500608 0.127894 0.491084 -0.075316
C15   C     C_R   0.849509 0.665812 0.603425 -0.168420
C16   C     C_R   0.500065 0.260512 0.497167 0.876171
C17   C     C_R   0.914323 0.747208 0.654749 -0.207064
C18   C     C_R   0.053878 0.746978 0.655082 -0.191560
C19   C     C_R   0.129390 0.665515 0.603993 -0.152434
C20   C     C_R   0.067139 0.581633 0.551135 0.169380
C21   C     C_R   0.922589 0.581689 0.551001 0.173766
C22   C     C_R   0.933414 0.422040 0.451013 -0.109924
C23   C     C_R   0.412280 0.546781 0.141518 -0.082682
C24   C     C_R   0.076529 0.422123 0.450988 -0.113819
C25   C     C_R   0.517315 0.499768 0.347138 0.838866
C26   C     C_R   0.477994 0.547160 0.736386 -0.029468
C27   C     C_R   0.599615 0.579626 0.770358 -0.184963
C28   C     C_R   0.598249 0.628359 0.847077 -0.243863
C29   C     C_R   0.475809 0.640639 0.892201 0.088334
C30   C     C_R   0.353340 0.614052 0.858186 -0.148973
C31   C     C_3   0.317373 0.141438 0.188651 0.051782
C32   C     C_3   0.243547 0.226136 0.133813 -0.304072
C33   C     C_3   0.327931 0.249627 0.056652 -0.984990
C34   C     C_R   0.405840 0.529676 0.222620 -0.261395
C35   C     C_3   0.460867 0.858145 0.015194 0.078420
C36   C     C_3   0.569182 0.877084 0.075729 -0.348633
C37   C     C_3   0.637057 0.005621 0.068294 -0.984573
C38   C     C_R   0.649249 0.499125 0.217282 -0.195780
C39   C     C_R   0.655285 0.515436 0.135682 -0.209125
C40   C     C_R   0.537382 0.542603 0.098358 0.216055
C41   C     C_2   0.479192 0.650215 0.978399 0.442990
C42   C     C_2   0.545032 0.558612 0.013137 -0.364104
H1    H     H_    0.696674 0.566660 0.738174 0.162779
H2    H     H_    0.855672 0.810594 0.694633 0.147080
H3    H     H_    0.308088 0.535284 0.255071 0.163114
H4    H     H_    0.104157 0.810253 0.695211 0.151135
H5    H     H_    0.235891 0.671089 0.607922 0.202920
H6    H     H_    0.134319 0.358477 0.410934 0.159501
H7    H     H_    0.741730 0.481025 0.245950 0.158783
H8    H     H_    0.606831 0.491327 0.977322 0.136505
H9    H     H_    0.258380 0.621889 0.893469 0.146241
H10   H     H_    0.319495 0.561492 0.112429 0.168222
H11   H     H_    0.259181 0.546241 0.754259 0.158367
H12   H     H_    0.751844 0.509297 0.101896 0.135895
H13   H     H_    0.693336 0.648247 0.873372 0.132726
H14   H     H_    0.341028 0.050351 0.156794 0.149130
H15   H     H_    0.413254 0.189242 0.203841 0.142369
H16   H     H_    0.146287 0.181413 0.119234 0.227869
H17   H     H_    0.220874 0.317717 0.165114 0.221757
H18   H     H_    0.428339 0.288937 0.069616 0.274234
H19   H     H_    0.275202 0.317923 0.020768 0.268004
H20   H     H_    0.342197 0.160575 0.021226 0.258849
H21   H     H_    0.380341 0.929255 0.028297 0.157409
H22   H     H_    0.503601 0.876137 0.953622 0.129868
H23   H     H_    0.622917 0.890554 0.592626 0.142910
H24   H     H_    0.521997 0.868157 0.136986 0.228629
H25   H     H_    0.648164 0.803539 0.065870 0.226181
H26   H     H_    0.688136 0.014655 0.008092 0.268103
H27   H     H_    0.713856 0.016321 0.113240 0.273428
H28   H     H_    0.561654 0.081899 0.078716 0.264775
H29   H     H_    0.375745 0.761599 0.364035 0.179360
H30   H     H_    0.257928 0.872810 0.264960 0.159585
H31   H     H_    0.367924 0.226630 0.367795 0.163287
H32   H     H_    0.622377 0.118075 0.592979 0.154365
H33   H     H_    0.883710 0.358319 0.410984 0.151904
H34   H     H_    0.742231 0.671049 0.606958 0.197410
N1    N     N_R   0.857140 0.501200 0.500750 -0.122633
N2    N     N_R   0.142740 0.501280 0.500770 -0.123795
O1    O     O_R   0.385310 0.683220 0.500000 -0.639050
O2    O     O_3   0.400515 0.737862 0.022481 -0.655374
O3    O     O_R   0.614640 0.683250 0.500010 -0.628190
O4    O     O_R   0.371780 0.500010 0.615800 -0.631338
O5    O     O_R   0.601110 0.500030 0.615800 -0.639074
O6    O     O_R   0.385360 0.316750 0.499990 -0.611248
O7    O     O_R   0.614690 0.316780 0.500000 -0.610955
O8    O     O_R   0.398890 0.499970 0.384200 -0.632716
O9    O     O_R   0.628220 0.499990 0.384200 -0.614487
O10   O     O_3   0.232792 0.120343 0.257533 -0.650923
Zn1   Zn    Zn3+2 0.346870 0.499980 0.499990 0.933167
Zn2   Zn    Zn3+2 0.653130 0.500020 0.500010 0.938645

loop_
_geom_bond_atom_site_label_1
_geom_bond_atom_site_label_2
_ccdc_geom_bond_type
C30   H9    S    
C37   H27   S    
C41   C42   D    
C19   C20   A    
C32   H16   S    
C41   O2    S    
C36   H25   S    
C7    C8    A    
C7    H31   S    
C38   H7    S    
C26   C27   A    
O4    Zn1   S    
C28   C29   A    
C5    H30   S    
C5    C6    A    
C19   H5    S    
C39   H12   S    
C1    O3    A    
C23   C40   A    
C37   H26   S    
C35   O2    S    
C25   O9    A    
C6    O10   S    
C18   C19   A    
C35   C36   S    
C33   H20   S    
C35   H22   S    
C14   C16   S    
C31   H14   S    
C9    C10   A    
C12   H11   S    
C29   C41   S    
C2    C34   A    
C40   C42   S    
C15   H34   S    
C37   H28   S    
C22   H33   S    
C18   H4    S    
C28   H13   S    
N2    Zn1   S    
N1    Zn2   S    
C24   H6    S    
C39   C40   A    
C8    C9    A    
C16   O6    A    
C12   C26   A    
C3    H29   S    
C29   C30   A    
C3    C9    A    
C2    C38   A    
C31   C32   S    
C23   C34   A    
C17   C18   A    
C34   H3    S    
C13   H32   S    
C42   H8    S    
O3    Zn2   S    
C24   N2    A    
C33   H18   S    
C16   O7    A    
C1    O1    A    
C22   C24   A    
O6    Zn1   S    
C15   C17   A    
O5    Zn2   S    
C36   C37   S    
C8    C14   A    
C31   O10   S    
C12   C30   A    
C1    C10   S    
C22   N1    A    
C3    C5    A    
O8    Zn1   S    
C4    C26   S    
O7    Zn2   S    
C6    C7    A    
C20   N2    A    
C32   C33   S    
C31   H15   S    
C17   H2    S    
C11   C13   A    
C23   H10   S    
C38   C39   A    
C4    O5    A    
C25   O8    A    
C2    C25   S    
C36   H24   S    
O1    Zn1   S    
C10   C11   A    
C27   H1    S    
C15   C21   A    
C4    O4    A    
C20   C21   A    
C33   H19   S    
O9    Zn2   S    
C21   N1    A    
C27   C28   A    
C35   H21   S    
C32   H17   S    
C13   C14   A    
C11   H23   S    
