data_mof_unit_13657.cif
_audit_creation_date              2012-12-10T20:46:24-0500
_audit_creation_method            fapswitch 2.2
_symmetry_space_group_name_H-M    P1
_symmetry_Int_Tables_number       1
_space_group_crystal_system       triclinic
_cell_length_a                    10.685035
_cell_length_b                    8.933929
_cell_length_c                    8.109982
_cell_angle_alpha                 89.981914
_cell_angle_beta                  90.210146
_cell_angle_gamma                 89.953448
_cell_volume                      774.168059962

loop_
_atom_site_label
_atom_site_type_symbol
_atom_type_description
_atom_site_fract_x
_atom_site_fract_y
_atom_site_fract_z
_atom_type_partial_charge
C1    C     C_R   0.500430 0.218009 0.499972 0.933138
C2    C     C_1   0.500017 0.934827 0.499914 -0.199618
C3    C     C_3   0.894225 0.450531 0.190159 -0.337796
C4    C     C_3   0.996902 0.446604 0.058780 -0.901485
C5    C     C_3   0.126808 0.244300 0.347863 -0.383200
C6    C     C_3   0.158285 0.144160 0.495039 -0.876444
C7    C     C_R   0.499872 0.782001 0.499949 0.937320
C8    C     C_R   0.261868 0.497978 0.499263 0.939846
C9    C     C_R   0.738618 0.491068 0.499763 0.934958
C10   C     C_2   0.938617 0.423746 0.367319 0.131073
C11   C     C_2   0.069343 0.391769 0.402883 0.210389
C12   C     C_2   0.867977 0.448095 0.502116 -0.443194
C13   C     C_2   0.129647 0.495187 0.493204 -0.370623
C14   C     C_1   0.500253 0.065206 0.499946 -0.193006
H1    H     H_    0.907841 0.430036 0.624423 0.153168
H2    H     H_    0.197076 0.036243 0.450388 0.248462
H3    H     H_    0.058962 0.181883 0.269872 0.208370
H4    H     H_    0.211650 0.263624 0.272304 0.225477
H5    H     H_    0.081732 0.592440 0.543404 0.118184
H6    H     H_    0.075113 0.522568 0.092680 0.273835
H7    H     H_    0.032630 0.331318 0.040709 0.253659
H8    H     H_    0.957436 0.484921 0.939105 0.252128
H9    H     H_    0.822043 0.366040 0.157392 0.221774
H10   H     H_    0.852136 0.564115 0.182470 0.226053
H11   H     H_    0.228828 0.197692 0.576441 0.260086
H12   H     H_    0.072489 0.120939 0.567650 0.260499
N1    N     N_1   0.500000 0.500000 0.073640 -0.042841
N2    N     N_1   0.500000 0.500000 0.926360 -0.036483
O1    O     O_R   0.500000 0.285350 0.636850 -0.618699
O2    O     O_R   0.500000 0.714650 0.636850 -0.613130
O3    O     O_R   0.500000 0.285360 0.363100 -0.619438
O4    O     O_R   0.500000 0.714640 0.363100 -0.614398
O5    O     O_R   0.319080 0.500000 0.636840 -0.616268
O6    O     O_R   0.680920 0.500000 0.636840 -0.615504
O7    O     O_R   0.319090 0.500000 0.363090 -0.620811
O8    O     O_R   0.680910 0.500000 0.363090 -0.630932
Zn1   Zn    Zn3+2 0.500000 0.500000 0.682780 0.979806
Zn2   Zn    Zn3+2 0.500000 0.500000 0.317220 0.965650

loop_
_geom_bond_atom_site_label_1
_geom_bond_atom_site_label_2
_ccdc_geom_bond_type
C9    O8    A    
C12   H1    S    
C8    C13   S    
C5    H4    S    
O4    Zn2   S    
O6    Zn1   S    
C4    H8    S    
C3    H9    S    
C2    C7    S    
O3    Zn2   S    
C1    O1    A    
C7    O2    A    
C7    O4    A    
C4    H7    S    
C11   C13   D    
C3    H10   S    
C6    H12   S    
C10   C12   D    
N2    Zn1   S    
C5    C6    S    
O8    Zn2   S    
C5    C11   S    
C8    O5    A    
C9    O6    A    
C2    C14   T    
C9    C12   S    
C6    H11   S    
C5    H3    S    
C10   C11   S    
C13   H5    S    
N1    Zn2   S    
C6    H2    S    
C3    C4    S    
C4    H6    S    
C1    O3    A    
O7    Zn2   S    
O1    Zn1   S    
N1    N2    T    
C3    C10   S    
C1    C14   S    
O5    Zn1   S    
O2    Zn1   S    
C8    O7    A    
