data_mof_unit_58812.cif
_audit_creation_date              2012-12-11T15:54:00-0500
_audit_creation_method            fapswitch 2.2
_symmetry_space_group_name_H-M    P1
_symmetry_Int_Tables_number       1
_space_group_crystal_system       triclinic
_cell_length_a                    10.646368
_cell_length_b                    10.686548
_cell_length_c                    16.967065
_cell_angle_alpha                 80.624919
_cell_angle_beta                  99.440317
_cell_angle_gamma                 117.856325
_cell_volume                      1675.3343914

loop_
_atom_site_label
_atom_site_type_symbol
_atom_type_description
_atom_site_fract_x
_atom_site_fract_y
_atom_site_fract_z
_atom_type_partial_charge
C1    C     C_R   0.358593 0.222866 0.626155 0.549255
C2    C     C_1   0.293797 0.110025 0.771789 -0.028206
C3    C     C_1   0.334254 0.668889 0.278529 0.017981
C4    C     C_R   0.413164 0.620777 0.601493 0.558527
C5    C     C_1   0.322003 0.678727 0.207570 0.032848
C6    C     C_R   0.801914 0.651609 0.148115 -0.017393
C7    C     C_R   0.808744 0.542790 0.202967 0.057092
C8    C     C_R   0.777648 0.527031 0.279631 0.019274
C9    C     C_R   0.727240 0.730759 0.249441 -0.024902
C10   C     C_R   0.758788 0.743623 0.170536 -0.135223
C11   C     C_3   0.730930 0.386572 0.195694 -0.254244
C12   C     C_R   0.512586 0.707556 0.735723 -0.148680
C13   C     C_3   0.696625 0.369588 0.280684 -0.226230
C14   C     C_R   0.737357 0.618397 0.305506 -0.027562
C15   C     C_R   0.255813 0.041660 0.181795 -0.055197
C16   C     C_R   0.777570 0.618981 0.626705 0.567719
C17   C     C_R   0.148475 0.048843 0.215379 -0.035913
C18   C     C_R   0.177289 0.099228 0.288819 0.012248
C19   C     C_R   0.393137 0.073759 0.315079 0.213153
C20   C     C_R   0.371975 0.038821 0.235187 -0.133782
C21   C     C_3   0.046899 0.111067 0.185216 -0.254102
C22   C     C_3   0.082196 0.171113 0.266041 0.029373
C23   C     C_R   0.490741 0.722653 0.811992 -0.135611
C24   C     C_R   0.305969 0.127571 0.337072 -0.008723
C25   C     C_R   0.890304 0.701791 0.856124 0.540306
C26   C     C_R   0.316203 0.705908 0.898907 0.540649
C27   C     C_R   0.252530 0.058099 0.851179 0.563912
C28   C     C_R   0.349185 0.221793 0.400918 0.522053
C29   C     C_R   0.879094 0.687688 0.079534 0.543461
C30   C     C_R   0.312160 0.702869 0.124197 0.549672
C31   C     C_R   0.244968 0.035337 0.094982 0.575863
C32   C     C_R   0.364710 0.655282 0.361466 0.528601
C33   C     C_R   0.705320 0.587626 0.388615 0.544424
C34   C     C_3   0.092196 0.505291 0.769948 -0.233160
C35   C     C_R   0.352494 0.650831 0.837618 0.031629
C36   C     C_R   0.246601 0.543047 0.793407 -0.013804
C37   C     C_R   0.267854 0.529216 0.717787 0.001669
C38   C     C_3   0.470530 0.988763 0.435955 -0.019658
C39   C     C_2   0.156966 0.330450 0.255397 0.239846
C40   C     C_2   0.958817 0.113898 0.316196 0.281311
C41   C     C_2   0.035943 0.339488 0.664007 0.226824
C42   C     C_2   0.097880 0.601598 0.622381 0.290021
C43   C     C_2   0.689359 0.838942 0.268573 0.212746
C44   C     C_3   0.115184 0.491123 0.685869 0.009257
C45   C     C_R   0.396890 0.619957 0.685043 0.031328
C46   C     C_1   0.823007 0.656613 0.705983 -0.031553
C47   C     C_1   0.849911 0.684862 0.773803 -0.051068
C48   C     C_1   0.330135 0.156390 0.705460 -0.017867
Cr1   Cr    Cr6+3 0.608440 0.389080 0.519680 1.058907
Cr2   Cr    Cr6+3 0.288640 0.400090 0.490760 1.092126
Cr3   Cr    Cr6+3 0.602940 0.710800 0.489510 1.023408
Cr4   Cr    Cr6+3 0.052530 0.947560 0.964210 1.008283
Cr5   Cr    Cr6+3 0.059970 0.626800 0.992920 1.032536
Cr6   Cr    Cr6+3 0.373320 0.938440 0.995370 1.041961
H1    H     H_    0.616507 0.772717 0.714169 0.139211
H2    H     H_    0.021484 0.403584 0.802982 0.122367
H3    H     H_    0.754883 0.828174 0.126882 0.168490
H4    H     H_    0.803879 0.341594 0.189712 0.193190
H5    H     H_    0.372497 0.886999 0.426276 0.137097
H6    H     H_    0.453174 0.042237 0.480648 0.143311
H7    H     H_    0.559547 0.964560 0.463324 0.188046
H8    H     H_    0.272574 0.387128 0.258033 0.084632
H9    H     H_    0.868250 0.135211 0.294592 0.135903
H10   H     H_    0.048605 0.255378 0.704519 0.123310
H11   H     H_    0.033198 0.570353 0.565899 0.178777
H12   H     H_    0.635287 0.356211 0.150872 0.140932
H13   H     H_    0.704613 0.867501 0.328388 0.208445
H14   H     H_    0.581972 0.333828 0.284873 0.148278
H15   H     H_    0.748754 0.314142 0.324266 0.206692
H16   H     H_    0.450458 0.018070 0.214139 0.197086
H17   H     H_    0.935484 0.028477 0.175146 0.144524
H18   H     H_    0.082249 0.193604 0.133446 0.163976
H19   H     H_    0.578210 0.801479 0.846756 0.143353
H20   H     H_    0.068198 0.594725 0.773456 0.176769
O1    O     O_R   0.754020 0.497590 0.609930 -0.496297
O2    O     O_R   0.406180 0.826930 0.920660 -0.523752
O3    O     O_R   0.358620 0.062870 0.901950 -0.480366
O4    O     O_R   0.481420 0.271390 0.600630 -0.497307
O5    O     O_R   0.163910 0.085460 0.050210 -0.510746
O6    O     O_R   0.935200 0.815170 0.045770 -0.525492
O7    O     O_R   0.916120 0.596690 0.069430 -0.493907
O8    O     O_R   0.192310 0.631200 0.086170 -0.479160
O9    O     O_R   0.406770 0.819480 0.096420 -0.487847
O10   O     O_R   0.359170 0.055960 0.064880 -0.495375
O11   O     O_3   0.161940 0.837600 0.984160 -0.299559
O12   O     O_R   0.295080 0.533620 0.397890 -0.477217
O13   O     O_R   0.263810 0.254550 0.589590 -0.492441
O14   O     O_R   0.300820 0.531200 0.560890 -0.491179
O15   O     O_R   0.491480 0.744020 0.564270 -0.533015
O16   O     O_R   0.726290 0.693800 0.583010 -0.500251
O17   O     O_R   0.747830 0.500190 0.434090 -0.481884
O18   O     O_R   0.475680 0.273800 0.437630 -0.504257
O19   O     O_R   0.257620 0.257160 0.413750 -0.475957
O20   O     O_3   0.512265 0.077301 0.363865 -0.581856
O21   O     O_2   0.086852 0.396430 0.239705 -0.536138
O22   O     O_2   0.960603 0.047232 0.381755 -0.488240
O23   O     O_R   0.485280 0.746620 0.388440 -0.555125
O24   O     O_2   0.957483 0.308973 0.601649 -0.500775
O25   O     O_2   0.157261 0.727470 0.633494 -0.529179
O26   O     O_2   0.646235 0.905492 0.215389 -0.547099
O27   O     O_R   0.720550 0.696220 0.420010 -0.497731
O28   O     O_3   0.500010 0.499990 0.499980 -0.319631
O29   O     O_R   0.163320 0.092900 0.874450 -0.507182
O30   O     O_R   0.934650 0.822080 0.882840 -0.511240
O31   O     O_R   0.915520 0.604140 0.893670 -0.514795
O32   O     O_R   0.191760 0.638110 0.923230 -0.504776

loop_
_geom_bond_atom_site_label_1
_geom_bond_atom_site_label_2
_ccdc_geom_bond_type
Cr3   O23   S    
Cr4   O29   S    
C1    O13   A    
C8    C13   S    
C16   O1    A    
C19   C20   A    
C26   O32   A    
C14   C33   S    
Cr6   O10   S    
C25   O31   A    
C7    C8    A    
C32   O23   A    
Cr3   O28   S    
C34   H2    S    
C12   C23   A    
C40   H9    S    
C21   H17   S    
C33   O27   A    
C16   O16   A    
C36   C37   A    
C23   H19   S    
C5    C30   S    
C33   O17   A    
Cr3   O16   S    
Cr1   O4    S    
Cr5   O7    S    
C30   O9    A    
Cr5   O32   S    
Cr4   O30   S    
C35   C36   A    
C42   H11   S    
C26   O2    A    
Cr1   O1    S    
C2    C27   S    
C11   H4    S    
C9    C10   A    
C25   C47   S    
C11   H12   S    
Cr2   O14   S    
Cr6   O3    S    
C22   C40   S    
C18   C22   S    
C21   C22   S    
C1    O4    A    
C20   H16   S    
C42   C44   S    
Cr1   O17   S    
Cr6   O9    S    
C4    C45   S    
C15   C20   A    
C9    C43   S    
C21   H18   S    
C10   H3    S    
C34   C44   S    
C43   O26   D    
C28   O18   A    
C16   C46   S    
Cr1   O28   S    
C2    C48   T    
C17   C21   S    
C31   O10   A    
Cr5   O8    S    
C30   O8    A    
C7    C11   S    
C9    C14   A    
C29   O7    A    
C32   O12   A    
C38   O20   S    
C17   C18   A    
C1    C48   S    
C15   C31   S    
C39   O21   D    
C19   O20   S    
Cr2   O13   S    
C34   H20   S    
Cr2   O19   S    
C38   H6    S    
Cr2   O28   S    
C23   C35   A    
C41   C44   S    
C18   C24   A    
Cr1   O18   S    
C37   C45   A    
Cr4   O5    S    
C3    C5    T    
C4    O15   A    
C15   C17   A    
C39   H8    S    
C46   C47   T    
Cr4   O11   S    
C8    C14   A    
Cr6   O2    S    
C24   C28   S    
C12   C45   A    
C27   O3    A    
C6    C10   A    
Cr6   O11   S    
C25   O30   A    
C31   O5    A    
C6    C7    A    
C4    O14   A    
Cr3   O27   S    
C38   H7    S    
C37   C44   S    
C19   C24   A    
C40   O22   D    
C42   O25   D    
Cr3   O15   S    
C11   C13   S    
C29   O6    A    
C13   H15   S    
C22   C39   S    
C27   O29   A    
C34   C36   S    
C3    C32   S    
C12   H1    S    
Cr2   O12   S    
C38   H5    S    
Cr5   O31   S    
C26   C35   S    
C6    C29   S    
C43   H13   S    
C41   O24   D    
C28   O19   A    
Cr5   O11   S    
C41   H10   S    
Cr4   O6    S    
C13   H14   S    
