data_mof_unit_42079.cif
_audit_creation_date              2012-12-11T15:22:40-0500
_audit_creation_method            fapswitch 2.2
_symmetry_space_group_name_H-M    P1
_symmetry_Int_Tables_number       1
_space_group_crystal_system       triclinic
_cell_length_a                    22.461236
_cell_length_b                    13.073879
_cell_length_c                    26.877504
_cell_angle_alpha                 90.0
_cell_angle_beta                  91.00389
_cell_angle_gamma                 90.00013
_cell_volume                      7891.51491202

loop_
_atom_site_label
_atom_site_type_symbol
_atom_type_description
_atom_site_fract_x
_atom_site_fract_y
_atom_site_fract_z
_atom_type_partial_charge
C1    C     C_R   0.720918 0.346352 0.178705 0.558596
C2    C     C_R   0.488099 0.251283 0.895758 -0.193705
C3    C     C_R   0.009928 0.587522 0.555120 -0.098714
C4    C     C_R   0.498825 0.084789 0.393540 0.249196
C5    C     C_R   0.502105 0.085291 0.606750 0.249484
C6    C     C_R   0.997893 0.585290 0.393249 0.249484
C7    C     C_R   0.001172 0.584787 0.606459 0.249196
C8    C     C_R   0.721312 0.036484 0.383737 0.007165
C9    C     C_R   0.278718 0.036367 0.616258 0.007518
C10   C     C_R   0.221283 0.536365 0.383742 0.007520
C11   C     C_R   0.778689 0.536484 0.616263 0.007164
C12   C     C_R   0.677951 0.976811 0.407423 -0.139366
C13   C     C_R   0.011897 0.751278 0.104242 -0.193716
C14   C     C_R   0.322052 0.976589 0.592596 -0.139099
C15   C     C_R   0.177949 0.476587 0.407404 -0.139099
C16   C     C_R   0.822049 0.476812 0.592577 -0.139366
C17   C     C_R   0.677497 0.968927 0.459363 -0.137961
C18   C     C_R   0.322535 0.968688 0.540652 -0.138108
C19   C     C_R   0.177466 0.468686 0.459348 -0.138108
C20   C     C_R   0.822503 0.468928 0.540637 -0.137961
C21   C     C_R   0.715630 0.029487 0.489193 0.027380
C22   C     C_R   0.284476 0.029334 0.510801 0.027475
C23   C     C_R   0.215525 0.529333 0.489199 0.027475
C24   C     C_R   0.973741 0.756085 0.897651 -0.183546
C25   C     C_R   0.784370 0.529487 0.510807 0.027380
C26   C     C_R   0.750414 0.101973 0.465084 -0.055930
C27   C     C_R   0.249744 0.101913 0.534895 -0.056029
C28   C     C_R   0.250256 0.601912 0.465105 -0.056029
C29   C     C_R   0.749586 0.601973 0.534916 -0.055929
C30   C     C_R   0.761707 0.094180 0.414047 -0.014163
C31   C     C_R   0.238393 0.094115 0.585922 -0.014524
C32   C     C_R   0.261607 0.594114 0.414078 -0.014525
C33   C     C_R   0.738293 0.594180 0.585953 -0.014163
C34   C     C_R   0.783577 0.022281 0.566618 0.269217
C35   C     C_R   0.514846 0.256900 0.051152 0.000701
C36   C     C_R   0.216561 0.022316 0.433353 0.269262
C37   C     C_R   0.283440 0.522317 0.566647 0.269262
C38   C     C_R   0.716423 0.522281 0.433382 0.269217
C39   C     C_R   0.721492 0.349216 0.321519 0.530330
C40   C     C_R   0.278490 0.349240 0.678498 0.536082
C41   C     C_R   0.221510 0.849240 0.321502 0.536080
C42   C     C_R   0.778507 0.849216 0.678481 0.530331
C43   C     C_R   0.798070 0.969505 0.610099 -0.102872
C44   C     C_R   0.202048 0.969624 0.389855 -0.101243
C45   C     C_R   0.297952 0.469625 0.610145 -0.101244
C46   C     C_R   0.499323 0.253476 0.947145 0.004030
C47   C     C_R   0.701930 0.469505 0.389901 -0.102871
C48   C     C_R   0.698759 0.904186 0.616078 -0.175290
C49   C     C_R   0.301318 0.904084 0.383877 -0.175258
C50   C     C_R   0.198682 0.404083 0.616123 -0.175259
C51   C     C_R   0.801241 0.404187 0.383922 -0.175289
C52   C     C_R   0.683715 0.952102 0.570803 -0.178970
C53   C     C_R   0.316369 0.951894 0.429185 -0.179125
C54   C     C_R   0.183631 0.451893 0.570815 -0.179126
C55   C     C_R   0.816285 0.452102 0.429196 -0.178968
C56   C     C_R   0.726879 0.005532 0.543314 0.038756
C57   C     C_R   0.000672 0.753473 0.052855 0.004026
C58   C     C_R   0.273233 0.005404 0.456673 0.039043
C59   C     C_R   0.226767 0.505404 0.543327 0.039044
C60   C     C_R   0.773121 0.505533 0.456686 0.038755
C61   C     C_R   0.757147 0.907484 0.634439 -0.023851
C62   C     C_R   0.242925 0.907514 0.365520 -0.022648
C63   C     C_R   0.257075 0.407514 0.634480 -0.022649
C64   C     C_R   0.742853 0.407484 0.365561 -0.023852
C65   C     C_R   0.553526 0.159481 0.321351 0.526812
C66   C     C_R   0.446546 0.159502 0.678684 0.528546
C67   C     C_R   0.053454 0.659502 0.321316 0.528545
C68   C     C_R   0.985145 0.756901 0.948848 0.000697
C69   C     C_R   0.946474 0.659482 0.678649 0.526806
C70   C     C_R   0.719811 0.047014 0.328440 0.562881
C71   C     C_R   0.280189 0.046976 0.671554 0.563547
C72   C     C_R   0.219812 0.546975 0.328446 0.563546
C73   C     C_R   0.780189 0.547014 0.671560 0.562881
C74   C     C_R   0.500032 0.075299 0.106347 0.251615
C75   C     C_R   0.481521 0.064857 0.898940 0.248768
C76   C     C_R   0.018495 0.564855 0.101056 0.248779
C77   C     C_R   0.999978 0.575311 0.893649 0.251623
C78   C     C_R   0.493613 0.073341 0.054570 0.027595
C79   C     C_R   0.501003 0.164257 0.026913 0.021354
C80   C     C_R   0.486691 0.067662 0.950574 0.027852
C81   C     C_R   0.013328 0.567664 0.049421 0.027850
C82   C     C_R   0.006402 0.573351 0.945425 0.027622
C83   C     C_R   0.480680 0.977494 0.978410 -0.148982
C84   C     C_R   0.482780 0.980682 0.029864 -0.140057
C85   C     C_R   0.017251 0.480696 0.970129 -0.140015
C86   C     C_R   0.019352 0.477502 0.021583 -0.148978
C87   C     C_3   0.525182 0.937666 0.854839 -0.000356
C88   C     C_3   0.512073 0.840764 0.825353 -0.379354
C89   C     C_3   0.434096 0.982460 0.150971 -0.012992
C90   C     C_R   0.495721 0.161889 0.974827 0.024516
C91   C     C_3   0.419397 0.873049 0.165619 -0.378948
C92   C     C_3   0.065908 0.482560 0.848975 -0.012980
C93   C     C_3   0.080669 0.373147 0.834376 -0.378945
C94   C     C_3   0.974839 0.437653 0.145151 -0.000350
C95   C     C_3   0.987951 0.340755 0.174639 -0.379342
C96   C     C_3   0.868942 0.061509 0.889522 -0.025432
C97   C     C_3   0.879745 0.104478 0.837818 -0.362331
C98   C     C_3   0.113903 0.010763 0.114105 0.010816
C99   C     C_3   0.071155 0.046911 0.153646 -0.355029
C100  C     C_3   0.386071 0.510826 0.885856 0.010823
C101  C     C_R   0.004285 0.661891 0.025171 0.024512
C102  C     C_3   0.428781 0.547084 0.846310 -0.355014
C103  C     C_3   0.631060 0.561506 0.110462 -0.025434
C104  C     C_3   0.620289 0.604509 0.162165 -0.362340
C105  C     C_3   0.532375 0.366981 0.367173 -0.238510
C106  C     C_3   0.516261 0.467935 0.392301 -0.328949
C107  C     C_3   0.523641 0.554814 0.354632 -0.459160
C108  C     C_3   0.467435 0.367089 0.632821 -0.238595
C109  C     C_3   0.483662 0.468012 0.607718 -0.329228
C110  C     C_3   0.476256 0.554907 0.645376 -0.458874
C111  C     C_3   0.032564 0.867088 0.367178 -0.238595
C112  C     C_R   0.279054 0.345581 0.821517 0.569595
C113  C     C_R   0.999002 0.664262 0.973085 0.021343
C114  C     C_3   0.016336 0.968011 0.392282 -0.329230
C115  C     C_3   0.023743 0.054906 0.354624 -0.458872
C116  C     C_3   0.967624 0.866980 0.632827 -0.238511
C117  C     C_3   0.983738 0.967934 0.607698 -0.328949
C118  C     C_3   0.976359 0.054813 0.645367 -0.459160
C119  C     C_3   0.560833 0.008165 0.665714 0.000096
C120  C     C_3   0.564324 0.917455 0.700991 -0.370759
C121  C     C_3   0.440490 0.005964 0.334881 0.001238
C122  C     C_3   0.437654 0.915410 0.299451 -0.370839
C123  C     C_3   0.059508 0.505959 0.665116 0.001236
C124  C     C_R   0.520542 0.347207 0.023314 -0.123500
C125  C     C_3   0.062346 0.415404 0.700546 -0.370854
C126  C     C_3   0.939168 0.508162 0.334282 0.000100
C127  C     C_3   0.935679 0.417451 0.299006 -0.370755
C128  C     C_3   0.841616 0.166020 0.573471 -0.033614
C129  C     C_3   0.900126 0.213360 0.557095 -0.399649
C130  C     C_3   0.158548 0.166117 0.426546 -0.033288
C131  C     C_3   0.099952 0.213273 0.442843 -0.399993
C132  C     C_3   0.341452 0.666118 0.573454 -0.033288
C133  C     C_3   0.400048 0.713275 0.557157 -0.399992
C134  C     C_3   0.658385 0.666020 0.426529 -0.033614
C135  C     C_R   0.511529 0.345903 0.971744 -0.136346
C136  C     C_3   0.599874 0.713360 0.442904 -0.399649
C137  C     C_3   0.819445 0.137452 0.393562 -0.247273
C138  C     C_3   0.863293 0.181860 0.432310 -0.328466
C139  C     C_3   0.920494 0.221736 0.409374 -0.473340
C140  C     C_3   0.180649 0.137386 0.606365 -0.247375
C141  C     C_3   0.136811 0.181622 0.567568 -0.328000
C142  C     C_3   0.079576 0.221384 0.590461 -0.473693
C143  C     C_3   0.319352 0.637386 0.393634 -0.247376
C144  C     C_3   0.363189 0.681623 0.432432 -0.328002
C145  C     C_3   0.420425 0.721385 0.409538 -0.473691
C146  C     C_R   0.988453 0.845897 0.028259 -0.136360
C147  C     C_3   0.680555 0.637451 0.606438 -0.247273
C148  C     C_3   0.636707 0.681859 0.567689 -0.328465
C149  C     C_3   0.579506 0.721735 0.590625 -0.473340
C150  C     C_3   0.824400 0.094945 0.109075 -0.232981
C151  C     C_3   0.869655 0.118193 0.067988 -0.327087
C152  C     C_3   0.925258 0.169374 0.089230 -0.470722
C153  C     C_3   0.147112 0.991531 0.867420 -0.241216
C154  C     C_3   0.088284 0.971447 0.893880 -0.326384
C155  C     C_3   0.035658 0.999518 0.859882 -0.462909
C156  C     C_3   0.352893 0.491545 0.132587 -0.241208
C157  C     C_R   0.979438 0.847203 0.976689 -0.123503
C158  C     C_3   0.411725 0.471456 0.106135 -0.326396
C159  C     C_3   0.464346 0.499540 0.140137 -0.462916
C160  C     C_3   0.675609 0.594953 0.890932 -0.232983
C161  C     C_3   0.630362 0.618214 0.932024 -0.327088
C162  C     C_3   0.574752 0.669381 0.910788 -0.470723
C163  C     C_R   0.736617 0.971325 0.126006 0.018165
C164  C     C_R   0.259604 0.955197 0.870133 0.014589
C165  C     C_R   0.240403 0.455183 0.129872 0.014586
C166  C     C_R   0.763384 0.471323 0.873994 0.018167
C167  C     C_R   0.770911 0.030664 0.092557 -0.001247
C168  C     C_R   0.220946 0.845583 0.178484 0.569602
C169  C     C_R   0.204117 0.959835 0.895026 -0.005963
C170  C     C_R   0.295893 0.459830 0.104981 -0.005957
C171  C     C_R   0.729097 0.530666 0.907445 -0.001248
C172  C     C_R   0.755583 0.026715 0.042345 -0.093907
C173  C     C_R   0.203968 0.940771 0.946454 -0.097158
C174  C     C_R   0.296046 0.440761 0.053553 -0.097161
C175  C     C_R   0.744427 0.526710 0.957657 -0.093908
C176  C     C_R   0.724115 0.943824 0.022760 0.023213
C177  C     C_R   0.256873 0.919481 0.972909 0.022177
C178  C     C_R   0.243144 0.419448 0.027098 0.022172
C179  C     C_R   0.779082 0.846352 0.821295 0.558596
C180  C     C_R   0.775890 0.443812 0.977240 0.023211
C181  C     C_R   0.694530 0.877699 0.054999 -0.115486
C182  C     C_R   0.309735 0.905698 0.947251 -0.117934
C183  C     C_R   0.190283 0.405651 0.052755 -0.117926
C184  C     C_R   0.805470 0.377684 0.944998 -0.115488
C185  C     C_R   0.552745 0.157364 0.178131 0.555443
C186  C     C_R   0.446729 0.156417 0.822362 0.546805
C187  C     C_R   0.053272 0.656417 0.177638 0.546805
C188  C     C_R   0.947255 0.657365 0.821868 0.555417
C189  C     C_R   0.698110 0.895290 0.106436 -0.129542
C190  C     C_R   0.475956 0.158034 0.871853 -0.011726
C191  C     C_R   0.310872 0.921869 0.896337 -0.126032
C192  C     C_R   0.189141 0.421833 0.103668 -0.126029
C193  C     C_R   0.801888 0.395280 0.893561 -0.129546
C194  C     C_R   0.689074 0.888529 0.936981 -0.145242
C195  C     C_R   0.288218 0.836230 0.052470 -0.141974
C196  C     C_R   0.211814 0.336171 0.947541 -0.141963
C197  C     C_R   0.810929 0.388517 0.063019 -0.145238
C198  C     C_R   0.702512 0.870636 0.886977 -0.198212
C199  C     C_R   0.280850 0.821751 0.103134 -0.185298
C200  C     C_R   0.219175 0.321700 0.896875 -0.185287
C201  C     C_R   0.522114 0.164637 0.129617 -0.013884
C202  C     C_R   0.797490 0.370630 0.113023 -0.198208
C203  C     C_R   0.804075 0.928363 0.902283 0.275867
C204  C     C_R   0.211158 0.964135 0.105333 0.260261
C205  C     C_R   0.288834 0.464132 0.894668 0.260247
C206  C     C_R   0.695929 0.428357 0.097715 0.275876
C207  C     C_R   0.791886 0.935917 0.952324 -0.107893
C208  C     C_R   0.220874 0.980731 0.054691 -0.110316
C209  C     C_R   0.279128 0.480713 0.945314 -0.110297
C210  C     C_R   0.708118 0.435903 0.047674 -0.107891
C211  C     C_R   0.734275 0.920014 0.970058 -0.011872
C212  C     C_R   0.977886 0.664643 0.870381 -0.013911
C213  C     C_R   0.256275 0.913023 0.027521 -0.008491
C214  C     C_R   0.243744 0.412984 0.972487 -0.008485
C215  C     C_R   0.765729 0.419998 0.029941 -0.011873
C216  C     C_R   0.760699 0.886506 0.869751 0.029929
C217  C     C_R   0.240284 0.882112 0.129589 0.028539
C218  C     C_R   0.259721 0.382092 0.870415 0.028544
C219  C     C_R   0.739303 0.386502 0.130248 0.029927
C220  C     C_R   0.521753 0.171969 0.369284 0.007388
C221  C     C_R   0.478566 0.172161 0.630859 0.007247
C222  C     C_R   0.021433 0.672160 0.369141 0.007247
C223  C     C_R   0.024049 0.658031 0.128145 -0.011726
C224  C     C_R   0.978246 0.671969 0.630715 0.007389
C225  C     C_R   0.521774 0.267455 0.394878 -0.051228
C226  C     C_R   0.478287 0.267566 0.605197 -0.051324
C227  C     C_R   0.021711 0.767565 0.394802 -0.051323
C228  C     C_R   0.978225 0.767453 0.605121 -0.051229
C229  C     C_R   0.515672 0.267106 0.446561 -0.108324
C230  C     C_R   0.484413 0.267119 0.553520 -0.108528
C231  C     C_R   0.015584 0.767118 0.446479 -0.108528
C232  C     C_R   0.984326 0.767104 0.553438 -0.108324
C233  C     C_R   0.730780 0.004365 0.178337 0.545328
C234  C     C_R   0.526249 0.256082 0.102350 -0.183549
C235  C     C_R   0.268487 0.001422 0.820592 0.545865
C236  C     C_R   0.231514 0.501419 0.179409 0.545871
C237  C     C_R   0.769220 0.504365 0.821663 0.545327
C238  C     C_R   0.501861 0.176950 0.472410 -0.021745
C239  C     C_R   0.498648 0.177051 0.527770 -0.021861
C240  C     C_R   0.001349 0.677049 0.472229 -0.021860
C241  C     C_R   0.998136 0.676948 0.527589 -0.021744
C242  C     C_R   0.490069 0.087524 0.444880 -0.098712
C243  C     C_R   0.510904 0.087942 0.555411 -0.098390
C244  C     C_R   0.989093 0.587940 0.444588 -0.098389
Cr1   Cr    Cr6+3 0.756570 0.170940 0.251190 0.974552
Cr2   Cr    Cr6+3 0.374010 0.036240 0.749520 1.026292
Cr3   Cr    Cr6+3 0.125990 0.536240 0.250480 1.026295
Cr4   Cr    Cr6+3 0.874010 0.536240 0.749520 1.034534
Cr5   Cr    Cr6+3 0.243430 0.170940 0.748810 0.974131
Cr6   Cr    Cr6+3 0.256570 0.670940 0.251190 0.974130
Cr7   Cr    Cr6+3 0.743430 0.670940 0.748810 0.974554
Cr8   Cr    Cr6+3 0.623740 0.299110 0.249580 0.989110
Cr9   Cr    Cr6+3 0.376260 0.299110 0.750420 0.979638
Cr10  Cr    Cr6+3 0.123740 0.799110 0.249580 0.979645
Cr11  Cr    Cr6+3 0.876260 0.799110 0.750420 0.989101
Cr12  Cr    Cr6+3 0.625990 0.036240 0.250480 1.034538
H1    H     H_    0.669326 0.813191 0.040646 0.095968
H2    H     H_    0.474778 0.018740 0.463090 0.112193
H3    H     H_    0.394884 0.554982 0.920580 0.109723
H4    H     H_    0.425432 0.631296 0.841809 0.142631
H5    H     H_    0.474908 0.526174 0.857466 0.065453
H6    H     H_    0.418213 0.509786 0.810117 0.180568
H7    H     H_    0.591251 0.576594 0.086524 0.121599
H8    H     H_    0.668726 0.605017 0.093914 0.106370
H9    H     H_    0.661138 0.595867 0.185667 0.155295
H10   H     H_    0.608821 0.686963 0.159456 0.092759
H11   H     H_    0.583132 0.563239 0.180021 0.157903
H12   H     H_    0.567567 0.550264 0.336420 0.150451
H13   H     H_    0.025217 0.518737 0.536909 0.112193
H14   H     H_    0.487966 0.550865 0.325540 0.143754
H15   H     H_    0.521420 0.629791 0.373143 0.144790
H16   H     H_    0.469526 0.466141 0.405223 0.170167
H17   H     H_    0.546818 0.481862 0.424507 0.176029
H18   H     H_    0.580290 0.371042 0.359099 0.197600
H19   H     H_    0.505807 0.363762 0.331848 0.161233
H20   H     H_    0.432278 0.550456 0.663506 0.152163
H21   H     H_    0.511855 0.550873 0.674528 0.144188
H22   H     H_    0.478601 0.629883 0.626884 0.144897
H23   H     H_    0.530428 0.466140 0.594872 0.170340
H24   H     H_    0.973384 0.519342 0.462709 0.112110
H25   H     H_    0.453191 0.481963 0.575461 0.175804
H26   H     H_    0.419475 0.371022 0.640732 0.197069
H27   H     H_    0.493842 0.363996 0.668231 0.161941
H28   H     H_    0.067722 0.050455 0.336494 0.152171
H29   H     H_    0.988145 0.050872 0.325471 0.144187
H30   H     H_    0.021398 0.129882 0.373116 0.144896
H31   H     H_    0.969570 0.966138 0.405127 0.170340
H32   H     H_    0.046807 0.981961 0.424539 0.175802
H33   H     H_    0.080524 0.871021 0.359269 0.197068
H34   H     H_    0.006158 0.863995 0.331769 0.161940
H35   H     H_    0.524704 0.336760 0.466692 0.115277
H36   H     H_    0.932433 0.050263 0.663579 0.150450
H37   H     H_    0.012034 0.050864 0.674458 0.143754
H38   H     H_    0.978580 0.129790 0.626856 0.144790
H39   H     H_    0.030474 0.966140 0.594775 0.170167
H40   H     H_    0.953180 0.981861 0.575492 0.176030
H41   H     H_    0.919710 0.871041 0.640901 0.197600
H42   H     H_    0.994193 0.863761 0.668151 0.161233
H43   H     H_    0.556431 0.077947 0.689115 0.119065
H44   H     H_    0.602931 0.014510 0.645063 0.131087
H45   H     H_    0.570546 0.845364 0.680139 0.137013
H46   H     H_    0.475091 0.336599 0.533331 0.115343
H47   H     H_    0.602207 0.927452 0.727660 0.088400
H48   H     H_    0.522376 0.912228 0.721915 0.166648
H49   H     H_    0.443874 0.076100 0.311590 0.118797
H50   H     H_    0.398529 0.010779 0.355782 0.131049
H51   H     H_    0.434988 0.842665 0.320349 0.138710
H52   H     H_    0.397697 0.922278 0.274779 0.089733
H53   H     H_    0.478134 0.914082 0.276334 0.172643
H54   H     H_    0.056126 0.576094 0.688408 0.118782
H55   H     H_    0.101468 0.510775 0.644213 0.131050
H56   H     H_    0.064997 0.342658 0.679647 0.138733
H57   H     H_    0.024906 0.836597 0.466668 0.115343
H58   H     H_    0.102313 0.422259 0.725208 0.089721
H59   H     H_    0.021875 0.414087 0.723673 0.172632
H60   H     H_    0.943571 0.577943 0.310882 0.119065
H61   H     H_    0.897069 0.514508 0.354932 0.131084
H62   H     H_    0.929455 0.345361 0.319858 0.137012
H63   H     H_    0.897797 0.427447 0.272336 0.088398
H64   H     H_    0.977627 0.412223 0.278083 0.166645
H65   H     H_    0.846758 0.148937 0.613888 0.126400
H66   H     H_    0.805425 0.223513 0.568742 0.135128
H67   H     H_    0.893870 0.258455 0.522829 0.127017
H68   H     H_    0.975294 0.836758 0.533308 0.115277
H69   H     H_    0.917720 0.265630 0.586426 0.119463
H70   H     H_    0.933397 0.153042 0.549542 0.160423
H71   H     H_    0.153531 0.149152 0.386108 0.128707
H72   H     H_    0.194683 0.223677 0.431380 0.135600
H73   H     H_    0.106075 0.258337 0.477132 0.127016
H74   H     H_    0.082371 0.265524 0.413499 0.119153
H75   H     H_    0.066724 0.152859 0.450338 0.160484
H76   H     H_    0.346469 0.649153 0.613892 0.128706
H77   H     H_    0.305317 0.723677 0.568621 0.135600
H78   H     H_    0.393925 0.758339 0.522868 0.127016
H79   H     H_    0.646194 0.932060 0.385856 0.148523
H80   H     H_    0.417629 0.765527 0.586501 0.119153
H81   H     H_    0.433276 0.652861 0.549661 0.160484
H82   H     H_    0.653243 0.648937 0.386112 0.126400
H83   H     H_    0.694575 0.723513 0.431258 0.135128
H84   H     H_    0.606130 0.758453 0.477171 0.127018
H85   H     H_    0.582280 0.765630 0.413573 0.119461
H86   H     H_    0.566603 0.653041 0.450457 0.160424
H87   H     H_    0.926785 0.189610 0.371671 0.152503
H88   H     H_    0.919622 0.306258 0.406576 0.168099
H89   H     H_    0.959078 0.201321 0.433748 0.143017
H90   H     H_    0.353760 0.931777 0.614181 0.148162
H91   H     H_    0.841929 0.246585 0.451701 0.165072
H92   H     H_    0.875197 0.120719 0.459396 0.218490
H93   H     H_    0.843226 0.073866 0.374937 0.171491
H94   H     H_    0.809138 0.196663 0.365874 0.188686
H95   H     H_    0.073195 0.188904 0.628075 0.151994
H96   H     H_    0.080504 0.305873 0.593441 0.167230
H97   H     H_    0.041034 0.201219 0.565988 0.143163
H98   H     H_    0.158139 0.246368 0.548165 0.165110
H99   H     H_    0.124965 0.120401 0.540509 0.218712
H100  H     H_    0.156882 0.073817 0.625015 0.171455
H101  H     H_    0.146241 0.431773 0.385819 0.148161
H102  H     H_    0.190933 0.196664 0.634026 0.188418
H103  H     H_    0.426805 0.688906 0.371924 0.151995
H104  H     H_    0.419497 0.805874 0.406558 0.167234
H105  H     H_    0.458967 0.701221 0.434011 0.143163
H106  H     H_    0.341861 0.746369 0.451834 0.165110
H107  H     H_    0.375036 0.620402 0.459490 0.218711
H108  H     H_    0.343119 0.573817 0.374984 0.171455
H109  H     H_    0.309067 0.696664 0.365974 0.188418
H110  H     H_    0.573215 0.689609 0.628328 0.152503
H111  H     H_    0.580377 0.806256 0.593422 0.168097
H112  H     H_    0.350955 0.887751 0.966852 0.112498
H113  H     H_    0.853806 0.432061 0.614144 0.148525
H114  H     H_    0.540922 0.701318 0.566252 0.143017
H115  H     H_    0.658071 0.746584 0.548298 0.165072
H116  H     H_    0.624803 0.620718 0.540603 0.218490
H117  H     H_    0.656774 0.573865 0.625063 0.171491
H118  H     H_    0.690862 0.696663 0.634126 0.188685
H119  H     H_    0.913526 0.245882 0.103559 0.149236
H120  H     H_    0.944714 0.123104 0.119943 0.147075
H121  H     H_    0.958784 0.178412 0.059669 0.137562
H122  H     H_    0.882849 0.045888 0.049390 0.158738
H123  H     H_    0.850191 0.171387 0.039912 0.153855
H124  H     H_    0.843206 0.976211 0.623981 0.132110
H125  H     H_    0.808357 0.167447 0.125191 0.185097
H126  H     H_    0.849273 0.051277 0.138206 0.166456
H127  H     H_    0.039375 0.080024 0.847049 0.144311
H128  H     H_    0.033607 0.947835 0.827088 0.153131
H129  H     H_    0.993837 0.992015 0.880614 0.154380
H130  H     H_    0.085068 0.889405 0.904328 0.176755
H131  H     H_    0.085657 0.019508 0.927881 0.147397
H132  H     H_    0.149258 0.075079 0.860090 0.167017
H133  H     H_    0.145213 0.949770 0.831357 0.164055
H134  H     H_    0.460630 0.580056 0.152958 0.144306
H135  H     H_    0.156924 0.976452 0.375960 0.132158
H136  H     H_    0.466388 0.447878 0.172939 0.153131
H137  H     H_    0.506171 0.492018 0.119413 0.154385
H138  H     H_    0.414944 0.389410 0.095694 0.176755
H139  H     H_    0.414357 0.519504 0.072130 0.147396
H140  H     H_    0.350743 0.575096 0.139908 0.167015
H141  H     H_    0.354790 0.449799 0.168654 0.164064
H142  H     H_    0.586482 0.745868 0.896432 0.149247
H143  H     H_    0.555277 0.623072 0.880097 0.147070
H144  H     H_    0.541243 0.678462 0.940360 0.137555
H145  H     H_    0.617175 0.545916 0.950632 0.158739
H146  H     H_    0.343075 0.476454 0.624041 0.132157
H147  H     H_    0.649834 0.671419 0.960092 0.153860
H148  H     H_    0.691653 0.667451 0.874812 0.185095
H149  H     H_    0.650728 0.551286 0.861804 0.166456
H150  H     H_    0.656794 0.476211 0.376019 0.132111
H151  H     H_    0.473166 0.904114 0.960662 0.146890
H152  H     H_    0.477458 0.909674 0.050068 0.152070
H153  H     H_    0.022584 0.409692 0.949923 0.152087
H154  H     H_    0.026877 0.404124 0.039329 0.146889
H155  H     H_    0.647921 0.914218 0.475750 0.099782
H156  H     H_    0.149065 0.387686 0.033153 0.112490
H157  H     H_    0.352079 0.913919 0.524276 0.099762
H158  H     H_    0.147923 0.413916 0.475724 0.099762
H159  H     H_    0.852080 0.414220 0.524250 0.099782
H160  H     H_    0.638546 0.944597 0.556734 0.111942
H161  H     H_    0.361523 0.944274 0.443279 0.111422
H162  H     H_    0.138478 0.444274 0.556721 0.111420
H163  H     H_    0.861454 0.444598 0.443266 0.111942
H164  H     H_    0.665280 0.863210 0.636263 0.124355
H165  H     H_    0.334799 0.863100 0.363655 0.124101
H166  H     H_    0.165201 0.363100 0.636345 0.124102
H167  H     H_    0.830670 0.313170 0.959349 0.095968
H168  H     H_    0.834720 0.363211 0.363737 0.124354
H169  H     H_    0.771494 0.160930 0.486746 0.157198
H170  H     H_    0.228731 0.160933 0.513227 0.157120
H171  H     H_    0.271269 0.660932 0.486773 0.157120
H172  H     H_    0.728506 0.660930 0.513254 0.157198
H173  H     H_    0.486040 0.322162 0.874885 0.118881
H174  H     H_    0.542713 0.324834 0.120225 0.180327
H175  H     H_    0.957268 0.824832 0.879777 0.180353
H176  H     H_    0.013946 0.822154 0.125117 0.118896
H177  H     H_    0.514711 0.416830 0.951075 0.096898
H178  H     H_    0.671730 0.848615 0.130994 0.120482
H179  H     H_    0.531843 0.418825 0.041322 0.118097
H180  H     H_    0.968125 0.918818 0.958683 0.118111
H181  H     H_    0.985262 0.916821 0.048929 0.096905
H182  H     H_    0.644120 0.877277 0.949801 0.116801
H183  H     H_    0.316136 0.783395 0.032412 0.111930
H184  H     H_    0.183910 0.283319 0.967602 0.111928
H185  H     H_    0.855883 0.377264 0.050200 0.116794
H186  H     H_    0.667940 0.842812 0.861901 0.108597
H187  H     H_    0.303512 0.757678 0.120608 0.133424
H188  H     H_    0.196523 0.257614 0.879404 0.133433
H189  H     H_    0.353455 0.916014 0.878294 0.181604
H190  H     H_    0.832061 0.342807 0.138100 0.108599
H191  H     H_    0.773872 0.081648 0.016798 0.101287
H192  H     H_    0.163121 0.945385 0.966933 0.099471
H193  H     H_    0.336893 0.445390 0.033075 0.099478
H194  H     H_    0.726141 0.581643 0.983206 0.101287
H195  H     H_    0.828222 0.957342 0.977255 0.107729
H196  H     H_    0.198643 0.044029 0.036160 0.104842
H197  H     H_    0.301349 0.544024 0.963842 0.104861
H198  H     H_    0.671783 0.457327 0.022741 0.107729
H199  H     H_    0.559200 0.920692 0.884263 0.114158
H200  H     H_    0.146557 0.415970 0.121710 0.181601
H201  H     H_    0.543356 0.995795 0.828824 0.130645
H202  H     H_    0.478470 0.856795 0.795614 0.162273
H203  H     H_    0.553494 0.811675 0.808376 0.081713
H204  H     H_    0.493601 0.781440 0.850206 0.145648
H205  H     H_    0.400316 0.007042 0.122411 0.128069
H206  H     H_    0.430657 0.032367 0.184339 0.132471
H207  H     H_    0.453100 0.843727 0.192732 0.151701
H208  H     H_    0.374798 0.870280 0.182737 0.107549
H209  H     H_    0.419158 0.823180 0.132154 0.139161
H210  H     H_    0.099707 0.507282 0.877491 0.128039
H211  H     H_    0.828264 0.348602 0.869002 0.120475
H212  H     H_    0.069268 0.532393 0.815575 0.132496
H213  H     H_    0.046970 0.343703 0.807291 0.151664
H214  H     H_    0.125260 0.370427 0.817241 0.107571
H215  H     H_    0.080961 0.323351 0.867867 0.139219
H216  H     H_    0.940825 0.420672 0.115725 0.114152
H217  H     H_    0.956657 0.495778 0.171165 0.130642
H218  H     H_    0.021549 0.356796 0.204382 0.162278
H219  H     H_    0.946530 0.311656 0.191612 0.081705
H220  H     H_    0.006432 0.281435 0.149789 0.145658
H221  H     H_    0.908735 0.076612 0.913475 0.121592
H222  H     H_    0.526613 0.019344 0.537289 0.112112
H223  H     H_    0.831263 0.105030 0.906046 0.106381
H224  H     H_    0.838908 0.095830 0.814302 0.155305
H225  H     H_    0.891215 0.186932 0.840520 0.092760
H226  H     H_    0.916910 0.063192 0.819982 0.157895
H227  H     H_    0.104444 0.928183 0.106874 0.135180
H228  H     H_    0.105099 0.054975 0.079397 0.109740
H229  H     H_    0.074486 0.131115 0.158195 0.142623
H230  H     H_    0.025041 0.026003 0.142453 0.065451
H231  H     H_    0.081698 0.009536 0.189825 0.180584
H232  H     H_    0.395556 0.428241 0.893048 0.135217
O1    O     O_R   0.769900 0.064540 0.196060 -0.533483
O2    O     O_R   0.433710 0.069580 0.694600 -0.480801
O3    O     O_R   0.066290 0.569580 0.305400 -0.480802
O4    O     O_R   0.933710 0.569580 0.694600 -0.478698
O5    O     O_R   0.680760 0.993330 0.302620 -0.502124
O6    O     O_R   0.319240 0.993330 0.697380 -0.500227
O7    O     O_R   0.180760 0.493330 0.302620 -0.500229
O8    O     O_R   0.819240 0.493330 0.697380 -0.502121
O9    O     O_3   0.668770 0.168760 0.250420 -0.258560
O10   O     O_3   0.331230 0.168760 0.749580 -0.256669
O11   O     O_3   0.168770 0.668760 0.250420 -0.256669
O12   O     O_R   0.230100 0.064540 0.803940 -0.532879
O13   O     O_3   0.831230 0.668760 0.749580 -0.258557
O14   O     O_R   0.750800 0.274080 0.199250 -0.523031
O15   O     O_R   0.249200 0.274080 0.800750 -0.520550
O16   O     O_R   0.250800 0.774080 0.199250 -0.520552
O17   O     O_R   0.749200 0.774080 0.800750 -0.523031
O18   O     O_R   0.669990 0.371670 0.194150 -0.456382
O19   O     O_R   0.330010 0.371670 0.805850 -0.476213
O20   O     O_R   0.169990 0.871670 0.194150 -0.476168
O21   O     O_R   0.830010 0.871670 0.805850 -0.456388
O22   O     O_R   0.574600 0.238480 0.197800 -0.508920
O23   O     O_R   0.269900 0.564540 0.196060 -0.532880
O24   O     O_R   0.425400 0.238480 0.802200 -0.515275
O25   O     O_R   0.074600 0.738480 0.197800 -0.515281
O26   O     O_R   0.925400 0.738480 0.802200 -0.508922
O27   O     O_R   0.566130 0.068680 0.194240 -0.459862
O28   O     O_R   0.433870 0.068680 0.805760 -0.468896
O29   O     O_R   0.066130 0.568680 0.194240 -0.468897
O30   O     O_R   0.933870 0.568680 0.805760 -0.459889
O31   O     O_R   0.680610 0.992490 0.199570 -0.487914
O32   O     O_R   0.319390 0.992490 0.800430 -0.489757
O33   O     O_R   0.180610 0.492490 0.199570 -0.489748
O34   O     O_R   0.730100 0.564540 0.803940 -0.533479
O35   O     O_R   0.819390 0.492490 0.800430 -0.487913
O36   O     O_R   0.770060 0.065440 0.307230 -0.535314
O37   O     O_R   0.229940 0.065440 0.692770 -0.536642
O38   O     O_R   0.270060 0.565440 0.307230 -0.536645
O39   O     O_R   0.729940 0.565440 0.692770 -0.535313
O40   O     O_R   0.750960 0.274920 0.302300 -0.529036
O41   O     O_R   0.249040 0.274920 0.697700 -0.528689
O42   O     O_R   0.250960 0.774920 0.302300 -0.528691
O43   O     O_R   0.749040 0.774920 0.697700 -0.529035
O44   O     O_R   0.670160 0.372580 0.305320 -0.544790
O45   O     O_R   0.574760 0.239320 0.300850 -0.537362
O46   O     O_R   0.329840 0.372580 0.694680 -0.539648
O47   O     O_R   0.170160 0.872580 0.305320 -0.539644
O48   O     O_R   0.829840 0.872580 0.694680 -0.544792
O49   O     O_3   0.471853 0.970903 0.876482 -0.559527
O50   O     O_3   0.492731 0.985598 0.132942 -0.547317
O51   O     O_3   0.007293 0.485615 0.867053 -0.547331
O52   O     O_3   0.028168 0.470902 0.123511 -0.559523
O53   O     O_3   0.860407 0.954103 0.886320 -0.555310
O54   O     O_3   0.173056 0.027238 0.131201 -0.543520
O55   O     O_3   0.326903 0.527278 0.868792 -0.543544
O56   O     O_R   0.425240 0.239320 0.699150 -0.536237
O57   O     O_3   0.639596 0.454102 0.113676 -0.555296
O58   O     O_3   0.512396 0.994489 0.631954 -0.556445
O59   O     O_3   0.489225 0.993626 0.368452 -0.555957
O60   O     O_3   0.010771 0.493624 0.631547 -0.555951
O61   O     O_3   0.987603 0.494487 0.368045 -0.556444
O62   O     O_3   0.828609 0.077625 0.544500 -0.597801
O63   O     O_3   0.171548 0.077678 0.455489 -0.598300
O64   O     O_3   0.328453 0.577679 0.544512 -0.598299
O65   O     O_3   0.671391 0.577625 0.455500 -0.597802
O66   O     O_R   0.074760 0.739320 0.300850 -0.536241
O67   O     O_R   0.925240 0.739320 0.699150 -0.537362
O68   O     O_R   0.566290 0.069580 0.305400 -0.478702

loop_
_geom_bond_atom_site_label_1
_geom_bond_atom_site_label_2
_ccdc_geom_bond_type
C122  H52   S    
C21   C26   A    
C87   O49   S    
C34   C56   A    
C126  C127  S    
C200  C218  A    
C118  H37   S    
C166  C193  A    
C119  H44   S    
C125  H59   S    
C96   H223  S    
C198  C216  A    
Cr2   O6    S    
C126  H60   S    
C95   H220  S    
C145  H103  S    
C72   O7    A    
C189  H178  S    
C146  C157  A    
C88   H204  S    
Cr12  O9    S    
C27   H170  S    
C116  C228  S    
C159  H134  S    
C105  H18   S    
C35   C124  A    
C37   O64   S    
C67   O66   A    
Cr5   O10   S    
Cr1   O36   S    
C181  H1    S    
C106  C107  S    
C177  C182  A    
C29   C33   A    
C240  C244  A    
Cr2   O32   S    
C39   O40   A    
C112  O19   A    
C98   H227  S    
C3    C241  A    
C187  O25   A    
C79   C90   A    
C33   C147  S    
C191  H189  S    
C76   O52   S    
C204  C208  A    
C199  C217  A    
C179  C216  S    
Cr9   O24   S    
C91   H207  S    
C47   H150  S    
C25   C60   S    
C164  C191  A    
C143  H109  S    
C173  H192  S    
C81   C86   A    
C151  C152  S    
C164  C235  S    
C242  H2    S    
C205  C209  A    
C40   O41   A    
Cr4   O8    S    
C80   C83   A    
C224  C228  A    
C114  C115  S    
Cr6   O42   S    
C25   C29   A    
C89   H205  S    
C150  H126  S    
C27   C31   A    
C232  C241  A    
C179  O21   A    
C177  C213  S    
C28   C32   A    
C75   C190  A    
C140  C141  S    
C174  H193  S    
Cr6   O16   S    
Cr12  O31   S    
C47   C64   A    
C162  H142  S    
C24   H175  S    
C233  O1    A    
C15   H101  S    
C98   O54   S    
C147  H118  S    
C139  H87   S    
C39   O44   A    
C186  C190  S    
C112  O15   A    
C97   H225  S    
C22   C58   S    
C93   H215  S    
C109  H25   S    
C127  H64   S    
C87   H199  S    
C16   C20   A    
C6    O61   S    
C35   C234  A    
C5    C243  A    
C67   O3    A    
C154  C155  S    
C184  H167  S    
C96   H221  S    
C151  H122  S    
C22   C27   A    
C158  C159  S    
C36   C44   A    
C37   C45   A    
C12   H79   S    
C188  O30   A    
C120  H45   S    
C95   H218  S    
C43   C61   A    
C170  C174  A    
Cr10  O11   S    
C124  H179  S    
C121  H49   S    
C49   C62   A    
C124  C135  A    
C129  H67   S    
Cr8   O9    S    
C36   O63   S    
C51   C64   A    
C2    C190  A    
C26   H169  S    
C144  C145  S    
C111  H33   S    
C143  H108  S    
C141  H99   S    
Cr5   O12   S    
C53   C58   A    
C158  H138  S    
C74   C201  A    
C206  C219  A    
C82   C85   A    
C139  H89   S    
C156  H140  S    
C44   C62   A    
C156  C158  S    
C130  C131  S    
C40   O46   A    
C188  C212  S    
C114  H32   S    
C201  C234  A    
C183  H156  S    
C203  C207  A    
C222  C227  A    
C115  H29   S    
C49   C53   A    
C156  C170  S    
C102  H4    S    
C123  H54   S    
C83   H151  S    
C172  H191  S    
C134  H82   S    
C168  O20   A    
C140  H100  S    
C45   H146  S    
C121  O59   S    
C142  H95   S    
C100  H232  S    
C73   O8    A    
C98   C99   S    
C73   O39   A    
C112  C218  S    
C1    O18   A    
C239  C243  A    
C134  H83   S    
Cr1   O14   S    
C180  C184  A    
C237  O34   A    
C6    C222  A    
C143  C144  S    
C148  H115  S    
C227  C231  A    
Cr8   O45   S    
C49   H165  S    
C208  C213  A    
Cr11  O13   S    
C42   O48   A    
C7    O60   S    
C28   H171  S    
C89   H206  S    
C147  C148  S    
C71   O37   A    
C128  C129  S    
C96   O53   S    
C51   H168  S    
C85   H153  S    
C85   C86   A    
C108  C109  S    
C23   C59   S    
C123  O60   S    
C117  H39   S    
C77   C82   A    
C152  H121  S    
C136  H86   S    
C65   O45   A    
C236  O33   A    
C208  H196  S    
Cr5   O41   S    
C127  H62   S    
C13   C57   A    
C210  C215  A    
C165  C192  A    
Cr1   O1    S    
Cr8   O22   S    
Cr6   O23   S    
C93   H214  S    
C210  H198  S    
C173  C177  A    
C89   C91   S    
C75   O49   S    
C120  H47   S    
C94   H216  S    
C97   H224  S    
C110  H21   S    
C66   O56   A    
C76   C223  A    
Cr12  O5    S    
C100  H3    S    
C107  H14   S    
C207  C211  A    
C50   C63   A    
C6    C244  A    
C230  C239  A    
C46   C135  A    
C106  H17   S    
C161  H145  S    
C4    C242  A    
C195  C199  A    
C54   C59   A    
C155  H129  S    
C235  O12   A    
Cr2   O28   S    
Cr4   O13   S    
C52   C56   A    
C11   C33   A    
C104  H9    S    
C74   O50   S    
C1    C219  S    
C226  C230  A    
C155  H127  S    
C43   H124  S    
C87   H201  S    
C122  H53   S    
C199  H187  S    
C231  C240  A    
C13   H176  S    
Cr6   O11   S    
C160  H148  S    
Cr11  O48   S    
C196  C214  A    
C206  C210  A    
C83   C84   A    
C48   C52   A    
C8    C12   A    
C16   H113  S    
C102  H6    S    
C138  H92   S    
C197  C202  A    
Cr4   O35   S    
C23   C28   A    
Cr4   O4    S    
C100  O55   S    
C89   O50   S    
C37   C59   A    
C38   C60   A    
C149  H111  S    
C69   O4    A    
Cr7   O43   S    
C116  H41   S    
C26   C30   A    
C179  O17   A    
C130  H72   S    
C65   O68   A    
Cr12  O27   S    
C103  C104  S    
C150  H125  S    
C151  H123  S    
C18   C22   A    
Cr3   O11   S    
C185  O27   A    
C34   C43   A    
C82   C113  A    
C119  H43   S    
C125  H58   S    
C20   H159  S    
Cr1   O9    S    
C126  H61   S    
C95   H219  S    
C175  C180  A    
C70   O5    A    
C57   C101  A    
C175  H194  S    
C8    C70   S    
C3    H13   S    
C44   H135  S    
Cr11  O26   S    
C202  H190  S    
C117  C118  S    
C72   O38   A    
C194  C198  A    
C187  C223  S    
C35   C79   A    
C240  C241  S    
C187  O29   A    
C98   H228  S    
C207  H195  S    
C206  O57   S    
Cr7   O39   S    
C107  H12   S    
C18   H157  S    
C169  C173  A    
C150  C151  S    
C123  H55   S    
C161  H147  S    
Cr10  O25   S    
C31   C140  S    
C55   C60   A    
C130  O63   S    
C160  H149  S    
C172  C176  A    
C10   C72   S    
C87   C88   S    
C186  O24   A    
C153  H133  S    
C154  H130  S    
C104  H11   S    
C183  C192  A    
C161  C162  S    
C132  H77   S    
C54   H162  S    
C15   C19   A    
C39   C64   S    
Cr8   O44   S    
Cr7   O34   S    
C50   C54   A    
C40   C63   S    
Cr10  O66   S    
C42   O43   A    
C168  O16   A    
C3    C7    A    
C162  H143  S    
C123  C125  S    
C20   C25   A    
C17   H155  S    
C99   H230  S    
C128  H65   S    
C147  H117  S    
Cr10  O47   S    
C185  C201  S    
C77   C212  A    
C133  H78   S    
C181  C189  A    
C137  H94   S    
C127  H63   S    
C129  H70   S    
C4    C220  A    
C12   C17   A    
C103  H8    S    
C70   O36   A    
C168  C217  S    
C230  H46   S    
C174  C178  A    
C178  C183  A    
C68   C113  A    
C86   H154  S    
C29   H172  S    
C30   C137  S    
C57   C146  A    
C118  H36   S    
C41   C62   S    
C13   C223  A    
C66   C221  S    
Cr3   O3    S    
C109  H23   S    
C145  H104  S    
C118  H38   S    
C88   H203  S    
C24   C212  A    
C176  C181  A    
Cr9   O46   S    
C178  C214  S    
C107  H15   S    
C105  H19   S    
C197  H185  S    
C203  C216  A    
C38   O65   S    
C11   C73   S    
C141  H98   S    
C196  H184  S    
C81   C101  A    
C158  H139  S    
C51   C55   A    
C221  C226  A    
C225  C229  A    
C52   H160  S    
C9    C14   A    
C235  O32   A    
C163  C233  S    
C11   C16   A    
C92   H210  S    
C5    O58   S    
C91   H208  S    
C232  H68   S    
C102  H5    S    
C163  C189  A    
C121  C122  S    
C108  H27   S    
C205  O55   S    
C119  O58   S    
C142  H96   S    
C69   O67   A    
C193  H211  S    
C182  C191  A    
C103  O57   S    
C68   C157  A    
C84   H152  S    
C228  C232  A    
C133  H81   S    
C155  H128  S    
C165  C170  A    
C148  H116  S    
C238  C239  S    
C14   H90   S    
C34   O62   S    
C129  H69   S    
C9    C71   S    
C21   C56   S    
C119  C120  S    
C140  H102  S    
C167  C172  A    
C46   C90   A    
C105  C106  S    
C209  C214  A    
C144  H107  S    
C176  C211  S    
C139  H88   S    
C233  O31   A    
C126  O61   S    
C8    C30   A    
C97   H226  S    
C109  C110  S    
C133  H80   S    
C7    C224  A    
C131  H73   S    
C150  C167  S    
C92   C93   S    
C160  C171  S    
Cr7   O17   S    
C111  C114  S    
C209  H197  S    
C101  C113  A    
C17   C21   A    
C78   C84   A    
C195  C213  A    
C132  H76   S    
C138  C139  S    
C24   C68   A    
Cr1   O40   S    
C135  H177  S    
C165  C236  S    
C74   C78   A    
C153  C169  S    
C185  O22   A    
C152  H119  S    
C229  C238  A    
C136  H84   S    
C120  H48   S    
C94   H217  S    
C149  H114  S    
C110  H22   S    
C5    C221  A    
C106  H16   S    
C121  H50   S    
C41   O47   A    
C159  H137  S    
C14   C18   A    
C19   C23   A    
C77   O51   S    
Cr9   O19   S    
C196  C200  A    
C53   H161  S    
C194  H182  S    
C2    C46   A    
C166  C237  S    
Cr3   O29   S    
C111  H34   S    
C10   C32   A    
C104  H10   S    
C36   C58   A    
C10   C15   A    
C114  H31   S    
C92   H212  S    
Cr6   O38   S    
C115  H30   S    
Cr11  O67   S    
C244  H24   S    
C131  H75   S    
C116  C117  S    
C94   O52   S    
Cr7   O13   S    
C32   C143  S    
C146  H181  S    
C194  C211  A    
C19   H158  S    
C132  C133  S    
C138  H91   S    
C99   H231  S    
C48   H164  S    
C229  H35   S    
C75   C80   A    
C197  C215  A    
C91   H209  S    
C237  O35   A    
C149  H110  S    
C234  H174  S    
C4    O59   S    
C55   H163  S    
Cr9   O10   S    
C164  C169  A    
C195  H183  S    
C192  H200  S    
C236  O23   A    
C205  C218  A    
Cr9   O56   S    
C117  H40   S    
Cr3   O33   S    
C148  C149  S    
C136  H85   S    
C188  O26   A    
C131  H74   S    
C78   C79   A    
C134  C136  S    
C88   H202  S    
Cr11  O21   S    
C171  C175  A    
C45   C63   A    
C41   O42   A    
C159  H136  S    
C202  C219  A    
C67   C222  S    
C163  C167  A    
C137  H93   S    
C231  H57   S    
C144  H106  S    
C204  O54   S    
C96   C97   S    
C100  C102  S    
C94   C95   S    
C180  C215  S    
C125  H56   S    
C128  O62   S    
C42   C61   S    
Cr3   O7    S    
C38   C47   A    
C110  H20   S    
C66   O2    A    
Cr12  O68   S    
C92   O51   S    
C105  C225  S    
C2    H173  S    
C122  H51   S    
C198  H186  S    
Cr5   O15   S    
C108  H26   S    
Cr2   O2    S    
C156  H141  S    
C153  H132  S    
C154  H131  S    
Cr2   O10   S    
C186  O28   A    
C93   H213  S    
C76   C81   A    
C50   H166  S    
C65   C220  S    
C145  H105  S    
C115  H28   S    
C137  C138  S    
C238  C242  A    
C243  H222  S    
C204  C217  A    
C1    O14   A    
C69   C224  S    
C111  C227  S    
C160  C161  S    
C203  O53   S    
C182  H112  S    
C141  C142  S    
C162  H144  S    
C48   C61   A    
C108  C226  S    
C99   H229  S    
C128  H66   S    
C220  C225  A    
Cr4   O30   S    
C80   C90   A    
C152  H120  S    
C9    C31   A    
C116  H42   S    
C130  H71   S    
C71   O6    A    
Cr5   O37   S    
C166  C171  A    
C142  H97   S    
Cr10  O20   S    
C184  C193  A    
C103  H7    S    
C200  H188  S    
Cr8   O18   S    
C153  C154  S    
C157  H180  S    
C132  O64   S    
C134  O65   S    
