data_mof_unit_49375.cif
_audit_creation_date              2012-10-26T18:28:15-0400
_audit_creation_method            fapswitch 2.2
_symmetry_space_group_name_H-M    P1
_symmetry_Int_Tables_number       1
_space_group_crystal_system       triclinic
_cell_length_a                    27.747844
_cell_length_b                    11.095443
_cell_length_c                    9.962552
_cell_angle_alpha                 110.912916
_cell_angle_beta                  97.940544
_cell_angle_gamma                 92.566886
_cell_volume                      2822.97449111

loop_
_atom_site_label
_atom_site_type_symbol
_atom_type_description
_atom_site_fract_x
_atom_site_fract_y
_atom_site_fract_z
_atom_type_partial_charge
C1    C     C_R   0.496863 0.255227 0.441011 0.557564
C2    C     C_R   0.866135 0.411507 0.394578 0.031730
C3    C     C_R   0.354635 0.510828 0.503480 0.040431
C4    C     C_R   0.644857 0.501903 0.496476 0.056785
C5    C     C_R   0.968328 0.400752 0.413664 0.042260
C6    C     C_R   0.031120 0.625952 0.583014 0.041959
C7    C     C_R   0.981498 0.619741 0.603567 0.002681
C8    C     C_R   0.019649 0.393370 0.430423 0.004503
C9    C     C_R   0.949477 0.511322 0.506212 0.019324
C10   C     C_R   0.050514 0.510798 0.502712 0.019162
C11   C     C_R   0.935415 0.305177 0.301762 -0.088211
C12   C     C_R   0.503304 0.745008 0.558497 0.563554
C13   C     C_R   0.061208 0.744295 0.632225 -0.088386
C14   C     C_R   0.885138 0.309744 0.293307 -0.093707
C15   C     C_R   0.110561 0.747051 0.620017 -0.090233
C16   C     C_R   0.407649 0.501870 0.501353 0.546615
C17   C     C_R   0.592110 0.500287 0.498947 0.549934
C18   C     C_R   0.041590 0.275396 0.375188 0.034464
C19   C     C_R   0.962028 0.717615 0.713547 0.026553
C20   C     C_2   0.489730 0.117228 0.409092 -0.065188
C21   C     C_2   0.509706 0.883199 0.587134 -0.073525
C22   C     C_2   0.511485 0.063753 0.499955 0.065596
C23   C     C_R   0.101011 0.513566 0.494123 -0.030689
C24   C     C_2   0.494206 0.930110 0.482897 0.071916
C25   C     C_2   0.507629 0.502085 0.077555 0.250726
C26   C     C_2   0.498899 0.480813 0.918873 0.255482
C27   C     C_R   0.171776 0.402650 0.421066 0.408472
C28   C     C_R   0.828290 0.615649 0.594423 0.410207
C29   C     C_R   0.181464 0.631836 0.549034 0.408130
C30   C     C_R   0.815541 0.414475 0.391954 0.405255
C31   C     C_R   0.277717 0.578461 0.416795 -0.044091
C32   C     C_R   0.722525 0.414987 0.529253 -0.022933
C33   C     C_R   0.328505 0.576346 0.422269 0.064853
C34   C     C_R   0.898286 0.513466 0.500283 -0.030795
C35   C     C_R   0.672143 0.408023 0.529525 0.056442
C36   C     C_R   0.328974 0.451521 0.581121 0.047638
C37   C     C_R   0.668612 0.599787 0.461946 0.058430
C38   C     C_R   0.278626 0.455577 0.574211 -0.006625
C39   C     C_R   0.719072 0.602756 0.459894 -0.039039
C40   C     C_R   0.252826 0.517627 0.491747 0.182050
C41   C     C_R   0.745977 0.510960 0.493745 0.186514
C42   C     C_2   0.015774 0.146053 0.346073 0.568390
C43   C     C_2   0.992858 0.809062 0.849028 0.572745
C44   C     C_R   0.121365 0.398229 0.424934 0.001286
C45   C     C_R   0.879201 0.617393 0.599674 0.001096
C46   C     C_R   0.091690 0.280252 0.368165 -0.104107
C47   C     C_R   0.911202 0.717188 0.706647 -0.106546
C48   C     C_R   0.131194 0.631857 0.554879 0.033148
Cu1   Cu    Cu3+1 0.508480 0.521810 0.644910 0.988159
Cu2   Cu    Cu3+1 0.491520 0.478190 0.355090 1.012050
H1    H     H_    0.531120 0.944109 0.690876 0.076266
H2    H     H_    0.132495 0.839953 0.662283 0.175510
H3    H     H_    0.948112 0.227725 0.216981 0.157804
H4    H     H_    0.046723 0.836435 0.677099 0.145903
H5    H     H_    0.372133 0.314040 0.599163 0.235157
H6    H     H_    0.376161 0.450510 0.753530 0.246520
H7    H     H_    0.663769 0.758220 0.401678 0.236027
H8    H     H_    0.630219 0.754630 0.528160 0.229839
H9    H     H_    0.497387 0.292021 0.791069 0.258057
H10   H     H_    0.449132 0.368313 0.741894 0.267436
H11   H     H_    0.551845 0.635647 0.255336 0.289694
H12   H     H_    0.462460 0.062269 0.315242 0.073509
H13   H     H_    0.578315 0.496655 0.161498 0.272554
H14   H     H_    0.574082 0.686429 0.999374 0.259280
H15   H     H_    0.515461 0.721294 0.029057 0.215464
H16   H     H_    0.425364 0.315130 0.000762 0.253561
H17   H     H_    0.416806 0.474358 0.023603 0.230858
H18   H     H_    0.656853 0.216650 0.484062 0.230245
H19   H     H_    0.612287 0.302618 0.550657 0.267592
H20   H     H_    0.329115 0.680255 0.287923 0.228599
H21   H     H_    0.375948 0.721150 0.426763 0.240358
H22   H     H_    0.966395 0.040878 0.401628 0.350694
H23   H     H_    0.259192 0.409348 0.633036 0.165808
H24   H     H_    0.052224 0.839448 0.003431 0.372269
H25   H     H_    0.475074 0.843841 0.262435 0.226858
H26   H     H_    0.427334 0.892832 0.353803 0.222964
H27   H     H_    0.547553 0.144648 0.709697 0.226036
H28   H     H_    0.583146 0.076449 0.583768 0.233867
H29   H     H_    0.737686 0.676855 0.432889 0.142895
H30   H     H_    0.108032 0.190343 0.324456 0.195963
H31   H     H_    0.896663 0.792567 0.789704 0.197052
H32   H     H_    0.743672 0.344290 0.555607 0.156860
H33   H     H_    0.257343 0.627167 0.354047 0.144458
H34   H     H_    0.861237 0.232822 0.207218 0.176963
N1    N     N_R   0.200804 0.517948 0.484632 -0.397223
N2    N     N_3   0.429538 0.411076 0.074160 -0.457784
N3    N     N_3   0.650197 0.303856 0.562116 -0.604529
N4    N     N_3   0.353820 0.642135 0.347462 -0.571251
N5    N     N_3   0.460179 0.850393 0.355339 -0.595114
N6    N     N_3   0.553883 0.132737 0.605205 -0.618073
N7    N     N_R   0.797677 0.514652 0.492290 -0.395995
N8    N     N_2   0.478780 0.445430 0.137360 -0.138113
N9    N     N_2   0.521220 0.554570 0.862640 -0.128310
N10   N     N_3   0.352554 0.383381 0.664955 -0.625746
N11   N     N_3   0.641395 0.696947 0.431505 -0.635200
N12   N     N_3   0.472581 0.359031 0.827106 -0.662274
N13   N     N_3   0.554652 0.565595 0.154950 -0.638308
N14   N     N_3   0.537915 0.682982 0.950887 -0.484023
O1    O     O_R   0.504520 0.332330 0.577400 -0.498173
O2    O     O_2   0.809559 0.712951 0.692009 -0.485621
O3    O     O_2   0.784396 0.317929 0.290199 -0.490239
O4    O     O_2   0.210921 0.744146 0.609948 -0.488467
O5    O     O_2   0.025840 0.049715 0.250866 -0.494472
O6    O     O_R   0.981158 0.133716 0.431199 -0.678370
O7    O     O_2   0.981222 0.918165 0.908551 -0.483666
O8    O     O_R   0.034359 0.768852 0.911332 -0.671620
O9    O     O_R   0.495480 0.667670 0.422600 -0.469967
O10   O     O_R   0.490210 0.295500 0.332650 -0.493445
O11   O     O_R   0.509790 0.704500 0.667350 -0.472855
O12   O     O_R   0.437420 0.518430 0.622370 -0.535387
O13   O     O_R   0.562580 0.481570 0.377630 -0.513959
O14   O     O_R   0.423110 0.481600 0.377610 -0.423694
O15   O     O_R   0.576890 0.518400 0.622390 -0.472650
O16   O     O_2   0.191755 0.292476 0.354963 -0.480418

loop_
_geom_bond_atom_site_label_1
_geom_bond_atom_site_label_2
_ccdc_geom_bond_type
Cu1   O15   S    
C14   H34   S    
H20   N4    S    
C42   O5    D    
C1    O1    A    
H19   N3    S    
C17   O15   A    
C39   C41   A    
H28   N6    S    
H6    N10   S    
C38   C40   A    
C33   N4    S    
H15   N14   S    
C5    C11   A    
C18   C42   S    
C11   C14   A    
C19   C47   A    
Cu1   O1    S    
C3    C33   A    
C17   O13   A    
C31   H33   S    
C31   C40   A    
C37   N11   S    
C43   O7    D    
C27   N1    A    
C35   N3    S    
C27   C44   A    
C44   C46   A    
C25   N8    D    
C32   C41   A    
C31   C33   A    
C29   N1    A    
C11   H3    S    
H26   N5    S    
C2    C34   A    
C26   N9    D    
H14   N14   S    
C4    C35   A    
C24   N5    S    
Cu2   O10   S    
C15   C48   A    
H5    N10   S    
C18   C46   A    
C12   O11   A    
C19   C43   S    
C45   C47   A    
C26   N12   S    
H27   N6    S    
C28   C45   A    
C29   C48   A    
C16   O12   A    
C32   C35   A    
H22   O6    S    
C25   C26   S    
C12   C21   S    
C8    C18   A    
C23   C44   A    
C43   O8    S    
C39   H29   S    
C40   N1    S    
H8    N11   S    
C5    C9    A    
H24   O8    S    
Cu2   O14   S    
C22   N6    S    
C34   C45   A    
C15   H2    S    
C4    C17   S    
H10   N12   S    
C25   N13   S    
C41   N7    S    
C20   C22   D    
C7    C19   A    
C13   C15   A    
Cu2   O9    S    
C22   C24   S    
C5    C8    A    
H9    N12   S    
C21   H1    S    
C16   O14   A    
Cu1   O11   S    
C13   H4    S    
Cu2   N8    S    
C7    C9    A    
H17   N2    S    
C23   C48   A    
C8    C10   A    
H11   N13   S    
C30   N7    A    
C1    C20   S    
C42   O6    S    
H16   N2    S    
C12   O9    A    
C6    C7    A    
C10   C23   A    
C32   H32   S    
C2    C30   A    
C36   C38   A    
H13   N13   S    
N2    N8    S    
C6    C13   A    
C46   H30   S    
C28   O2    S    
C9    C34   A    
C3    C36   A    
C30   O3    S    
Cu2   O13   S    
C29   O4    S    
C28   N7    A    
C47   H31   S    
C20   H12   S    
C2    C14   A    
C6    C10   A    
H25   N5    S    
C1    O10   A    
H21   N4    S    
C27   O16   S    
C36   N10   S    
C4    C37   A    
C37   C39   A    
Cu1   Cu2   S    
H7    N11   S    
C21   C24   D    
H18   N3    S    
Cu1   N9    S    
N9    N14   S    
C3    C16   S    
Cu1   O12   S    
C38   H23   S    
