data_mof_unit_52813.cif
_audit_creation_date              2012-12-10T17:03:26-0500
_audit_creation_method            fapswitch 2.2
_symmetry_space_group_name_H-M    P1
_symmetry_Int_Tables_number       1
_space_group_crystal_system       triclinic
_cell_length_a                    14.976333
_cell_length_b                    10.968902
_cell_length_c                    9.875637
_cell_angle_alpha                 113.206107
_cell_angle_beta                  98.055789
_cell_angle_gamma                 90.569133
_cell_volume                      1472.5518884

loop_
_atom_site_label
_atom_site_type_symbol
_atom_type_description
_atom_site_fract_x
_atom_site_fract_y
_atom_site_fract_z
_atom_type_partial_charge
C1    C     C_R   0.494210 0.252097 0.437207 0.852081
C2    C     C_R   0.505932 0.748013 0.562924 0.880368
C3    C     C_R   0.024828 0.306584 0.248878 -0.034405
C4    C     C_R   0.965037 0.758370 0.613005 -0.071007
C5    C     C_2   0.488327 0.107621 0.394316 -0.216235
C6    C     C_2   0.511905 0.892798 0.605444 -0.248790
C7    C     C_2   0.524500 0.056841 0.492512 -0.092859
C8    C     C_2   0.475623 0.942392 0.506418 -0.149431
C9    C     C_2   0.505975 0.512106 0.082226 0.080133
C10   C     C_2   0.491950 0.490959 0.918611 0.035691
C11   C     C_R   0.328922 0.501309 0.501654 0.750143
C12   C     C_R   0.671160 0.498769 0.497697 0.844940
C13   C     C_R   0.821432 0.623408 0.575807 -0.093849
C14   C     C_R   0.175653 0.392178 0.402898 -0.007085
C15   C     C_R   0.767884 0.503763 0.490611 -0.173350
C16   C     C_R   0.231597 0.504676 0.501591 -0.204169
C17   C     C_R   0.804567 0.392603 0.389102 -0.032137
C18   C     C_R   0.194939 0.623601 0.586303 -0.019271
C19   C     C_R   0.894373 0.404790 0.364655 0.028869
C20   C     C_R   0.100374 0.635004 0.559376 0.096553
C21   C     C_R   0.949875 0.520696 0.458763 0.024377
C22   C     C_R   0.044178 0.520492 0.462344 -0.014777
C23   C     C_R   0.911927 0.635097 0.552570 0.113081
C24   C     C_R   0.081909 0.404001 0.372176 0.101764
C25   C     C_R   0.930286 0.306661 0.245269 -0.139258
C26   C     C_R   0.059830 0.758312 0.617200 -0.083963
Cu1   Cu    Cu3+1 0.515770 0.521810 0.644910 1.057001
Cu2   Cu    Cu3+1 0.484230 0.478190 0.355090 1.069233
H1    H     H_    0.438964 0.419237 0.842235 0.146515
H2    H     H_    0.556372 0.587734 0.159785 0.156056
N1    N     N_2   0.460520 0.445420 0.137370 -0.106346
N2    N     N_2   0.539480 0.554580 0.862630 -0.091889
O1    O     O_R   0.508410 0.332340 0.577400 -0.563435
O2    O     O_R   0.491590 0.667660 0.422600 -0.562286
O3    O     O_R   0.481780 0.295500 0.332650 -0.561163
O4    O     O_R   0.518220 0.704500 0.667350 -0.545354
O5    O     O_R   0.383570 0.518390 0.622380 -0.608949
O6    O     O_R   0.616430 0.481610 0.377620 -0.551400
O7    O     O_R   0.356940 0.481550 0.377630 -0.525516
O8    O     O_R   0.643060 0.518450 0.622370 -0.552272
C27   C     C_2   0.784340 0.728886 0.699005 0.484970
H3    H     H_    0.715415 0.755568 0.681715 0.085275
O9    O     O_2   0.829859 0.783591 0.822352 -0.520369
C28   C     C_2   0.214822 0.259541 0.352581 0.423935
H4    H     H_    0.284019 0.249533 0.331343 0.052316
O10   O     O_2   0.171054 0.160578 0.341453 -0.530695
C29   C     C_2   0.756661 0.257444 0.330797 0.510398
H5    H     H_    0.795375 0.172630 0.323987 0.074035
O11   O     O_2   0.675621 0.237985 0.285224 -0.484543
C30   C     C_2   0.255407 0.727522 0.712796 0.482219
H6    H     H_    0.322783 0.753652 0.699801 0.102179
O12   O     O_2   0.231350 0.781255 0.834605 -0.528136
C31   C     C_2   0.869938 0.217295 0.106944 0.364664
H7    H     H_    0.884365 0.114644 0.048634 0.085654
O13   O     O_2   0.804340 0.259271 0.055197 -0.474422
C32   C     C_2   0.112763 0.887088 0.659120 0.443839
H8    H     H_    0.102515 0.973497 0.756748 0.081150
O14   O     O_2   0.166535 0.898239 0.581768 -0.489805
C33   C     C_2   0.062020 0.218749 0.113633 0.443201
H9    H     H_    0.034014 0.117378 0.049649 0.050600
O15   O     O_2   0.123376 0.260660 0.070583 -0.509391
C34   C     C_2   0.921651 0.886866 0.648551 0.427481
H10   H     H_    0.950127 0.975109 0.744810 0.055524
O16   O     O_2   0.854777 0.895605 0.567396 -0.536717
C35   C     C_2   0.378697 0.900344 0.434619 0.551363
H11   H     H_    0.340749 0.957403 0.381584 0.086724
O17   O     O_2   0.338124 0.805899 0.440588 -0.524945
C36   C     C_2   0.621296 0.098723 0.565355 0.456733
H12   H     H_    0.660085 0.037601 0.611790 0.098386
O18   O     O_2   0.660699 0.197859 0.568191 -0.517287
C37   C     C_2   0.551517 0.984536 0.760528 0.361544
H13   H     H_    0.540416 0.089786 0.800113 0.104631
O19   O     O_2   0.596927 0.944262 0.844927 -0.467037
C38   C     C_2   0.447883 0.020729 0.238046 0.402256
H14   H     H_    0.405419 0.061899 0.170493 0.111904
O20   O     O_2   0.463933 0.903823 0.182051 -0.495157
I1    I     I_    0.644039 0.696424 0.993937 -0.046946
I2    I     I_    0.364358 0.290917 0.003323 -0.203135

loop_
_geom_bond_atom_site_label_1
_geom_bond_atom_site_label_2
_ccdc_geom_bond_type
C27   H3    S    
C13   C27   S    
C1    O1    A    
C7    C8    S    
C29   O11   D    
C31   H7    S    
Cu1   O1    S    
C1    O3    A    
C38   O20   D    
C1    C5    S    
C19   C21   A    
C25   C31   S    
C4    C34   S    
C32   H8    S    
C13   C23   A    
C14   C24   A    
C5    C38   S    
C11   O5    A    
C34   O16   D    
N2    I1    S    
Cu2   O3    S    
C36   H12   S    
C35   O17   D    
C30   O12   D    
C14   C16   A    
C9    C10   S    
C2    O2    A    
C7    C36   S    
Cu2   O2    S    
C8    C35   S    
C21   C22   A    
C27   O9    D    
C3    C24   A    
C2    C6    S    
C28   O10   D    
C5    C7    D    
C31   O13   D    
C6    C37   S    
C33   O15   D    
C38   H14   S    
C3    C25   A    
C37   O19   D    
C4    C23   A    
C6    C8    D    
Cu2   O7    S    
C12   O8    A    
C34   H10   S    
C11   C16   S    
C29   H5    S    
C12   C15   S    
Cu2   O6    S    
Cu1   O8    S    
C30   H6    S    
C11   O7    A    
C9    H2    S    
C36   O18   D    
C20   C22   A    
C13   C15   A    
C22   C24   A    
C28   H4    S    
C18   C30   S    
N1    I2    S    
C14   C28   S    
C2    O4    A    
C15   C17   A    
Cu1   N2    S    
Cu2   N1    S    
C17   C29   S    
C26   C32   S    
C4    C26   A    
Cu1   O4    S    
C21   C23   A    
C37   H13   S    
C10   H1    S    
C20   C26   A    
Cu1   O5    S    
C17   C19   A    
C32   O14   D    
C18   C20   A    
C12   O6    A    
C19   C25   A    
C9    N1    D    
C10   N2    D    
C33   H9    S    
C16   C18   A    
C35   H11   S    
Cu1   Cu2   S    
C3    C33   S    
