data_mof_unit_46891.cif
_audit_creation_date              2012-12-11T15:36:38-0500
_audit_creation_method            fapswitch 2.2
_symmetry_space_group_name_H-M    P1
_symmetry_Int_Tables_number       1
_space_group_crystal_system       triclinic
_cell_length_a                    15.029359
_cell_length_b                    15.051079
_cell_length_c                    34.79519
_cell_angle_alpha                 91.290347
_cell_angle_beta                  92.008026
_cell_angle_gamma                 60.109171
_cell_volume                      6819.62475732

loop_
_atom_site_label
_atom_site_type_symbol
_atom_type_description
_atom_site_fract_x
_atom_site_fract_y
_atom_site_fract_z
_atom_type_partial_charge
C1    C     C_R   0.610696 0.302049 0.444042 0.550502
C2    C     C_R   0.594616 0.106483 0.764877 -0.118068
C3    C     C_R   0.124255 0.750507 0.893837 -0.089206
C4    C     C_R   0.170064 0.733868 0.857977 0.153447
C5    C     C_R   0.163250 0.663509 0.832037 0.029081
C6    C     C_R   0.122768 0.602950 0.844191 -0.149205
C7    C     C_R   0.080943 0.617775 0.880379 -0.141178
C8    C     C_R   0.255281 0.567817 0.773547 -0.109281
C9    C     C_R   0.265480 0.562746 0.733770 -0.096771
C10   C     C_R   0.205341 0.650008 0.711138 0.034410
C11   C     C_R   0.136864 0.742868 0.728817 -0.118297
C12   C     C_R   0.126090 0.747646 0.768496 -0.122232
C13   C     C_R   0.591574 0.181475 0.790521 0.027768
C14   C     C_R   0.668093 0.761674 0.165963 -0.168826
C15   C     C_R   0.185131 0.660225 0.791050 0.021084
C16   C     C_R   0.226110 0.716159 0.649061 -0.123760
C17   C     C_R   0.245412 0.703261 0.609844 -0.129003
C18   C     C_R   0.230925 0.549830 0.609740 -0.123542
C19   C     C_R   0.212633 0.562250 0.648960 -0.123156
C20   C     C_R   0.213445 0.643567 0.669086 0.029392
C21   C     C_R   0.251950 0.617686 0.590159 0.021053
C22   C     C_R   0.670592 0.083605 0.907063 0.020585
C23   C     C_R   0.594045 0.071603 0.887402 -0.131253
C24   C     C_R   0.528103 0.221711 0.643148 0.148656
C25   C     C_R   0.562544 0.109666 0.850154 -0.123572
C26   C     C_3   0.467989 0.877504 0.421967 -0.288438
C27   C     C_3   0.954174 0.722507 0.192973 -0.305142
C28   C     C_3   0.205068 0.415050 0.369764 -0.306289
C29   C     C_3   0.493308 0.101671 0.078041 -0.276601
C30   C     C_3   0.409672 0.387491 0.271343 -0.311016
C31   C     C_3   0.930409 0.469322 0.920947 -0.261566
C32   C     C_3   0.731439 0.397446 0.267333 -0.310222
C33   C     C_3   0.856774 0.393145 0.679257 -0.325308
C34   C     C_3   0.308725 0.769296 0.871989 -0.309285
C35   C     C_R   0.819044 0.594326 0.157060 0.104099
C36   C     C_3   0.362933 0.222441 0.630126 -0.317269
C37   C     C_3   0.860843 0.141001 0.585251 -0.295086
C38   C     C_3   0.467739 0.760720 0.302688 -0.307134
C39   C     C_R   0.536828 0.238457 0.604189 -0.130303
C40   C     C_R   0.700190 0.231378 0.617625 0.133730
C41   C     C_R   0.691358 0.215727 0.656474 -0.130270
C42   C     C_R   0.605247 0.213647 0.669458 0.004548
C43   C     C_R   0.618704 0.249765 0.591498 0.005595
C44   C     C_R   0.046321 0.738804 0.048438 0.538032
C45   C     C_R   0.745575 0.669058 0.181227 0.037865
C46   C     C_R   0.747305 0.745569 0.063908 0.565950
C47   C     C_R   0.750479 0.041476 0.050373 0.540619
C48   C     C_R   0.018189 0.722058 0.940049 0.543749
C49   C     C_R   0.716249 0.729470 0.955223 0.540766
C50   C     C_R   0.816596 0.615246 0.117512 0.098594
C51   C     C_R   0.720836 0.025381 0.942275 0.541116
C52   C     C_R   0.740588 0.571240 0.236872 -0.055665
C53   C     C_R   0.730096 0.563057 0.276461 0.150370
C54   C     C_R   0.728397 0.639310 0.301478 0.044754
C55   C     C_R   0.744781 0.716277 0.287488 -0.155722
C56   C     C_R   0.606789 0.160625 0.832246 0.030994
C57   C     C_R   0.753650 0.723972 0.248317 -0.151738
C58   C     C_R   0.749096 0.653031 0.222819 0.029024
C59   C     C_R   0.598319 0.718867 0.352671 0.145310
C60   C     C_R   0.593035 0.610567 0.449313 0.555752
C61   C     C_R   0.566680 0.715262 0.389917 0.164795
C62   C     C_R   0.732705 0.563947 0.403471 -0.180625
C63   C     C_R   0.765701 0.570771 0.367422 -0.150456
C64   C     C_R   0.698364 0.645616 0.341534 0.008753
C65   C     C_R   0.632258 0.633269 0.414665 0.007504
C66   C     C_R   0.107345 0.727459 0.084030 0.019778
C67   C     C_R   0.676899 0.179847 0.853285 -0.118376
C68   C     C_R   0.157415 0.632940 0.103222 -0.132369
C69   C     C_R   0.188328 0.628267 0.141739 -0.124311
C70   C     C_R   0.168781 0.718020 0.161513 0.070694
C71   C     C_R   0.129539 0.810199 0.141425 -0.115199
C72   C     C_R   0.303608 0.591672 0.442103 0.545956
C73   C     C_R   0.099243 0.814910 0.102786 -0.135238
C74   C     C_R   0.270730 0.677631 0.223199 0.076654
C75   C     C_R   0.276106 0.670308 0.263358 -0.130674
C76   C     C_R   0.187714 0.699852 0.284308 0.027544
C77   C     C_R   0.091479 0.740904 0.265398 0.124583
C78   C     C_R   0.708510 0.141653 0.890310 -0.123392
C79   C     C_R   0.084322 0.750184 0.225031 0.126315
C80   C     C_R   0.174665 0.717537 0.203872 0.038736
C81   C     C_R   0.194655 0.599844 0.340974 -0.106632
C82   C     C_R   0.219528 0.572141 0.379988 0.136275
C83   C     C_R   0.245342 0.719048 0.389380 -0.143902
C84   C     C_R   0.605639 0.300394 0.553939 0.544918
C85   C     C_R   0.219462 0.746291 0.350694 0.097013
C86   C     C_R   0.198532 0.683455 0.326171 0.058994
C87   C     C_R   0.250675 0.629841 0.404051 -0.003422
C88   C     C_R   0.723286 0.099831 0.086775 0.009273
C89   C     C_R   0.587083 0.269865 0.775762 -0.120726
C90   C     C_R   0.803474 0.090982 0.111185 -0.167625
C91   C     C_R   0.786405 0.118463 0.149687 -0.173850
C92   C     C_R   0.688626 0.156514 0.164633 0.034240
C93   C     C_R   0.604945 0.175197 0.139806 0.138625
C94   C     C_R   0.622040 0.146833 0.100603 0.147091
C95   C     C_R   0.601816 0.258265 0.223278 -0.054798
C96   C     C_R   0.586858 0.605348 0.559576 0.535740
C97   C     C_R   0.590285 0.266952 0.263183 0.142454
C98   C     C_R   0.658268 0.183238 0.286737 0.024156
C99   C     C_R   0.734227 0.092719 0.270055 -0.149067
C100  C     C_R   0.590454 0.280661 0.736237 -0.124873
C101  C     C_R   0.743353 0.084406 0.230342 -0.141208
C102  C     C_R   0.677567 0.167162 0.206692 0.019642
C103  C     C_R   0.733196 0.197776 0.349192 -0.143837
C104  C     C_R   0.721798 0.225311 0.387840 -0.154840
C105  C     C_R   0.557753 0.229021 0.387119 0.096839
C106  C     C_R   0.569894 0.202295 0.347963 -0.098928
C107  C     C_R   0.654998 0.191366 0.328769 -0.000663
C108  C     C_R   0.299991 0.588066 0.552384 0.538261
C109  C     C_R   0.631831 0.246890 0.406748 0.040367
C110  C     C_R   0.686111 0.688736 0.920954 -0.000435
C111  C     C_R   0.597102 0.203919 0.710954 0.022061
C112  C     C_R   0.747462 0.587024 0.907182 0.166355
C113  C     C_R   0.729792 0.560961 0.869416 0.141190
C114  C     C_R   0.651180 0.637102 0.845866 0.004168
C115  C     C_R   0.584262 0.733112 0.861397 -0.167995
C116  C     C_R   0.601107 0.758534 0.898457 -0.169492
C117  C     C_R   0.565000 0.620565 0.785506 -0.078135
C118  C     C_R   0.557912 0.618195 0.745282 0.094996
C119  C     C_R   0.632465 0.623861 0.723345 0.027162
C120  C     C_R   0.741096 0.711846 0.102803 0.038840
C121  C     C_R   0.714511 0.627827 0.741955 -0.142121
C122  C     C_R   0.597232 0.117747 0.725354 -0.105088
C123  C     C_R   0.722025 0.628068 0.781939 -0.120770
C124  C     C_R   0.647060 0.625289 0.803867 -0.009945
C125  C     C_R   0.686289 0.527748 0.661123 0.128157
C126  C     C_R   0.679157 0.525882 0.620977 -0.104044
C127  C     C_R   0.560923 0.708714 0.619817 -0.090107
C128  C     C_R   0.568867 0.712788 0.659931 0.077321
C129  C     C_R   0.628490 0.621374 0.680944 0.033685
C130  C     C_R   0.613808 0.615101 0.600096 -0.048055
C131  C     C_R   0.077121 0.694837 0.904699 -0.009151
C132  C     C_R   0.665586 0.782711 0.127230 -0.169556
Cr1   Cr    Cr6+3 0.426010 0.422500 0.497000 1.027076
Cr2   Cr    Cr6+3 0.651300 0.426310 0.501970 1.012220
Cr3   Cr    Cr6+3 0.422670 0.651170 0.501050 1.012810
Cr4   Cr    Cr6+3 0.905130 0.911420 0.992650 1.010377
Cr5   Cr    Cr6+3 0.911860 0.682710 0.002320 1.020080
Cr6   Cr    Cr6+3 0.682710 0.906840 0.004710 0.993790
H1    H     H_    0.606680 0.856858 0.116810 0.131604
H2    H     H_    0.881467 0.055232 0.101290 0.132144
H3    H     H_    0.878647 0.445551 0.694373 0.146096
H4    H     H_    0.880859 0.383158 0.648909 0.145021
H5    H     H_    0.897851 0.317110 0.693401 0.134802
H6    H     H_    0.232846 0.791575 0.819483 0.259226
H7    H     H_    0.339748 0.818537 0.862847 0.138007
H8    H     H_    0.369341 0.687713 0.868826 0.146399
H9    H     H_    0.288433 0.786527 0.902676 0.149329
H10   H     H_    0.412579 0.256271 0.682522 0.254263
H11   H     H_    0.306902 0.210429 0.645932 0.140078
H12   H     H_    0.398255 0.160524 0.608234 0.154146
H13   H     H_    0.511201 0.194052 0.331999 0.104490
H14   H     H_    0.321081 0.298587 0.616094 0.130988
H15   H     H_    0.825140 0.252717 0.626971 0.250988
H16   H     H_    0.893138 0.073780 0.604706 0.127537
H17   H     H_    0.924683 0.150559 0.574983 0.134208
H18   H     H_    0.822639 0.126712 0.559881 0.162264
H19   H     H_    0.555721 0.831324 0.311030 0.252446
H20   H     H_    0.404457 0.827744 0.287555 0.165178
H21   H     H_    0.433665 0.725676 0.320574 0.171945
H22   H     H_    0.516839 0.704037 0.280869 0.145335
H23   H     H_    0.553079 0.323551 0.205252 0.135583
H24   H     H_    0.842186 0.514005 0.358840 0.134754
H25   H     H_    0.850983 0.105337 0.168378 0.113130
H26   H     H_    0.786577 0.028515 0.287905 0.114673
H27   H     H_    0.801825 0.013110 0.218004 0.127151
H28   H     H_    0.800077 0.187936 0.334601 0.114478
H29   H     H_    0.780785 0.236287 0.402162 0.136050
H30   H     H_    0.551585 0.836362 0.908253 0.137833
H31   H     H_    0.784776 0.501399 0.422026 0.134151
H32   H     H_    0.506747 0.618758 0.802433 0.128206
H33   H     H_    0.772528 0.631132 0.725415 0.110599
H34   H     H_    0.785072 0.632921 0.795893 0.126171
H35   H     H_    0.719587 0.452557 0.606379 0.168491
H36   H     H_    0.523217 0.791518 0.843693 0.116862
H37   H     H_    0.510569 0.778390 0.604187 0.149681
H38   H     H_    0.123249 0.808861 0.912917 0.127638
H39   H     H_    0.736356 0.518087 0.216469 0.124405
H40   H     H_    0.045943 0.573335 0.888339 0.121763
H41   H     H_    0.200930 0.506582 0.663841 0.102458
H42   H     H_    0.165499 0.564167 0.089424 0.125176
H43   H     H_    0.319846 0.490678 0.720619 0.110278
H44   H     H_    0.300451 0.499496 0.790596 0.108561
H45   H     H_    0.089411 0.810690 0.711799 0.103244
H46   H     H_    0.069762 0.818874 0.781589 0.119407
H47   H     H_    0.226748 0.779589 0.664152 0.105880
H48   H     H_    0.261558 0.756688 0.595573 0.127465
H49   H     H_    0.118112 0.548078 0.824733 0.113793
H50   H     H_    0.610418 0.818967 0.184378 0.122063
H51   H     H_    0.234890 0.483486 0.595337 0.121547
H52   H     H_    0.563412 0.027329 0.899757 0.121205
H53   H     H_    0.061401 0.888738 0.088729 0.122570
H54   H     H_    0.766906 0.152883 0.905029 0.128540
H55   H     H_    0.751773 0.205920 0.676867 0.118337
H56   H     H_    0.589180 0.348166 0.725346 0.113634
H57   H     H_    0.583679 0.329277 0.794842 0.105859
H58   H     H_    0.507195 0.095177 0.834701 0.102593
H59   H     H_    0.602420 0.057955 0.706049 0.130974
H60   H     H_    0.600108 0.036721 0.775412 0.105430
H61   H     H_    0.744736 0.773866 0.306762 0.114738
H62   H     H_    0.475971 0.250102 0.583879 0.131695
H63   H     H_    0.712999 0.218093 0.840221 0.104349
H64   H     H_    0.349911 0.638592 0.278396 0.120196
H65   H     H_    0.760675 0.787281 0.237752 0.118665
H66   H     H_    0.410357 0.815986 0.381133 0.266654
H67   H     H_    0.389933 0.930611 0.432538 0.128903
H68   H     H_    0.490075 0.919912 0.402235 0.140304
H69   H     H_    0.522440 0.849923 0.447112 0.156075
H70   H     H_    0.895127 0.439000 0.159528 0.223534
H71   H     H_    0.969502 0.493401 0.168415 0.221671
H72   H     H_    0.235508 0.873471 0.357538 0.212707
H73   H     H_    0.142221 0.886259 0.326604 0.240808
H74   H     H_    0.378180 0.576052 0.187740 0.226630
H75   H     H_    0.219285 0.556430 0.156982 0.096327
H76   H     H_    0.425070 0.626305 0.220517 0.224963
H77   H     H_    0.965771 0.732822 0.279228 0.237937
H78   H     H_    0.950659 0.852150 0.281337 0.239164
H79   H     H_    0.885585 0.473280 0.093342 0.217742
H80   H     H_    0.964443 0.522604 0.102298 0.225132
H81   H     H_    0.972532 0.848937 0.186040 0.249964
H82   H     H_    0.002278 0.674989 0.169034 0.152559
H83   H     H_    0.873323 0.765321 0.182203 0.152607
H84   H     H_    0.959723 0.671626 0.216646 0.160832
H85   H     H_    0.173621 0.503514 0.420079 0.256673
H86   H     H_    0.174580 0.555413 0.321359 0.108618
H87   H     H_    0.214747 0.348901 0.386626 0.138277
H88   H     H_    0.265724 0.385520 0.347935 0.147321
H89   H     H_    0.127669 0.452046 0.355556 0.129578
H90   H     H_    0.543179 0.186518 0.047462 0.248265
H91   H     H_    0.499181 0.061903 0.050160 0.154391
H92   H     H_    0.410926 0.148736 0.084914 0.129670
H93   H     H_    0.533020 0.042473 0.100628 0.143954
H94   H     H_    0.528470 0.376673 0.307158 0.264355
H95   H     H_    0.357027 0.461622 0.285293 0.140287
H96   H     H_    0.395813 0.327560 0.283097 0.137292
H97   H     H_    0.114936 0.879864 0.156411 0.103884
H98   H     H_    0.392049 0.395071 0.239927 0.155411
H99   H     H_    0.479022 0.165956 0.152694 0.233658
H100  H     H_    0.454055 0.283745 0.138495 0.241967
H101  H     H_    0.420442 0.230306 0.387203 0.208730
H102  H     H_    0.494370 0.184573 0.427022 0.212749
H103  H     H_    0.811743 0.516515 0.960428 0.251309
H104  H     H_    0.970339 0.493245 0.942663 0.155709
H105  H     H_    0.936605 0.496429 0.892239 0.161817
H106  H     H_    0.969605 0.384383 0.920317 0.144621
H107  H     H_    0.568136 0.822393 0.694810 0.235096
H108  H     H_    0.266439 0.765316 0.407592 0.138700
H109  H     H_    0.463268 0.808945 0.697691 0.231114
H110  H     H_    0.657830 0.506346 0.310881 0.258587
H111  H     H_    0.731480 0.337592 0.285342 0.158339
H112  H     H_    0.807035 0.363159 0.253434 0.153750
H113  H     H_    0.668484 0.422354 0.245264 0.148436
H114  H     H_    0.507451 0.542729 0.710147 0.232264
H115  H     H_    0.432379 0.671723 0.709670 0.235221
H116  H     H_    0.770890 0.447654 0.827905 0.224601
H117  H     H_    0.780332 0.409461 0.873124 0.237321
H118  H     H_    0.724022 0.430417 0.708249 0.255911
N1    N     N_2   0.467864 0.792321 0.401959 -0.480810
N2    N     N_2   0.514873 0.362177 0.279122 -0.536917
N3    N     N_3   0.503818 0.219534 0.154883 -0.651373
N4    N     N_3   0.468825 0.242115 0.406333 -0.579543
N5    N     N_2   0.824505 0.509625 0.931310 -0.508656
N6    N     N_3   0.514852 0.810494 0.678742 -0.642786
N7    N     N_2   0.715763 0.483307 0.291482 -0.528806
N8    N     N_3   0.475711 0.608553 0.727424 -0.640088
N9    N     N_3   0.793026 0.457561 0.855709 -0.629448
N10   N     N_2   0.747248 0.433637 0.681044 -0.530953
N11   N     N_2   0.219488 0.790157 0.848206 -0.525121
N12   N     N_3   0.898281 0.499852 0.173272 -0.653998
N13   N     N_2   0.440783 0.218514 0.656857 -0.516529
N14   N     N_2   0.789107 0.232629 0.605587 -0.492739
N15   N     N_2   0.527006 0.793930 0.326373 -0.533137
N16   N     N_3   0.217666 0.835483 0.335758 -0.646703
N17   N     N_3   0.362383 0.644223 0.201848 -0.620200
N18   N     N_3   0.001262 0.775030 0.287569 -0.630938
N19   N     N_3   0.891110 0.539718 0.092481 -0.611769
N20   N     N_2   0.985662 0.794621 0.206330 -0.540469
N21   N     N_2   0.215000 0.487032 0.395333 -0.473158
N22   N     N_2   0.537146 0.167985 0.075248 -0.521872
O1    O     O_R   0.324990 0.503440 0.453910 -0.476112
O2    O     O_R   0.675430 0.831160 0.051290 -0.535686
O3    O     O_R   0.698870 0.998880 0.039560 -0.491853
O4    O     O_R   0.522030 0.339050 0.458320 -0.457767
O5    O     O_R   0.811290 0.006780 0.950620 -0.513197
O6    O     O_R   0.980960 0.812920 0.953200 -0.498335
O7    O     O_R   0.001480 0.656720 0.955830 -0.525188
O8    O     O_R   0.809240 0.683250 0.968050 -0.491790
O9    O     O_R   0.652500 0.818540 0.967340 -0.523567
O10   O     O_R   0.677620 0.987170 0.961730 -0.505367
O11   O     O_3   0.833240 0.833660 0.999890 -0.236757
O12   O     O_R   0.639980 0.519500 0.542640 -0.501301
O13   O     O_R   0.676180 0.324490 0.458320 -0.532920
O14   O     O_R   0.643570 0.521510 0.464260 -0.508353
O15   O     O_R   0.504630 0.675350 0.460920 -0.479594
O16   O     O_R   0.339850 0.642450 0.459830 -0.507242
O17   O     O_R   0.321120 0.501280 0.538470 -0.525475
O18   O     O_R   0.518440 0.337050 0.536710 -0.518392
O19   O     O_R   0.672300 0.322330 0.542880 -0.480243
O20   O     O_R   0.500750 0.673190 0.545480 -0.519532
O21   O     O_R   0.336260 0.640450 0.538210 -0.503812
O22   O     O_3   0.499990 0.499990 0.500010 -0.240796
O23   O     O_R   0.834210 0.019400 0.034570 -0.522794
O24   O     O_R   0.002210 0.824620 0.031030 -0.504429
O25   O     O_R   0.024400 0.669340 0.039790 -0.513093
O26   O     O_R   0.830490 0.694950 0.045870 -0.457577

loop_
_geom_bond_atom_site_label_1
_geom_bond_atom_site_label_2
_ccdc_geom_bond_type
C8    C9    A    
C63   H24   S    
C83   C87   A    
C39   H62   S    
H116  N9    S    
C93   C94   A    
H77   N18   S    
C19   H41   S    
C125  N10   S    
H71   N12   S    
C18   C21   A    
C24   C42   A    
C41   C42   A    
C37   H17   S    
C31   H104  S    
C44   C66   S    
C26   H69   S    
C25   C56   A    
C61   N1    S    
H101  N4    S    
C75   C76   A    
C51   O5    A    
C128  C129  A    
Cr6   O3    S    
C97   C98   A    
C48   O6    A    
C28   N21   S    
C18   H51   S    
C14   C132  A    
C85   C86   A    
C33   H5    S    
C4    N11   S    
C49   C110  S    
C32   H113  S    
C59   C64   A    
C101  C102  A    
C54   C64   S    
C50   C120  A    
C85   N16   S    
C31   H105  S    
C117  C124  A    
Cr2   O14   S    
C38   H21   S    
C84   O19   A    
C115  H36   S    
C16   H47   S    
C95   H23   S    
C5    C6    A    
C47   O23   A    
C34   H7    S    
Cr4   O24   S    
C36   H11   S    
C66   C68   A    
C126  C130  A    
Cr1   O4    S    
C89   H57   S    
H76   N17   S    
C32   H112  S    
C46   O26   A    
C59   N15   S    
C24   C39   A    
C1    O13   A    
Cr5   O26   S    
H79   N19   S    
C18   C19   A    
C48   O7    A    
Cr1   O18   S    
Cr4   O5    S    
C2    C13   A    
C52   H39   S    
C92   C93   A    
C41   H55   S    
C47   O3    A    
C110  C112  A    
C1    C109  S    
C93   N3    S    
C117  H32   S    
C75   H64   S    
C40   C43   A    
C55   H61   S    
C103  C107  A    
H15   N14   S    
C10   C20   S    
C68   C69   A    
C30   H96   S    
C50   N19   S    
H99   N3    S    
C46   O2    A    
C36   N13   S    
Cr6   O11   S    
H80   N19   S    
C70   C71   A    
C71   H97   S    
C35   N12   S    
C121  C123  A    
C9    C10   A    
C7    C131  A    
C81   C86   A    
C95   C102  A    
C92   C102  S    
C112  N5    S    
C13   C56   S    
C114  C124  S    
C119  C121  A    
C125  C126  A    
C27   H82   S    
C30   H95   S    
H94   N2    S    
C118  C119  A    
C111  C122  A    
C43   C84   S    
C37   H18   S    
C91   H25   S    
C26   H68   S    
C67   C78   A    
H6    N11   S    
Cr4   O6    S    
H107  N6    S    
C37   H16   S    
C28   H89   S    
C112  C113  A    
C108  O17   A    
C120  C132  A    
C97   N2    S    
C81   C82   A    
C14   C45   A    
C13   C89   A    
C2    C122  A    
C127  H37   S    
C49   O8    A    
C88   C94   A    
C45   C58   S    
C59   C61   A    
C27   H83   S    
C74   C75   A    
C89   C100  A    
C70   C80   S    
C30   N2    S    
H109  N6    S    
Cr2   O12   S    
C34   N11   S    
C123  C124  A    
C11   H45   S    
Cr2   O13   S    
C22   C78   A    
Cr3   O20   S    
C28   H88   S    
C91   C92   A    
C71   C73   A    
Cr4   O23   S    
C16   C17   A    
C39   C43   A    
H117  N9    S    
C33   H3    S    
C29   N22   S    
C53   C54   A    
C66   C73   A    
Cr6   O9    S    
C68   H42   S    
C17   C21   A    
C98   C107  S    
C99   H26   S    
C7    H40   S    
C132  H1    S    
Cr2   O19   S    
C32   N7    S    
C101  H27   S    
C42   C111  S    
C115  C116  A    
C62   C63   A    
C67   H63   S    
Cr3   O21   S    
C94   N22   S    
C32   H111  S    
C14   H50   S    
C34   H9    S    
C51   O10   A    
H103  N5    S    
C60   O15   A    
C12   C15   A    
Cr5   O7    S    
C17   H48   S    
C16   C20   A    
C57   H65   S    
C35   C50   A    
C77   C79   A    
C46   C120  S    
H100  N3    S    
C48   C131  S    
C96   O20   A    
C1    O4    A    
C76   C77   A    
Cr5   O11   S    
C116  H30   S    
C25   H58   S    
C38   H20   S    
C73   H53   S    
C126  H35   S    
C52   C58   A    
C100  C111  A    
C79   N20   S    
H85   N21   S    
H115  N8    S    
C40   C41   A    
C83   C85   A    
C88   C90   A    
C60   C65   S    
C98   C99   A    
C105  N4    S    
C128  N6    S    
C55   C57   A    
C125  C129  A    
H74   N17   S    
H73   N16   S    
C3    C131  A    
C100  H56   S    
C82   N21   S    
C37   N14   S    
C3    C4    A    
C35   C45   A    
C110  C116  A    
C72   C87   S    
C52   C53   A    
C96   C130  S    
C113  C114  A    
C38   N15   S    
C108  O21   A    
C8    H44   S    
C31   H106  S    
C121  H33   S    
C81   H86   S    
H118  N10   S    
C54   C55   A    
C49   O9    A    
C27   H84   S    
C106  H13   S    
C74   N17   S    
C62   C65   A    
Cr6   O2    S    
C2    H60   S    
C77   N18   S    
Cr3   O16   S    
C22   C23   A    
C36   H14   S    
C123  H34   S    
C96   O12   A    
C4    C5    A    
Cr1   O1    S    
C28   H87   S    
C29   H92   S    
C90   H2    S    
C11   C12   A    
C95   C97   A    
C114  C115  A    
C6    C7    A    
C84   O18   A    
C40   N14   S    
C33   H4    S    
C8    C15   A    
C56   C67   A    
C105  C106  A    
C60   O14   A    
C29   H93   S    
C53   N7    S    
C44   O25   A    
C31   N5    S    
C33   N10   S    
Cr4   O11   S    
C72   O1    A    
H90   N22   S    
C47   C88   S    
H110  N7    S    
C19   C20   A    
Cr2   O22   S    
C127  C130  A    
C29   H91   S    
C69   H75   S    
Cr6   O10   S    
H70   N12   S    
C117  C118  A    
C104  H29   S    
C78   H54   S    
C36   H12   S    
C90   C91   A    
C104  C109  A    
C26   N1    S    
C105  C109  A    
Cr5   O8    S    
C6    H49   S    
C83   H108  S    
C63   C64   A    
H81   N20   S    
C119  C129  S    
Cr1   O22   S    
C44   O24   A    
Cr5   O25   S    
Cr1   O17   S    
C122  H59   S    
Cr3   O15   S    
C69   C70   A    
C12   H46   S    
C113  N9    S    
C5    C15   S    
C21   C108  S    
C9    H43   S    
C10   C11   A    
H114  N8    S    
C38   H22   S    
C79   C80   A    
C26   H67   S    
C61   C65   A    
C3    H38   S    
C23   C25   A    
C118  N8    S    
C103  H28   S    
H72   N16   S    
H10   N13   S    
C106  C107  A    
C76   C86   S    
C62   H31   S    
C103  C104  A    
C127  C128  A    
H78   N18   S    
C34   H8    S    
C27   N20   S    
C74   C80   A    
H66   N1    S    
C30   H98   S    
C57   C58   A    
Cr3   O22   S    
C72   O16   A    
C99   C101  A    
C23   H52   S    
C82   C87   A    
C22   C51   S    
H102  N4    S    
C24   N13   S    
H19   N15   S    
