data_mof_unit_60546.cif
_audit_creation_date              2012-12-11T20:17:03-0500
_audit_creation_method            fapswitch 2.2
_symmetry_space_group_name_H-M    P1
_symmetry_Int_Tables_number       1
_space_group_crystal_system       triclinic
_cell_length_a                    8.199002
_cell_length_b                    17.462318
_cell_length_c                    18.81584
_cell_angle_alpha                 100.600251
_cell_angle_beta                  93.158138
_cell_angle_gamma                 98.537357
_cell_volume                      2609.19093151

loop_
_atom_site_label
_atom_site_type_symbol
_atom_type_description
_atom_site_fract_x
_atom_site_fract_y
_atom_site_fract_z
_atom_type_partial_charge
Ba1   Ba    Ba6+2 0.852650 0.537180 0.468240 1.628931
Ba2   Ba    Ba6+2 0.337190 0.462880 0.531770 1.657392
C1    C     C_3   0.673189 0.816768 0.290462 -0.271139
C2    C     C_3   0.701343 0.738301 0.310834 0.321619
C3    C     C_3   0.443742 0.334448 0.305038 0.345469
C4    C     C_3   0.410594 0.303997 0.223355 0.226490
C5    C     C_3   0.073720 0.300873 0.720774 0.349623
C6    C     C_3   0.089159 0.279714 0.795455 -0.346079
C7    C     C_3   0.539546 0.254315 0.679438 0.367752
C8    C     C_3   0.499743 0.173243 0.698893 -0.362116
C9    C     C_2   0.309500 0.512994 0.296290 -0.269798
C10   C     C_3   0.446425 0.508668 0.245597 -0.011632
C11   C     C_2   0.383881 0.515318 0.169591 -0.122035
C12   C     C_3   0.221170 0.706921 0.298044 0.296014
C13   C     C_2   0.219371 0.498403 0.147836 -0.074902
C14   C     C_2   0.101366 0.477798 0.203020 -0.140130
C15   C     C_1   0.157121 0.479583 0.271483 0.070975
C16   C     C_R   0.050393 0.494743 0.929096 0.454812
C17   C     C_R   0.158263 0.498574 0.070733 0.452323
C18   C     C_R   0.093412 0.523907 0.802114 -0.128941
C19   C     C_R   0.037115 0.516122 0.728134 0.071578
C20   C     C_R   0.773894 0.445556 0.750808 0.009677
C21   C     C_R   0.829064 0.452425 0.824055 -0.145785
C22   C     C_R   0.991187 0.490359 0.850860 -0.075585
C23   C     C_3   0.230092 0.723504 0.220990 -0.243774
C24   C     C_R   0.880487 0.474109 0.703045 -0.282882
C25   C     C_2   0.447576 0.730642 0.488923 -0.263002
C26   C     C_3   0.312464 0.781033 0.493964 -0.026040
C27   C     C_2   0.384007 0.864379 0.491965 -0.129565
C28   C     C_2   0.539745 0.892882 0.521788 0.009133
C29   C     C_2   0.644423 0.837073 0.548094 -0.022893
C30   C     C_1   0.586497 0.758637 0.531019 0.066097
C31   C     C_R   0.797532 0.137623 0.533987 -0.128617
C32   C     C_R   0.859194 0.218032 0.544459 0.057868
C33   C     C_R   0.612696 0.239283 0.479181 0.019363
C34   C     C_3   0.268755 0.707979 0.642975 0.318990
C35   C     C_R   0.550145 0.158719 0.467990 -0.118326
C36   C     C_R   0.640174 0.107714 0.497145 0.011363
C37   C     C_2   0.599414 0.978899 0.534189 -0.091147
C38   C     C_2   0.572978 0.022770 0.484606 -0.091632
C39   C     C_R   0.762771 0.269069 0.520163 -0.248443
C40   C     C_3   0.354036 0.789481 0.682103 -0.412620
C41   C     C_3   0.907735 0.290998 0.354180 0.686418
C42   C     C_3   0.823929 0.210366 0.311904 -0.239778
C43   C     C_3   0.738366 0.637019 0.688378 0.306265
C44   C     C_3   0.766243 0.659593 0.770660 -0.400216
H1    H     H_    0.835033 0.734263 0.311963 0.100230
H2    H     H_    0.458148 0.783761 0.720064 0.139977
H3    H     H_    0.402801 0.825432 0.643057 0.059478
H4    H     H_    0.264652 0.820821 0.713543 0.124262
H5    H     H_    0.810917 0.324785 0.375390 -0.051448
H6    H     H_    0.741383 0.217622 0.265608 0.081519
H7    H     H_    0.749529 0.177706 0.347627 0.054936
H8    H     H_    0.918671 0.174858 0.290361 0.116375
H9    H     H_    0.850941 0.618260 0.666211 0.015609
H10   H     H_    0.632994 0.587728 0.673897 0.075146
H11   H     H_    0.876427 0.706273 0.786514 0.125794
H12   H     H_    0.786227 0.607763 0.794202 0.068930
H13   H     H_    0.656273 0.681993 0.793231 0.126285
H14   H     H_    0.657136 0.737164 0.365474 0.037807
H15   H     H_    0.538858 0.819530 0.290500 0.103830
H16   H     H_    0.328403 0.351312 0.326832 0.026176
H17   H     H_    0.542333 0.387082 0.314864 -0.058089
H18   H     H_    0.368136 0.350073 0.196228 -0.045359
H19   H     H_    0.527794 0.290231 0.200661 0.072954
H20   H     H_    0.707648 0.818507 0.234328 0.117866
H21   H     H_    0.320340 0.689326 0.193145 0.112860
H22   H     H_    0.156516 0.357639 0.721961 0.092768
H23   H     H_    0.943587 0.308228 0.708771 -0.067050
H24   H     H_    0.220301 0.274850 0.810477 0.154183
H25   H     H_    0.049666 0.326446 0.836525 0.079816
H26   H     H_    0.008750 0.222191 0.795384 0.110311
H27   H     H_    0.674770 0.266943 0.675025 -0.075767
H28   H     H_    0.472671 0.252580 0.626045 0.080584
H29   H     H_    0.548318 0.128868 0.658567 0.063942
H30   H     H_    0.363046 0.155917 0.698340 0.149045
H31   H     H_    0.148228 0.647236 0.294250 0.059050
H32   H     H_    0.558459 0.174135 0.754040 0.116225
H33   H     H_    0.474128 0.528441 0.131537 0.100678
H34   H     H_    0.970098 0.460942 0.186605 0.110706
H35   H     H_    0.215436 0.556463 0.821424 0.109920
H36   H     H_    0.744792 0.428680 0.859847 0.106509
H37   H     H_    0.337139 0.541407 0.352907 0.067354
H38   H     H_    0.836799 0.468495 0.646717 0.064576
H39   H     H_    0.498546 0.996235 0.434193 0.072447
H40   H     H_    0.874452 0.098663 0.552170 0.058364
H41   H     H_    0.348264 0.707555 0.321902 -0.011077
H42   H     H_    0.665164 0.007143 0.585912 0.075646
H43   H     H_    0.303037 0.903299 0.476007 0.073722
H44   H     H_    0.433360 0.135786 0.435913 0.088607
H45   H     H_    0.437723 0.677814 0.447201 0.055223
H46   H     H_    0.810229 0.331483 0.528129 0.052725
H47   H     H_    0.275070 0.787351 0.223549 0.115921
H48   H     H_    0.362387 0.675367 0.616828 0.017567
H49   H     H_    0.173025 0.714004 0.601310 0.027775
N1    N     N_R   0.206035 0.530010 0.956350 -0.245695
N2    N     N_R   0.258629 0.531695 0.025327 -0.252449
N3    N     N_R   0.002416 0.463787 0.043622 -0.248741
N4    N     N_R   0.950105 0.461792 0.974593 -0.250547
O1    O     O_2   0.865200 0.455450 0.325860 -0.486400
O2    O     O_3   0.704782 0.703248 0.661997 -0.651914
O3    O     O_3   0.148252 0.765083 0.341013 -0.626119
O4    O     O_2   0.324510 0.544570 0.674190 -0.466375
O5    O     O_3   0.071830 0.543290 0.586690 -0.493315
O6    O     O_3   0.531950 0.400150 0.621890 -0.488485
O7    O     O_3   0.192415 0.670276 0.694450 -0.636121
O8    O     O_3   0.606980 0.404400 0.458100 -0.488020
O9    O     O_3   0.107660 0.359170 0.583950 -0.499686
O10   O     O_2   0.197382 0.220027 0.534735 -0.461242
O11   O     O_3   0.120058 0.240575 0.669383 -0.607101
O12   O     O_3   0.117880 0.456770 0.413320 -0.489549
O13   O     O_3   0.582730 0.595670 0.541910 -0.488367
O14   O     O_2   0.334130 0.306180 0.453490 -0.403501
O15   O     O_3   0.495248 0.274666 0.336950 -0.633274
O16   O     O_2   0.438601 0.457370 0.751717 -0.485988
O17   O     O_3   0.488957 0.310965 0.733320 -0.594229
O18   O     O_3   0.657770 0.599920 0.378120 -0.478589
O19   O     O_2   0.793624 0.564411 0.254265 -0.500918
O20   O     O_3   0.000441 0.329131 0.306947 -0.660829
O21   O     O_3   0.611357 0.675836 0.258931 -0.639832
O22   O     O_2   0.855570 0.693850 0.546560 -0.466930
O23   O     O_3   0.082050 0.640900 0.416060 -0.474765
O24   O     O_2   0.971887 0.773742 0.452330 -0.499664
P1    P     P_3+3 0.032830 0.432130 0.335280 0.971782
P2    P     P_3+3 0.680690 0.682340 0.566920 0.971122
P3    P     P_3+3 0.130060 0.742104 0.427375 0.934413
P4    P     P_3+3 0.156880 0.567940 0.664730 0.984328
P5    P     P_3+3 0.071855 0.257931 0.582598 0.974567
P6    P     P_3+3 0.629657 0.585121 0.283724 0.945280
P7    P     P_3+3 0.514824 0.304847 0.431336 0.975390
P8    P     P_3+3 0.558756 0.404700 0.715545 0.948561
O25   O     O_3   0.013130 0.278967 0.410453 -0.719716
H50   H     H_    0.028906 0.328427 0.447634 0.311270
C45   C     C_3   0.765621 0.889239 0.344340 -0.240085
C46   C     C_3   0.933832 0.920239 0.319803 -0.199073
C47   C     C_3   0.028926 0.987937 0.376806 -0.386548
H51   H     H_    0.953913 0.036005 0.389802 0.143358
H52   H     H_    0.061005 0.966655 0.426900 0.124814
H53   H     H_    0.145624 0.011964 0.355944 0.129836
H54   H     H_    0.008983 0.872138 0.309156 0.168905
H55   H     H_    0.914468 0.941896 0.268439 0.119944
H56   H     H_    0.689465 0.937298 0.348037 0.120999
H57   H     H_    0.780363 0.875269 0.399392 0.135259
O26   O     O_3   0.292130 0.235011 0.208823 -0.685270
H58   H     H_    0.182028 0.252090 0.213274 0.315731
C48   C     C_3   0.787629 0.871957 0.606270 -0.177855
C49   C     C_3   0.933071 0.921713 0.578590 -0.192239
C50   C     C_3   0.099168 0.914220 0.614696 -0.418941
H59   H     H_    0.099833 0.929923 0.674669 0.129402
H60   H     H_    0.122340 0.852729 0.598981 0.134426
H61   H     H_    0.199675 0.954706 0.596949 0.124908
H62   H     H_    0.934349 0.904556 0.519202 0.150987
H63   H     H_    0.921653 0.984902 0.591098 0.104006
H64   H     H_    0.739729 0.909497 0.652114 0.076107
H65   H     H_    0.835776 0.826149 0.630635 0.145981
C51   C     C_3   0.061352 0.699366 0.176704 -0.193015
C52   C     C_3   0.072567 0.715097 0.099441 -0.227516
C53   C     C_3   0.907776 0.684786 0.053749 -0.388862
H66   H     H_    0.874508 0.619728 0.049046 0.159072
H67   H     H_    0.807326 0.714151 0.078832 0.137826
H68   H     H_    0.918841 0.697840 0.998354 0.125279
H69   H     H_    0.105962 0.779751 0.101535 0.124830
H70   H     H_    0.170424 0.685087 0.072887 0.149240
H71   H     H_    0.017780 0.635366 0.173939 0.139249
H72   H     H_    0.970198 0.733398 0.203770 0.134908

loop_
_geom_bond_atom_site_label_1
_geom_bond_atom_site_label_2
_ccdc_geom_bond_type
C30   P2    S    
C19   C24   A    
C11   H33   S    
C23   H47   S    
C52   C53   S    
C21   H36   S    
C44   H13   S    
C16   N1    A    
C34   C40   S    
C49   C50   S    
C23   H21   S    
C50   H61   S    
C31   H40   S    
C27   H43   S    
C17   N2    A    
C46   C47   S    
O6    P8    S    
O16   P8    D    
O20   P1    S    
C13   C17   S    
C10   C11   S    
O5    P4    S    
Ba2   O13   S    
C35   C36   A    
C35   H44   S    
C16   C22   S    
C51   H72   S    
C26   C27   S    
C33   C35   A    
Ba1   P2    S    
C12   H41   S    
C47   H53   S    
Ba1   O13   S    
C28   C29   S    
C3    O15   S    
Ba2   O14   S    
C12   O3    S    
C13   C14   S    
Ba2   O8    S    
C3    H17   S    
Ba1   Ba2   S    
C12   H31   S    
C4    H18   S    
Ba1   O23   S    
O10   P5    D    
C53   H68   S    
C5    H22   S    
C29   C48   S    
C8    H30   S    
C42   H7    S    
C4    H19   S    
C48   H65   S    
C18   C22   A    
C43   H10   S    
O25   H50   S    
C3    H16   S    
O2    P2    S    
C21   C22   A    
C25   H45   S    
C19   P4    S    
O18   P6    S    
C7    C8    S    
C52   H70   S    
Ba2   P4    S    
C42   H6    S    
C45   H57   S    
C18   H35   S    
C44   H12   S    
C23   C51   S    
C53   H67   S    
O15   P7    S    
C32   C39   A    
C7    H27   S    
C37   H42   S    
O8    P7    S    
C33   C39   A    
Ba1   O1    S    
C17   N3    A    
C26   P3    S    
C1    H15   S    
C8    H32   S    
C46   H54   S    
Ba2   O12   S    
C6    H26   S    
C20   P8    S    
O14   P7    D    
C34   O7    S    
O21   P6    S    
C5    C6    S    
C50   H59   S    
C47   H52   S    
C10   P6    S    
C37   C38   D    
C14   C15   D    
O24   P3    D    
C40   H2    S    
C9    H37   S    
C43   C44   S    
O7    P4    S    
O1    P1    D    
C51   C52   S    
C38   H39   S    
O23   P3    S    
C41   C42   S    
O22   P2    D    
C27   C28   D    
C34   H48   S    
C45   H56   S    
C8    H29   S    
C15   P1    S    
C29   C30   D    
C48   H64   S    
Ba2   O5    S    
N1    N2    A    
C2    H14   S    
C31   C32   A    
Ba1   O18   S    
O9    P5    S    
Ba1   O5    S    
C51   H71   S    
O13   P2    S    
C43   O2    S    
C40   H4    S    
Ba1   O8    S    
C33   P7    S    
C11   C13   D    
C44   H11   S    
C53   H66   S    
C1    H20   S    
C7    H28   S    
C4    O26   S    
C1    C2    S    
O4    P4    D    
C48   C49   S    
C9    C15   D    
C6    H25   S    
C24   H38   S    
O12   P1    S    
C7    O17   S    
C50   H60   S    
C47   H51   S    
O3    P3    S    
C16   N4    A    
C5    H23   S    
C9    C10   S    
C45   C46   S    
Ba2   O6    S    
C6    H24   S    
C31   C36   A    
C5    O11   S    
O26   H58   S    
C1    C45   S    
C49   H62   S    
Ba1   P1    S    
O19   P6    D    
Ba1   O12   S    
C36   C38   S    
C34   H49   S    
C41   H5    S    
C3    C4    S    
O17   P8    S    
Ba2   O4    S    
Ba2   O9    S    
C41   O25   S    
C28   C37   S    
C12   C23   S    
C49   H63   S    
Ba1   O22   S    
C25   C30   D    
C40   H3    S    
C42   H8    S    
C46   H55   S    
C39   H46   S    
C18   C19   A    
C43   H9    S    
C32   P5    S    
N3    N4    A    
C20   C24   A    
O11   P5    S    
C25   C26   S    
C20   C21   A    
C2    O21   S    
C14   H34   S    
C52   H69   S    
C41   O20   S    
C2    H1    S    
