data_mof_unit_24625.cif
_audit_creation_date              2013-03-05T15:39:51-0500
_audit_creation_method            fapswitch 2.2
_symmetry_space_group_name_H-M    P1
_symmetry_Int_Tables_number       1
_space_group_crystal_system       triclinic
_cell_length_a                    16.965716
_cell_length_b                    16.931866
_cell_length_c                    16.918097
_cell_angle_alpha                 65.661467
_cell_angle_beta                  65.629311
_cell_angle_gamma                 65.597007
_cell_volume                      3856.53936588

loop_
_atom_site_label
_atom_site_type_symbol
_atom_site_description
_atom_site_fract_x
_atom_site_fract_y
_atom_site_fract_z
_atom_type_partial_charge
O1    O     O_R   0.982940 0.138950 0.510160 -0.563193
O2    O     O_R   0.017060 0.861050 0.489840 -0.569477
O3    O     O_R   0.138950 0.510160 0.982940 -0.574239
O4    O     O_R   0.861050 0.489840 0.017060 -0.574557
O5    O     O_R   0.510160 0.982940 0.138950 -0.574503
O6    O     O_R   0.489840 0.017060 0.861050 -0.573380
O7    O     O_R   0.489840 0.861050 0.017060 -0.575523
O8    O     O_R   0.510160 0.138950 0.982940 -0.574164
O9    O     O_R   0.017060 0.489840 0.861050 -0.565024
O10   O     O_R   0.982940 0.510160 0.138950 -0.570657
O11   O     O_R   0.861050 0.017060 0.489840 -0.571858
O12   O     O_R   0.138950 0.982940 0.510160 -0.571461
C1    C     C_R   0.586479 0.041154 0.588623 -0.171354
C2    C     C_R   0.411330 0.969695 0.407057 -0.173415
C3    C     C_R   0.033982 0.586837 0.592260 -0.172710
C4    C     C_R   0.959221 0.410801 0.414075 -0.180358
C5    C     C_R   0.588534 0.594075 0.028796 -0.174889
C6    C     C_R   0.411142 0.414562 0.957266 -0.180419
O13   O     O_R   0.867700 0.025880 0.612340 -0.628047
O14   O     O_R   0.132300 0.974120 0.387660 -0.633945
O15   O     O_R   0.025880 0.612340 0.867700 -0.631309
O16   O     O_R   0.974120 0.387660 0.132300 -0.636209
O17   O     O_R   0.612340 0.867700 0.025880 -0.625883
O18   O     O_R   0.387660 0.132300 0.974120 -0.625305
O19   O     O_R   0.387660 0.974120 0.132300 -0.628156
O20   O     O_R   0.612340 0.025880 0.867700 -0.627983
O21   O     O_R   0.132300 0.387660 0.974120 -0.627703
O22   O     O_R   0.867700 0.612340 0.025880 -0.627505
O23   O     O_R   0.974120 0.132300 0.387660 -0.638661
O24   O     O_R   0.025880 0.867700 0.612340 -0.635205
C7    C     C_R   0.964835 0.178646 0.436781 0.908910
C8    C     C_R   0.028028 0.821980 0.566277 0.910926
C9    C     C_R   0.178591 0.436674 0.964930 0.906837
C10   C     C_R   0.822377 0.566977 0.026346 0.914965
C11   C     C_R   0.437397 0.963607 0.178726 0.906730
C12   C     C_R   0.562871 0.035888 0.821309 0.911568
C13   C     C_R   0.562501 0.821285 0.036686 0.909102
C14   C     C_R   0.435641 0.178599 0.967367 0.906776
C15   C     C_R   0.036729 0.562447 0.821269 0.911966
C16   C     C_R   0.967478 0.435637 0.178632 0.907445
C17   C     C_R   0.821739 0.030336 0.565349 0.905855
C18   C     C_R   0.177743 0.972851 0.433363 0.913535
Zn1   Zn    Zn3+2 0.004880 0.004880 0.583590 1.149441
Zn2   Zn    Zn3+2 0.995120 0.995120 0.416410 1.140239
Zn3   Zn    Zn3+2 0.004880 0.583590 0.004880 1.148353
Zn4   Zn    Zn3+2 0.995120 0.416410 0.995120 1.145983
Zn5   Zn    Zn3+2 0.583590 0.004880 0.004880 1.149195
Zn6   Zn    Zn3+2 0.416410 0.995120 0.995120 1.146589
H1    H     H_    0.459762 0.162643 0.502508 0.158181
H2    H     H_    0.538475 0.849093 0.492339 0.157315
H3    H     H_    0.870969 0.608339 0.581384 0.158128
H4    H     H_    0.121268 0.387220 0.427476 0.150272
H5    H     H_    0.608439 0.582567 0.865713 0.156273
H6    H     H_    0.389426 0.428711 0.118863 0.147810
H7    H     H_    0.386960 0.131788 0.423263 0.155989
H8    H     H_    0.611374 0.880024 0.571276 0.156580
H9    H     H_    0.533588 0.505493 0.834579 0.159782
H10   H     H_    0.464095 0.505734 0.150066 0.154478
H11   H     H_    0.838315 0.534057 0.504830 0.159631
H12   H     H_    0.153986 0.461379 0.504054 0.155587
C19   C     C_R   0.540539 0.023554 0.542496 0.162499
C20   C     C_R   0.457712 0.988180 0.452143 0.166227
C21   C     C_R   0.014866 0.540049 0.548044 0.163695
C22   C     C_R   0.977410 0.455352 0.461093 0.160189
C23   C     C_R   0.541502 0.549640 0.010189 0.168780
C24   C     C_R   0.456094 0.461998 0.974434 0.163559
C25   C     C_R   0.562446 0.935230 0.538988 -0.065557
C26   C     C_R   0.435919 0.076594 0.455502 -0.068505
C27   C     C_R   0.085028 0.477210 0.504735 -0.058653
C28   C     C_R   0.907169 0.517901 0.504633 -0.077871
C29   C     C_R   0.479239 0.506262 0.081109 -0.057212
C30   C     C_R   0.518102 0.505542 0.903400 -0.077792
C31   C     C_R   0.521344 0.917624 0.493989 -0.057841
C32   C     C_R   0.476996 0.094186 0.500611 -0.058537
C33   C     C_R   0.437008 0.462462 0.063345 -0.045646
C34   C     C_R   0.560545 0.549208 0.921195 -0.068243
C35   C     C_R   0.066402 0.435300 0.461224 -0.043947
C36   C     C_R   0.925823 0.559998 0.547975 -0.060798
C37   C     C_R   0.542452 0.052984 0.675430 0.257883
C38   C     C_R   0.456897 0.950674 0.323394 0.258647
C39   C     C_R   0.026753 0.679433 0.553622 0.254013
C40   C     C_R   0.950057 0.323230 0.457086 0.262620
C41   C     C_R   0.681582 0.556749 0.019293 0.253843
C42   C     C_R   0.323291 0.457256 0.948951 0.259680
C43   C     C_R   0.318706 0.977730 0.444928 0.253815
C44   C     C_R   0.678010 0.037277 0.548921 0.256602
C45   C     C_R   0.453283 0.324171 0.955761 0.259059
C46   C     C_R   0.542868 0.676902 0.049517 0.259154
C47   C     C_R   0.957485 0.453027 0.323784 0.259759
C48   C     C_R   0.051501 0.541926 0.676530 0.263652
C49   C     C_R   0.593794 0.053570 0.723859 -0.157585
C50   C     C_R   0.406227 0.947308 0.275993 -0.149423
C51   C     C_R   0.038801 0.725838 0.599650 -0.169675
C52   C     C_R   0.947727 0.275793 0.405856 -0.155725
C53   C     C_R   0.726850 0.601195 0.034951 -0.170758
C54   C     C_R   0.275694 0.405759 0.947526 -0.158420
C55   C     C_R   0.273324 0.963550 0.399537 -0.170279
C56   C     C_R   0.725285 0.043828 0.597660 -0.169548
C57   C     C_R   0.404045 0.275873 0.951393 -0.164905
C58   C     C_R   0.593652 0.724056 0.052992 -0.150642
C59   C     C_R   0.951969 0.404042 0.275828 -0.162540
C60   C     C_R   0.053815 0.593272 0.723964 -0.150013
C61   C     C_R   0.681714 0.055549 0.682280 -0.299767
C62   C     C_R   0.318289 0.945759 0.317636 -0.307843
C63   C     C_R   0.055194 0.681414 0.682196 -0.308256
C64   C     C_R   0.943290 0.318263 0.318563 -0.315305
C65   C     C_R   0.681696 0.682389 0.054140 -0.303714
C66   C     C_R   0.318090 0.318377 0.943414 -0.296218
H13   H     H_    0.719024 0.058613 0.719316 0.226998
H14   H     H_    0.282133 0.938435 0.282236 0.224794
H15   H     H_    0.061203 0.718168 0.717962 0.224320
H16   H     H_    0.940491 0.281245 0.280987 0.221360
H17   H     H_    0.717750 0.717389 0.062143 0.227028
H18   H     H_    0.280942 0.280592 0.941370 0.228426
N1    N     N_R   0.447052 0.063230 0.714117 0.226407
O25   O     O_R   0.392471 0.135055 0.739531 -0.338380
O26   O     O_R   0.414338 0.001747 0.723038 -0.319505
N2    N     N_R   0.552923 0.937143 0.286067 0.225314
O27   O     O_R   0.587844 0.997806 0.274972 -0.315383
O28   O     O_R   0.605647 0.864046 0.262236 -0.345717
N3    N     N_R   0.005844 0.725374 0.468881 0.226793
O29   O     O_R   0.064719 0.706055 0.395344 -0.317264
O30   O     O_R   0.923518 0.774766 0.467991 -0.321020
N4    N     N_R   0.940900 0.284041 0.552483 0.232393
O31   O     O_R   0.006361 0.267501 0.583585 -0.308113
O32   O     O_R   0.867378 0.262932 0.608242 -0.337820
N5    N     N_R   0.729294 0.475376 0.991990 0.225753
O33   O     O_R   0.710106 0.400097 0.044765 -0.316362
O34   O     O_R   0.782645 0.479398 0.909744 -0.345687
N6    N     N_R   0.284030 0.552656 0.939511 0.231599
O35   O     O_R   0.268465 0.584198 0.004519 -0.322874
O36   O     O_R   0.262198 0.608029 0.866061 -0.345040
N7    N     N_R   0.271659 0.001524 0.528272 0.226584
O37   O     O_R   0.290487 0.945180 0.602859 -0.316361
O38   O     O_R   0.219824 0.083797 0.527067 -0.344757
N8    N     N_R   0.721705 0.026643 0.459536 0.228370
O39   O     O_R   0.765616 0.946072 0.449459 -0.306961
O40   O     O_R   0.704745 0.094901 0.389799 -0.332129
N9    N     N_R   0.545507 0.282726 0.957896 0.231013
O41   O     O_R   0.609076 0.263033 0.886512 -0.328809
O42   O     O_R   0.566807 0.270143 0.028666 -0.325528
N10   N     N_R   0.446602 0.713831 0.064506 0.225231
O43   O     O_R   0.410476 0.725361 0.004554 -0.320061
O44   O     O_R   0.394936 0.737615 0.137866 -0.352194
N11   N     N_R   0.960734 0.545026 0.282068 0.230585
O45   O     O_R   0.889560 0.609563 0.263336 -0.328513
O46   O     O_R   0.032359 0.565159 0.268472 -0.325998
N12   N     N_R   0.064769 0.445790 0.714331 0.226882
O47   O     O_R   0.004144 0.410801 0.725619 -0.302238
O48   O     O_R   0.137408 0.393089 0.738751 -0.342946

loop_
_geom_bond_atom_site_label_1
_geom_bond_atom_site_label_2
_geom_bond_distance
_ccdc_geom_bond_type
C29   C33   1.397911 A    
C1    C37   1.402996 A    
C40   C52   1.423452 A    
C37   N1    1.437163 S    
C28   C36   1.398076 A    
C5    C46   1.404695 A    
C22   C35   1.404778 A    
C27   C35   1.397531 A    
O1    C7    1.242425 A    
C30   C34   1.399290 A    
H7    C26   1.083098 S    
C3    C39   1.401054 A    
O4    Zn4   2.050407 S    
O21   C9    1.288854 A    
C47   N11   1.435375 S    
C57   C66   1.370381 A    
O5    Zn5   2.047110 S    
C23   C34   1.406060 A    
O6    Zn6   2.047110 S    
C38   N2    1.437777 S    
O10   C16   1.241625 A    
N12   O48   1.301274 A    
O12   Zn1   2.050671 S    
C48   N12   1.437796 S    
H10   C29   1.083061 S    
C62   H14   1.085183 S    
O3    C9    1.243068 A    
C26   C32   1.398063 A    
C56   C61   1.369280 A    
C2    C20   1.481430 S    
O9    C15   1.243913 A    
C60   C63   1.368622 A    
O2    C8    1.239461 A    
C42   C54   1.424134 A    
C66   H18   1.084943 S    
N2    O27   1.301303 A    
C65   H17   1.085216 S    
O12   C18   1.238856 A    
O14   Zn2   2.074640 S    
C16   C59   1.446901 S    
O1    Zn1   2.047914 S    
C24   C30   1.400638 A    
C21   C27   1.400754 A    
O2    Zn2   2.047914 S    
N1    O26   1.301293 A    
C1    C44   1.399371 A    
O18   C14   1.291120 A    
C20   C31   1.400636 A    
C25   C31   1.397014 A    
C2    C38   1.404197 A    
C49   C61   1.369977 A    
C45   C57   1.427332 A    
C51   C63   1.369403 A    
C11   C50   1.446314 S    
C8    C51   1.443556 S    
C63   H15   1.085135 S    
C41   C53   1.426937 A    
O9    Zn4   2.047024 S    
O8    C14   1.243483 A    
C40   N4    1.436921 S    
N11   O46   1.301039 A    
O13   Zn1   2.074640 S    
N11   O45   1.301023 A    
O15   Zn3   2.068775 S    
O4    C10   1.239743 A    
O22   Zn3   2.074558 S    
O17   Zn5   2.070220 S    
O18   Zn6   2.070222 S    
C10   C53   1.443063 S    
N8    O40   1.300751 A    
C18   C55   1.441962 S    
C41   N5    1.435742 S    
H4    C35   1.083296 S    
N8    O39   1.300871 A    
C64   H16   1.084974 S    
C23   C29   1.401302 A    
O3    Zn3   2.050407 S    
C39   N3    1.434844 S    
C5    C41   1.402575 A    
C38   C50   1.425618 A    
N6    O36   1.301144 A    
N5    O34   1.301329 A    
O17   C13   1.291927 A    
C39   C51   1.426153 A    
C19   C25   1.404937 A    
C6    C42   1.400972 A    
O15   C15   1.289863 A    
O16   C16   1.289706 A    
O10   Zn3   2.047024 S    
C4    C40   1.399985 A    
O7    C13   1.245367 A    
O11   Zn2   2.050671 S    
N12   O47   1.301341 A    
O19   Zn6   2.068686 S    
N3    O29   1.300918 A    
C46   C58   1.425541 A    
C53   C65   1.369168 A    
O20   Zn5   2.068686 S    
O19   C11   1.291611 A    
C12   C49   1.446423 S    
C44   N8    1.434480 S    
O16   Zn4   2.068775 S    
C22   C28   1.400020 A    
O23   Zn2   2.070391 S    
N7    O37   1.301175 A    
N10   O44   1.301294 A    
O24   Zn1   2.070393 S    
H2    C31   1.083071 S    
H5    C34   1.083109 S    
N5    O33   1.301061 A    
H8    C25   1.083231 S    
C9    C54   1.445294 S    
N3    O30   1.300869 A    
O21   Zn4   2.074559 S    
C15   C60   1.445501 S    
N4    O32   1.301121 A    
O20   C12   1.290562 A    
C59   C64   1.370113 A    
C46   N10   1.437978 S    
C52   C64   1.369480 A    
C58   C65   1.367917 A    
C47   C59   1.427016 A    
N10   O43   1.301334 A    
C37   C49   1.425795 A    
C2    C43   1.400947 A    
C45   N9    1.435385 S    
C14   C57   1.447831 S    
O14   C18   1.287365 A    
N9    O41   1.301035 A    
C19   C32   1.400428 A    
C6    C24   1.480644 S    
C7    C52   1.443982 S    
C5    C23   1.483382 S    
C6    C45   1.402543 A    
C20   C26   1.405848 A    
C61   H13   1.085003 S    
O7    Zn6   2.047737 S    
N6    O35   1.300944 A    
H3    C36   1.083187 S    
O23   C7    1.287851 A    
C48   C60   1.425000 A    
C3    C48   1.403035 A    
O24   C8    1.287795 A    
N9    O42   1.301042 A    
H12   C27   1.083049 S    
C24   C33   1.404722 A    
O5    C11   1.245269 A    
C42   N6    1.436832 S    
O6    C12   1.245418 A    
O11   C17   1.239739 A    
H9    C30   1.082985 S    
C54   C66   1.369461 A    
C44   C56   1.424852 A    
N2    O28   1.301304 A    
O8    Zn5   2.047735 S    
C55   C62   1.369088 A    
C43   C55   1.425792 A    
C50   C62   1.368416 A    
H11   C28   1.083021 S    
O22   C10   1.288136 A    
H6    C33   1.083263 S    
O13   C17   1.288133 A    
C4    C47   1.401770 A    
C1    C19   1.480146 S    
N7    O38   1.301328 A    
C3    C21   1.480996 S    
H1    C32   1.083015 S    
C4    C22   1.478690 S    
C13   C58   1.446608 S    
C17   C56   1.443827 S    
N1    O25   1.301222 A    
C43   N7    1.435719 S    
N4    O31   1.300975 A    
C21   C36   1.405607 A    
