data_mof_unit_37457.cif
_audit_creation_date              2013-03-05T15:42:35-0500
_audit_creation_method            fapswitch 2.2
_symmetry_space_group_name_H-M    P1
_symmetry_Int_Tables_number       1
_space_group_crystal_system       triclinic
_cell_length_a                    28.902096
_cell_length_b                    17.600304
_cell_length_c                    18.797958
_cell_angle_alpha                 90.650947
_cell_angle_beta                  138.882357
_cell_angle_gamma                 89.724139
_cell_volume                      6287.69854252

loop_
_atom_site_label
_atom_site_type_symbol
_atom_site_description
_atom_site_fract_x
_atom_site_fract_y
_atom_site_fract_z
_atom_type_partial_charge
C1    C     C_R   0.687169 0.899795 0.796090 -0.144317
C2    C     C_R   0.669915 0.079386 0.813594 -0.103133
C3    C     C_R   0.186465 0.401333 0.799606 -0.131142
C4    C     C_R   0.171315 0.583540 0.814170 -0.120543
H1    H     H_    0.736463 0.929959 0.847654 0.105336
H2    H     H_    0.716098 0.045066 0.873916 0.101065
H3    H     H_    0.235802 0.431676 0.852485 0.104185
H4    H     H_    0.219192 0.551877 0.876397 0.105882
N1    N     N_R   0.625250 0.928170 0.708660 -0.046698
N2    N     N_R   0.625250 0.071830 0.708660 -0.049664
N3    N     N_R   0.125250 0.428170 0.708660 -0.045888
N4    N     N_R   0.125250 0.571830 0.708660 -0.048176
C5    C     C_R   0.327966 0.102237 0.411919 -0.116927
C6    C     C_R   0.359328 0.927253 0.487201 0.010582
C7    C     C_R   0.827651 0.602180 0.410757 -0.115603
C8    C     C_R   0.860150 0.427829 0.488517 0.006306
H5    H     H_    0.277440 0.073948 0.353118 0.158618
H6    H     H_    0.318987 0.964879 0.459871 0.094854
H7    H     H_    0.777540 0.573053 0.353555 0.155236
H8    H     H_    0.820311 0.465865 0.462093 0.092737
N5    N     N_R   0.386350 0.070500 0.452620 -0.062737
N6    N     N_R   0.386350 0.929500 0.452620 -0.049089
N7    N     N_R   0.886350 0.570500 0.452620 -0.063573
N8    N     N_R   0.886350 0.429500 0.452620 -0.040914
C9    C     C_R   0.441342 0.835196 0.574552 -0.038351
C10   C     C_R   0.408011 0.194604 0.495531 -0.091236
C11   C     C_R   0.941356 0.335104 0.574477 -0.074131
C12   C     C_R   0.906640 0.694948 0.490827 -0.068130
H9    H     H_    0.477357 0.790173 0.628626 0.108009
H10   H     H_    0.429096 0.249955 0.508494 0.127332
H11   H     H_    0.976519 0.289317 0.627225 0.108193
H12   H     H_    0.926391 0.750043 0.499040 0.120463
N9    N     N_R   0.437960 0.869720 0.507940 -0.040949
N10   N     N_R   0.437960 0.130280 0.507940 -0.067558
N11   N     N_R   0.937960 0.369720 0.507940 -0.046375
N12   N     N_R   0.937960 0.630280 0.507940 -0.070049
C13   C     C_R   0.589427 0.173929 0.726360 -0.065097
C14   C     C_R   0.606672 0.806667 0.705203 -0.122916
C15   C     C_R   0.089330 0.676296 0.724023 -0.034883
C16   C     C_R   0.105559 0.307730 0.709297 -0.101626
N13   N     N_R   0.573630 0.128950 0.653340 -0.061945
N14   N     N_R   0.573630 0.871050 0.653340 -0.063217
N15   N     N_R   0.073630 0.628950 0.653340 -0.068660
N16   N     N_R   0.073630 0.371050 0.653340 -0.062638
C17   C     C_R   0.677807 0.824698 0.799870 -0.040692
C18   C     C_R   0.649783 0.142812 0.828820 -0.054298
C19   C     C_R   0.176193 0.326881 0.804762 -0.060755
C20   C     C_R   0.149852 0.647793 0.827469 -0.061757
C21   C     C_R   0.339658 0.179554 0.436513 0.089772
C22   C     C_R   0.393282 0.869902 0.564383 0.023429
C23   C     C_R   0.838456 0.679863 0.431953 0.082948
C24   C     C_R   0.894054 0.370388 0.565501 0.031266
C25   C     C_R   0.666917 0.103524 0.583290 -0.115198
C26   C     C_R   0.639813 0.922124 0.517461 -0.115438
C27   C     C_R   0.166860 0.603503 0.583067 -0.116379
C28   C     C_R   0.139417 0.422691 0.516810 -0.114812
H13   H     H_    0.717723 0.076402 0.640710 0.115252
H14   H     H_    0.681192 0.958788 0.546336 0.125336
H15   H     H_    0.217777 0.576613 0.641243 0.106762
H16   H     H_    0.180307 0.459940 0.545138 0.114320
N17   N     N_R   0.609990 0.071870 0.547380 -0.044918
N18   N     N_R   0.609990 0.928130 0.547380 -0.050556
N19   N     N_R   0.109990 0.571870 0.547380 -0.042770
N20   N     N_R   0.109990 0.428130 0.547380 -0.050547
C29   C     C_R   0.311160 0.881925 0.223494 0.385980
C30   C     C_R   0.322309 0.090503 0.186582 0.333530
C31   C     C_R   0.810021 0.384936 0.212606 0.299383
C32   C     C_R   0.818798 0.594474 0.188305 0.274837
N21   N     N_R   0.371090 0.922150 0.291340 -0.076656
N22   N     N_R   0.371090 0.077850 0.291340 -0.074649
N23   N     N_R   0.871090 0.422150 0.291340 -0.090178
N24   N     N_R   0.871090 0.577850 0.291340 -0.076483
C33   C     C_R   0.557814 0.829650 0.430903 -0.043400
C34   C     C_R   0.584914 0.194077 0.496089 -0.085906
C35   C     C_R   0.057824 0.329889 0.430641 -0.020500
C36   C     C_R   0.084671 0.693917 0.495140 -0.079340
H17   H     H_    0.523733 0.781956 0.380804 0.108058
H18   H     H_    0.560626 0.248917 0.475227 0.110031
H19   H     H_    0.024194 0.281835 0.380977 0.120687
H20   H     H_    0.060164 0.748693 0.473569 0.104670
N25   N     N_R   0.558380 0.869490 0.492060 -0.046587
N26   N     N_R   0.558380 0.130510 0.492060 -0.040688
N27   N     N_R   0.058380 0.369490 0.492060 -0.042172
N28   N     N_R   0.058380 0.630510 0.492060 -0.041274
C37   C     C_R   0.409581 0.172838 0.279134 -0.086616
C38   C     C_R   0.397410 0.806760 0.299914 -0.061646
C39   C     C_R   0.906671 0.675921 0.279238 -0.080875
C40   C     C_R   0.897621 0.307569 0.298121 0.008668
H21   H     H_    0.442428 0.221080 0.304799 0.104577
H22   H     H_    0.428106 0.755428 0.332036 0.139717
H23   H     H_    0.939152 0.724503 0.304501 0.100704
H24   H     H_    0.928278 0.256188 0.332116 0.133568
N29   N     N_R   0.422710 0.124520 0.346660 -0.065653
N30   N     N_R   0.422710 0.875480 0.346660 -0.052541
N31   N     N_R   0.922710 0.624520 0.346660 -0.063017
N32   N     N_R   0.922710 0.375480 0.346660 -0.060533
Ni1   Ni    Ni4+2 0.616550 1.000000 0.626870 0.221059
Ni2   Ni    Ni4+2 0.116550 0.500000 0.626870 0.221430
Ni3   Ni    Ni4+2 0.379790 1.000000 0.373130 0.340137
Ni4   Ni    Ni4+2 0.879790 0.500000 0.373130 0.325657
Ni5   Ni    Ni4+2 0.498170 0.870760 0.500000 0.278952
Ni6   Ni    Ni4+2 0.498170 0.129240 0.500000 0.242135
Ni7   Ni    Ni4+2 0.998170 0.370760 0.500000 0.283040
Ni8   Ni    Ni4+2 0.998170 0.629240 0.500000 0.235768
C41   C     C_R   0.652926 0.179690 0.552881 0.056994
C42   C     C_R   0.606925 0.861995 0.442495 0.051841
C43   C     C_R   0.152756 0.679543 0.551913 0.059802
C44   C     C_R   0.106500 0.362803 0.441521 0.038987
C45   C     C_R   0.326006 0.808880 0.218907 -0.171821
C46   C     C_R   0.344803 0.153459 0.174989 -0.152630
C47   C     C_R   0.826235 0.310908 0.212249 -0.100219
C48   C     C_R   0.840070 0.658326 0.175905 -0.149581
C49   C     C_3   0.660210 0.199515 0.960974 -0.472757
C50   C     C_3   0.679907 0.757645 0.913331 -0.429542
C51   C     C_3   0.155080 0.748514 0.927209 -0.415299
C52   C     C_3   0.187545 0.268188 0.931258 -0.422897
H25   H     H_    0.606419 0.221097 0.891976 0.234682
H26   H     H_    0.637656 0.718087 0.847024 0.223662
H27   H     H_    0.140741 0.795862 0.875481 0.227434
H28   H     H_    0.138475 0.235307 0.866273 0.228764
H29   H     H_    0.653741 0.145917 0.983963 0.171470
H30   H     H_    0.651858 0.807370 0.904519 0.166195
H31   H     H_    0.105954 0.722574 0.891829 0.195604
H32   H     H_    0.169884 0.322999 0.934989 0.175340
C53   C     C_3   0.199880 0.785405 0.036797 -0.294098
C54   C     C_3   0.234269 0.225171 0.036110 -0.212710
C55   C     C_3   0.704136 0.258236 0.053379 -0.265666
C56   C     C_3   0.723958 0.718284 0.019797 -0.212730
H33   H     H_    0.679473 0.313195 0.013036 0.214128
H34   H     H_    0.695825 0.664929 0.996058 0.210624
H35   H     H_    0.195443 0.847959 0.024792 0.187879
H36   H     H_    0.202772 0.175600 0.014452 0.210814
H37   H     H_    0.677619 0.294977 0.873681 0.208321
H38   H     H_    0.726763 0.690540 0.824191 0.202775
H39   H     H_    0.228773 0.763665 0.884343 0.193292
H40   H     H_    0.205303 0.184958 0.810447 0.179166
C57   C     C_3   0.722535 0.255679 0.925607 -0.484194
C58   C     C_3   0.762433 0.719728 0.903563 -0.440909
C59   C     C_3   0.253632 0.729009 0.955357 -0.469259
C60   C     C_3   0.249517 0.212675 0.890315 -0.437005
C61   C     C_3   0.232870 0.632868 0.028040 -0.317533
C62   C     C_3   0.295383 0.327885 0.004421 -0.378289
C63   C     C_3   0.764001 0.133528 0.032211 -0.418309
C64   C     C_3   0.786442 0.834121 0.005065 -0.380378
C65   C     C_3   0.698168 0.181716 0.934663 0.354402
C66   C     C_3   0.725765 0.784065 0.902895 0.354066
C67   C     C_3   0.196649 0.688389 0.932885 0.288184
C68   C     C_3   0.226312 0.283960 0.905306 0.341962
H41   H     H_    0.262744 0.588103 0.033805 0.165857
H42   H     H_    0.323810 0.345566 0.988434 0.163475
H43   H     H_    0.797649 0.122143 0.024020 0.199255
H44   H     H_    0.819094 0.859681 0.000150 0.156430
H45   H     H_    0.747414 0.077444 0.034284 0.164949
H46   H     H_    0.764636 0.881721 0.012245 0.203175
H47   H     H_    0.192063 0.603723 0.013088 0.196195
H48   H     H_    0.283288 0.380333 0.021611 0.198518
C69   C     C_3   0.279811 0.762506 0.117359 0.085037
C70   C     C_3   0.303498 0.200432 0.076959 0.109233
C71   C     C_3   0.782351 0.260997 0.114471 0.129020
C72   C     C_3   0.799597 0.703690 0.076742 0.113880
C73   C     C_3   0.302470 0.777171 0.061814 -0.205743
C74   C     C_3   0.289147 0.156889 0.985913 -0.259223
C75   C     C_3   0.785285 0.292859 0.037974 -0.233838
C76   C     C_3   0.798730 0.663873 0.997877 -0.264180
C77   C     C_3   0.284885 0.676246 0.137979 -0.288351
C78   C     C_3   0.343560 0.276042 0.104221 -0.351881
C79   C     C_3   0.807794 0.176596 0.140238 -0.358774
C80   C     C_3   0.834224 0.784240 0.106761 -0.354186
H49   H     H_    0.274243 0.663587 0.182154 0.215031
H50   H     H_    0.361337 0.307764 0.172938 0.189856
H51   H     H_    0.801292 0.148315 0.184760 0.219630
H52   H     H_    0.844678 0.813390 0.170494 0.192729
H53   H     H_    0.338960 0.654853 0.193495 0.194350
H54   H     H_    0.392176 0.263653 0.129756 0.166461
H55   H     H_    0.864404 0.171863 0.192102 0.152924
H56   H     H_    0.886415 0.779121 0.140966 0.164293
H57   H     H_    0.733376 0.245856 0.880682 0.209131
H58   H     H_    0.800301 0.747162 0.910708 0.205803
H59   H     H_    0.283168 0.685255 0.958636 0.191987
H60   H     H_    0.282501 0.232644 0.883700 0.206972
C81   C     C_R   0.623240 0.834082 0.389294 0.120078
C82   C     C_R   0.702492 0.237303 0.583923 0.104762
C83   C     C_R   0.122042 0.336167 0.386696 0.115744
C84   C     C_R   0.202729 0.737289 0.584000 0.094324
C85   C     C_R   0.287758 0.236908 0.398696 0.106963
C86   C     C_R   0.376686 0.845028 0.617817 0.079948
C87   C     C_R   0.786542 0.737154 0.393787 0.085228
C88   C     C_R   0.877403 0.345383 0.618750 0.072856
C89   C     C_R   0.265800 0.363636 0.421843 0.318122
C90   C     C_R   0.381829 0.743630 0.710834 0.328662
C91   C     C_R   0.767203 0.861832 0.425098 0.329165
C92   C     C_R   0.880061 0.241258 0.705832 0.329851
C93   C     C_R   0.307891 0.313413 0.431573 -0.267120
C94   C     C_R   0.411220 0.782411 0.687404 -0.256859
C95   C     C_R   0.806943 0.813416 0.427970 -0.254128
C96   C     C_R   0.911423 0.282257 0.687341 -0.240043
C97   C     C_R   0.220085 0.214097 0.340183 -0.174811
C98   C     C_R   0.319478 0.876814 0.587551 -0.220892
C99   C     C_R   0.719858 0.713629 0.338391 -0.166392
C100  C     C_R   0.819335 0.376216 0.586615 -0.227905
C101  C     C_R   0.179453 0.261540 0.335848 0.130208
C102  C     C_R   0.286838 0.836552 0.603743 0.149391
C103  C     C_R   0.680941 0.759612 0.338837 0.126936
C104  C     C_R   0.785810 0.335046 0.600517 0.157467
C105  C     C_R   0.706365 0.832761 0.387925 -0.020874
C106  C     C_R   0.813815 0.264734 0.655105 -0.016093
C107  C     C_R   0.204761 0.334797 0.384198 -0.001630
C108  C     C_R   0.315159 0.766549 0.658895 0.002893
C109  C     C_R   0.674071 0.871237 0.407134 -0.174676
C110  C     C_R   0.772436 0.217867 0.650086 -0.168424
C111  C     C_R   0.174699 0.372072 0.407922 -0.154152
C112  C     C_R   0.272359 0.717408 0.648542 -0.154575
C113  C     C_R   0.593911 0.765342 0.330329 -0.093986
C114  C     C_R   0.678313 0.310241 0.539039 -0.138781
C115  C     C_R   0.090142 0.269589 0.322651 -0.126137
C116  C     C_R   0.179385 0.811182 0.542395 -0.130795
C117  C     C_R   0.621535 0.729241 0.302937 -0.157217
C118  C     C_R   0.720352 0.359374 0.549288 -0.154789
C119  C     C_R   0.118561 0.232658 0.296812 -0.167767
C120  C     C_R   0.221477 0.860721 0.553059 -0.151468
H61   H     H_    0.692547 0.926817 0.444707 0.166881
H62   H     H_    0.792513 0.164012 0.690570 0.164705
H63   H     H_    0.197757 0.424488 0.453964 0.159941
H64   H     H_    0.290798 0.661063 0.681462 0.161008
H65   H     H_    0.553042 0.736001 0.311501 0.122134
H66   H     H_    0.625512 0.328490 0.490169 0.119415
H67   H     H_    0.046885 0.242100 0.299336 0.140519
H68   H     H_    0.126916 0.829768 0.494863 0.119364
H69   H     H_    0.097147 0.177886 0.255915 0.141091
H70   H     H_    0.200214 0.915185 0.513137 0.128219
H71   H     H_    0.600903 0.673935 0.263506 0.141913
H72   H     H_    0.699030 0.413634 0.508760 0.128198
H73   H     H_    0.357598 0.334095 0.469222 0.174629
H74   H     H_    0.459485 0.761321 0.720281 0.163957
H75   H     H_    0.856826 0.834392 0.466393 0.171255
H76   H     H_    0.959265 0.260273 0.719484 0.163692
H77   H     H_    0.201982 0.156605 0.309196 0.138674
H78   H     H_    0.294670 0.927806 0.539701 0.123081
H79   H     H_    0.701576 0.656324 0.306527 0.143077
H80   H     H_    0.794770 0.427472 0.539354 0.123798
C121  C     C_2   0.165265 0.768648 0.068194 1.147796
O1    O     O_2   0.133473 0.819435 0.062353 -0.542222
O2    O     O_R   0.161545 0.694793 0.090226 -0.810834
H81   H     H_    0.134811 0.691809 0.105822 0.346654
C122  C     C_2   0.246674 0.269923 0.119523 1.033171
O3    O     O_2   0.239600 0.238422 0.168531 -0.603975
O4    O     O_R   0.264333 0.347173 0.138594 -0.820282
H82   H     H_    0.270817 0.369900 0.195490 0.333535
C123  C     C_2   0.696040 0.243391 0.123248 1.125883
O5    O     O_2   0.638238 0.251249 0.083938 -0.576768
O6    O     O_R   0.753222 0.220977 0.230988 -0.790201
H83   H     H_    0.740143 0.213542 0.267586 0.350298
C124  C     C_2   0.722417 0.760974 0.089241 1.028881
O7    O     O_2   0.706841 0.727081 0.125407 -0.585612
O8    O     O_R   0.735616 0.839190 0.108156 -0.822792
H84   H     H_    0.732366 0.860325 0.154680 0.334354
C125  C     C_2   0.293998 0.861883 0.035287 1.058110
O9    O     O_2   0.237937 0.885920 0.948485 -0.621460
O10   O     O_R   0.349229 0.913048 0.112380 -0.742198
H85   H     H_    0.336767 0.967230 0.086465 0.369588
C126  C     C_2   0.241805 0.086615 0.933129 1.040250
O11   O     O_2   0.186803 0.087154 0.902958 -0.538802
O12   O     O_R   0.253577 0.027678 0.897659 -0.778072
H86   H     H_    0.210808 0.993730 0.841446 0.371762
C127  C     C_2   0.778744 0.379469 0.027326 0.952709
O13   O     O_2   0.721224 0.409929 0.964644 -0.559210
O14   O     O_R   0.839601 0.424663 0.096021 -0.732355
H87   H     H_    0.830299 0.479772 0.097292 0.345869
C128  C     C_2   0.756648 0.589891 0.941164 1.047258
O15   O     O_2   0.695310 0.586726 0.889071 -0.532685
O16   O     O_R   0.783545 0.530363 0.930529 -0.772719
H88   H     H_    0.747626 0.488766 0.879121 0.351185
C129  C     C_2   0.378360 0.752059 0.131237 0.962413
O17   O     O_2   0.422540 0.797891 0.162375 -0.604774
O18   O     O_R   0.396282 0.675034 0.152986 -0.825975
H89   H     H_    0.446600 0.665265 0.196136 0.318421
C130  C     C_2   0.359804 0.132077 0.034746 1.044489
O19   O     O_2   0.396228 0.085683 0.107638 -0.634204
O20   O     O_R   0.383388 0.160964 0.997155 -0.789744
H90   H     H_    0.430584 0.139520 0.036823 0.346716
C131  C     C_2   0.854582 0.272150 0.079288 1.045297
O21   O     O_2   0.910913 0.296230 0.166841 -0.648342
O22   O     O_R   0.854459 0.226770 0.017434 -0.817487
H91   H     H_    0.903431 0.217941 0.054430 0.332031
C132  C     C_2   0.874826 0.646784 0.062425 1.046762
O23   O     O_2   0.908219 0.597462 0.131417 -0.611595
O24   O     O_R   0.906888 0.686159 0.043860 -0.797889
H92   H     H_    0.956886 0.668935 0.092401 0.344546
N33   N     N_R   0.793923 0.936663 0.471301 0.239738
O25   O     O_R   0.815366 0.953865 0.560086 -0.342179
O26   O     O_R   0.812088 0.980408 0.440049 -0.361522
N34   N     N_R   0.912873 0.172475 0.766645 0.237413
O27   O     O_R   0.882188 0.107361 0.718843 -0.328839
O28   O     O_R   0.979223 0.173474 0.860526 -0.337436
N35   N     N_R   0.287896 0.441500 0.456635 0.237718
O29   O     O_R   0.241755 0.495818 0.401783 -0.377949
O30   O     O_R   0.354480 0.459191 0.533467 -0.336255
N36   N     N_R   0.418030 0.679359 0.781698 0.242929
O31   O     O_R   0.418574 0.668543 0.850699 -0.377498
O32   O     O_R   0.458865 0.638191 0.788738 -0.312912
C133  C     C_2   0.560589 0.251372 0.698302 0.938368
O33   O     O_2   0.536225 0.275715 0.725881 -0.619584
O34   O     O_R   0.559001 0.296012 0.635461 -0.812854
H93   H     H_    0.537636 0.347855 0.619895 0.341979
C134  C     C_2   0.574517 0.732167 0.647438 0.950569
O35   O     O_2   0.517158 0.731254 0.551515 -0.657126
O36   O     O_R   0.608145 0.663440 0.698820 -0.787527
H94   H     H_    0.579845 0.617809 0.648826 0.355269
C135  C     C_2   0.057257 0.752007 0.690755 0.926840
O37   O     O_2   0.021801 0.770588 0.701273 -0.636478
O38   O     O_R   0.064833 0.801086 0.642114 -0.803312
H95   H     H_    0.039723 0.851127 0.621006 0.338142
C136  C     C_2   0.073814 0.232324 0.655512 0.931932
O39   O     O_2   0.032594 0.226988 0.558016 -0.657018
O40   O     O_R   0.086945 0.168552 0.711925 -0.783228
H96   H     H_    0.060803 0.121624 0.664016 0.357941
N37   N     N_R   0.264038 0.893327 0.227644 0.228521
O41   O     O_R   0.260310 0.841670 0.272302 -0.403777
O42   O     O_R   0.242149 0.961036 0.218165 -0.338934
N38   N     N_R   0.252698 0.060407 0.111916 0.230446
O43   O     O_R   0.236511 0.997117 0.060922 -0.387634
O44   O     O_R   0.212266 0.084640 0.116276 -0.299977
N39   N     N_R   0.750764 0.403016 0.188364 0.231595
O45   O     O_R   0.752970 0.388196 0.258397 -0.400118
O46   O     O_R   0.690999 0.422913 0.091857 -0.282647
N40   N     N_R   0.749085 0.569741 0.123113 0.224446
O47   O     O_R   0.711844 0.534464 0.032187 -0.305104
O48   O     O_R   0.726824 0.571806 0.162725 -0.326391

loop_
_geom_bond_atom_site_label_1
_geom_bond_atom_site_label_2
_geom_bond_distance
_ccdc_geom_bond_type
H37   C57   1.101753 S    
C39   H23   1.079222 S    
C85   C97   1.397351 A    
H40   C60   1.106193 S    
C77   H49   1.106119 S    
C133  O33   1.220788 D    
H39   C59   1.113303 S    
C103  C105  1.417531 A    
N10   Ni6   1.855226 S    
C76   C132  1.543004 S    
N3    Ni2   1.866540 S    
N19   Ni2   1.866163 S    
C27   H15   1.079706 S    
N17   N26   1.429674 A    
O16   H88   1.013536 S    
C14   C17   1.405446 A    
C97   H77   1.081415 S    
C74   C130  1.542625 S    
C75   C131  1.550193 S    
N1    Ni1   1.866540 S    
N40   O47   1.294534 A    
C7    C23   1.389191 A    
C41   C82   1.470361 S    
C4    N4    1.327961 A    
C16   N16   1.324463 A    
C63   H43   1.110247 S    
C122  O3    1.222439 D    
N2    N13   1.410543 A    
C94   H74   1.080250 S    
C33   N25   1.329312 A    
C9    H9    1.077397 S    
C90   N36   1.439318 S    
C78   H54   1.111516 S    
C51   H31   1.115027 S    
C103  C117  1.394249 A    
C11   H11   1.075813 S    
N39   O45   1.298598 A    
C12   H12   1.076621 S    
N22   N29   1.279346 A    
C101  C119  1.395889 A    
C37   C46   1.386580 A    
C38   H22   1.079570 S    
C79   H51   1.109421 S    
C39   C48   1.390204 A    
C74   C126  1.526214 S    
C11   N11   1.333053 A    
C55   C123  1.522978 S    
C50   C56   1.513305 S    
O34   H93   1.013846 S    
C8    H8    1.076603 S    
C111  H63   1.078427 S    
C5    N5    1.341707 A    
C14   C134  1.490296 S    
C30   C46   1.387020 A    
C73   C129  1.549267 S    
N18   N25   1.422970 A    
C36   C43   1.382877 A    
C128  O16   1.401273 S    
N9    Ni5   1.855425 S    
N36   O31   1.301441 A    
C92   C96   1.396364 A    
C124  O8    1.398782 S    
C91   N33   1.434771 S    
C48   C72   1.489956 S    
N8    Ni4   1.849694 S    
C3    H3    1.079931 S    
N19   N28   1.429674 A    
N34   O28   1.301019 A    
C132  O24   1.399887 S    
C6    C22   1.401915 A    
C60   H60   1.109329 S    
C71   C79   1.565624 S    
C72   C80   1.573044 S    
C64   H46   1.112559 S    
C59   H59   1.114040 S    
C61   C67   1.568058 S    
N7    N12   1.437523 A    
C27   C43   1.397539 A    
C33   H17   1.074287 S    
C125  O10   1.399244 S    
C35   H19   1.074417 S    
C89   N35   1.439589 S    
C70   C74   1.610018 S    
C76   C128  1.530153 S    
C110  H62   1.077046 S    
C45   C69   1.492546 S    
N24   Ni4   1.940758 S    
N35   O30   1.301543 A    
N25   Ni5   1.855253 S    
C123  O5    1.223175 D    
C116  H68   1.079520 S    
N27   Ni7   1.855253 S    
C126  O11   1.220781 D    
N5    Ni3   1.828015 S    
C136  O40   1.394615 S    
C88   C100  1.395415 A    
C60   C74   1.559889 S    
C82   C110  1.401853 A    
N13   Ni6   1.895628 S    
C125  O9    1.221610 D    
C32   C48   1.387015 A    
C102  C120  1.395345 A    
C53   H35   1.113641 S    
C9    C22   1.390482 A    
C28   C44   1.402207 A    
C16   C136  1.486251 S    
C40   C47   1.359739 A    
C37   N29   1.331966 A    
C134  O36   1.393379 S    
C39   N31   1.332815 A    
C98   C102  1.388768 A    
C28   N20   1.340567 A    
N7    Ni4   1.828015 S    
C130  O19   1.223219 D    
C107  C111  1.398536 A    
C15   C135  1.469574 S    
N16   Ni7   1.895508 S    
C56   C124  1.528277 S    
C135  O38   1.396988 S    
C3    N3    1.314908 A    
C32   N40   1.423678 S    
C114  C118  1.383754 A    
C69   C77   1.549927 S    
C57   C75   1.545025 S    
C52   H28   1.104546 S    
C104  C118  1.395115 A    
N39   O46   1.297893 A    
N38   O44   1.301114 A    
N2    Ni1   1.844386 S    
C55   H33   1.102014 S    
C42   C81   1.470001 S    
C62   C78   1.543257 S    
N18   Ni1   1.844260 S    
C106  C110  1.399043 A    
C54   H36   1.093976 S    
C100  C104  1.387374 A    
C63   C79   1.549807 S    
N33   O25   1.301164 A    
N26   Ni6   1.855496 S    
N3    N16   1.403926 A    
C127  O14   1.400653 S    
C118  H72   1.084282 S    
C31   N39   1.436738 S    
C78   H50   1.109365 S    
C51   H27   1.104367 S    
N28   Ni8   1.855496 S    
C49   H25   1.100379 S    
C22   C86   1.472628 S    
N14   Ni5   1.895508 S    
N22   Ni3   1.940758 S    
C79   H55   1.109742 S    
C112  H64   1.078135 S    
C80   H56   1.111543 S    
C86   C94   1.406017 A    
C36   H20   1.079398 S    
C99   H79   1.081541 S    
O14   H87   1.010090 S    
C10   H10   1.075357 S    
C131  O22   1.400917 S    
C30   N22   1.318695 A    
C61   C77   1.551743 S    
C5    H5    1.079170 S    
C43   C84   1.473230 S    
C62   H48   1.113115 S    
C6    N6    1.341611 A    
C64   H44   1.112610 S    
C34   C41   1.381047 A    
C1    C17   1.363737 A    
C58   C66   1.540863 S    
C3    C19   1.365496 A    
C129  O18   1.400013 S    
C115  H67   1.079202 S    
C13   N13   1.324310 A    
C91   C95   1.395141 A    
C113  H65   1.076576 S    
C25   C41   1.396881 A    
O40   H96   1.013898 S    
C49   H29   1.115469 S    
O22   H91   1.014069 S    
C81   C113  1.405210 A    
C24   C88   1.471422 S    
O10   H85   1.009611 S    
C9    N9    1.333802 A    
C2    N2    1.316842 A    
C40   N32   1.331783 A    
C109  H61   1.077952 S    
O18   H89   1.012854 S    
C36   N28   1.329135 A    
O12   H86   1.013056 S    
N31   Ni8   1.896408 S    
C7    H7    1.079273 S    
C1    H1    1.079811 S    
C72   C76   1.615600 S    
C57   C65   1.553733 S    
C34   N26   1.328295 A    
N11   Ni7   1.855425 S    
C26   H14   1.078293 S    
C12   C23   1.375166 A    
C53   C69   1.589459 S    
C63   H45   1.113240 S    
O2    H81   1.013807 S    
C20   C67   1.485080 S    
C51   C67   1.540061 S    
C91   C105  1.411062 A    
C49   C65   1.535279 S    
N37   O42   1.296075 A    
C47   C71   1.490037 S    
C98   H78   1.081225 S    
O20   H90   1.013922 S    
C58   C76   1.561227 S    
N4    Ni2   1.844386 S    
C46   C70   1.488253 S    
N20   Ni2   1.844260 S    
C35   C44   1.388617 A    
C128  O15   1.220190 D    
C54   C122  1.528127 S    
C99   C103  1.387607 A    
C95   H75   1.080123 S    
N36   O32   1.301549 A    
C119  H69   1.084143 S    
C93   H73   1.079153 S    
C29   N37   1.434676 S    
C133  O34   1.397812 S    
C26   C42   1.402457 A    
O36   H94   1.013988 S    
C116  C120  1.385315 A    
C59   C73   1.559660 S    
C38   C45   1.358201 A    
C1    N1    1.315913 A    
C64   C66   1.562654 S    
N21   N30   1.285279 A    
C10   C21   1.378347 A    
N35   O29   1.301474 A    
C52   C68   1.549212 S    
C25   H13   1.079805 S    
C61   H47   1.111866 S    
N5    N10   1.437523 A    
C96   H76   1.080783 S    
C84   C116  1.406377 A    
C28   H16   1.077660 S    
C87   C99   1.394371 A    
C32   N24   1.311188 A    
C100  H80   1.081132 S    
N20   N27   1.422970 A    
C132  O23   1.224154 D    
C115  C119  1.386301 A    
O24   H92   1.013929 S    
C101  C107  1.415725 A    
C29   C45   1.375603 A    
N21   Ni3   1.917668 S    
C31   C47   1.384163 A    
C122  O4    1.399099 S    
C69   C73   1.619793 S    
C70   C78   1.574666 S    
C37   H21   1.078556 S    
N6    Ni3   1.849694 S    
C52   H32   1.115242 S    
C44   C83   1.472487 S    
C92   C106  1.412925 A    
N17   Ni1   1.866163 S    
C8    C24   1.401292 A    
C56   H34   1.092336 S    
N29   Ni6   1.896408 S    
N23   N32   1.285279 A    
C26   N18   1.341132 A    
N23   Ni4   1.917668 S    
C120  H70   1.084213 S    
C62   H42   1.112999 S    
C35   N27   1.331508 A    
C136  O39   1.222447 D    
C124  O7    1.222135 D    
C89   C107  1.410704 A    
C29   N21   1.338206 A    
C31   N23   1.337118 A    
C23   C87   1.470602 S    
C80   H52   1.109951 S    
C12   N12   1.333418 A    
C134  O35   1.222914 D    
C34   H18   1.079569 S    
N32   Ni7   1.898356 S    
C86   C98   1.396955 A    
C13   C18   1.415992 A    
C77   H53   1.104186 S    
C83   C111  1.401167 A    
C15   C20   1.407631 A    
C30   N38   1.427223 S    
C16   C19   1.405200 A    
O38   H95   1.013766 S    
C6    H6    1.076866 S    
C4    H4    1.078041 S    
C60   C68   1.540130 S    
C61   H41   1.110115 S    
C135  O37   1.223399 D    
C2    C18   1.379886 A    
C59   C67   1.535617 S    
N1    N14   1.403926 A    
C64   C80   1.543084 S    
N34   O27   1.301142 A    
C14   N14   1.326044 A    
N4    N15   1.410543 A    
C18   C65   1.472783 S    
C13   C133  1.474352 S    
C121  O1    1.223773 D    
C81   C109  1.400124 A    
C38   N30   1.336398 A    
N15   Ni8   1.895628 S    
N24   N31   1.279346 A    
C10   N10   1.333290 A    
C40   H24   1.078672 S    
N30   Ni5   1.898356 S    
C53   C121  1.527293 S    
C127  O13   1.222232 D    
C108  C112  1.399948 A    
C7    N7    1.340765 A    
C8    N8    1.341695 A    
C102  C108  1.415461 A    
C75   C127  1.531875 S    
C2    H2    1.076856 S    
C25   N17   1.341631 A    
C84   C112  1.403002 A    
C54   C70   1.570647 S    
C123  O6    1.399073 S    
N8    N11   1.444289 A    
C17   C66   1.469923 S    
C62   C68   1.559570 S    
C50   C66   1.552762 S    
C126  O12   1.399677 S    
C113  C117  1.383257 A    
C15   N15   1.317484 A    
C131  O21   1.221661 D    
C27   N19   1.341859 A    
C121  O2    1.397651 S    
C89   C93   1.397429 A    
C105  C109  1.398706 A    
C92   N34   1.434816 S    
C83   C115  1.406582 A    
C129  O17   1.223445 D    
C21   C85   1.472906 S    
C97   C101  1.389548 A    
C50   H26   1.106640 S    
C5    C21   1.390846 A    
C90   C108  1.412710 A    
C104  C106  1.416798 A    
C130  O20   1.399876 S    
C71   C75   1.609969 S    
O8    H84   1.013938 S    
C58   H58   1.109579 S    
C55   C71   1.587346 S    
C11   C24   1.389155 A    
C56   C72   1.570309 S    
C4    C20   1.395216 A    
C73   C125  1.536549 S    
C63   C65   1.570000 S    
N6    N9    1.444289 A    
C19   C68   1.462175 S    
C87   C95   1.406888 A    
C85   C93   1.407272 A    
H38   C58   1.105871 S    
N40   O48   1.300281 A    
O4    H82   1.013910 S    
C49   C55   1.531761 S    
O6    H83   1.013757 S    
C51   C53   1.516777 S    
N12   Ni8   1.855226 S    
N38   O43   1.297535 A    
C117  H71   1.084309 S    
C33   C42   1.387540 A    
N33   O26   1.300930 A    
N37   O41   1.302881 A    
C114  H66   1.079660 S    
C90   C94   1.399124 A    
C50   H30   1.115672 S    
C57   H57   1.111782 S    
C88   C96   1.405530 A    
C82   C114  1.405624 A    
C52   C54   1.515046 S    
