data_mof_unit_18562.cif
_audit_creation_date              2013-03-05T16:43:03-0500
_audit_creation_method            fapswitch 2.2
_symmetry_space_group_name_H-M    P1
_symmetry_Int_Tables_number       1
_space_group_crystal_system       triclinic
_cell_length_a                    10.687555
_cell_length_b                    10.697271
_cell_length_c                    9.954324
_cell_angle_alpha                 88.450433
_cell_angle_beta                  88.781504
_cell_angle_gamma                 92.264093
_cell_volume                      1136.466229

loop_
_atom_site_label
_atom_site_type_symbol
_atom_site_description
_atom_site_fract_x
_atom_site_fract_y
_atom_site_fract_z
_atom_type_partial_charge
O1    O     O_R   0.500020 0.316790 0.614690 -0.621107
O2    O     O_R   0.500000 0.316760 0.385350 -0.575890
C1    C     C_R   0.513563 0.261720 0.500785 0.913979
O3    O     O_R   0.314800 0.500000 0.614670 -0.612661
O4    O     O_R   0.314790 0.499960 0.385330 -0.604638
C2    C     C_R   0.257093 0.499414 0.501254 0.907212
Zn1   Zn    Zn3+2 0.500010 0.500020 0.653130 1.061104
Zn2   Zn    Zn3+2 0.499990 0.499980 0.346870 1.069191
O5    O     O_R   0.500000 0.683240 0.614650 -0.586318
O6    O     O_R   0.499980 0.683210 0.385310 -0.567547
O7    O     O_R   0.685210 0.500040 0.614670 -0.563430
O8    O     O_R   0.685200 0.500000 0.385330 -0.600355
C3    C     C_R   0.495882 0.740503 0.497666 0.951429
C4    C     C_R   0.739846 0.485292 0.499711 0.886387
C5    C     C_3   0.062011 0.440140 0.643045 0.101906
H1    H     H_    0.113682 0.356706 0.672164 0.161605
C6    C     C_3   0.924914 0.397294 0.619521 0.096698
H2    H     H_    0.928454 0.300084 0.583212 0.166352
H3    H     H_    0.115524 0.701385 0.526801 0.259051
H4    H     H_    0.907589 0.659080 0.601207 0.266253
C7    C     C_3   0.068745 0.624933 0.471733 -0.386075
C8    C     C_3   0.070653 0.409135 0.385224 0.016167
C9    C     C_3   0.118848 0.493487 0.502979 -0.100537
H5    H     H_    0.112770 0.443588 0.288905 0.207179
C10   C     C_3   0.875214 0.480171 0.499720 -0.070051
C11   C     C_3   0.927137 0.618901 0.501490 -0.343489
C12   C     C_3   0.927317 0.420136 0.370667 -0.433273
H6    H     H_    0.881076 0.326754 0.355289 0.235461
H7    H     H_    0.908307 0.479733 0.280490 0.252420
H8    H     H_    0.086283 0.651240 0.363795 0.229471
H9    H     H_    0.881018 0.678254 0.424981 0.213893
C13   C     C_R   0.534902 0.060684 0.619100 0.010353
C14   C     C_R   0.543979 0.132175 0.500839 -0.243892
C15   C     C_R   0.565057 0.071914 0.378907 0.255963
C16   C     C_R   0.530130 0.945215 0.371449 0.266817
C17   C     C_R   0.504261 0.874963 0.492597 -0.227092
C18   C     C_R   0.512776 0.934371 0.614772 0.033716
C19   C     C_3   0.421974 0.934996 0.732121 0.092249
C20   C     C_3   0.456422 0.073089 0.742248 0.126680
H10   H     H_    0.448101 0.877381 0.820521 0.230349
H11   H     H_    0.377621 0.136049 0.728151 0.189391
C21   C     C_R   0.423285 0.420205 0.074985 0.143262
N1    N     N_R   0.499150 0.499140 0.142800 -0.144687
C22   C     C_R   0.586090 0.570813 0.067283 0.288764
C23   C     C_R   0.583451 0.574044 0.923648 0.314323
N2    N     N_R   0.499150 0.499180 0.857150 -0.188804
C24   C     C_R   0.432248 0.409620 0.933987 0.058947
C25   C     C_3   0.293964 0.383243 0.930576 0.043249
C26   C     C_3   0.284636 0.420567 0.075868 -0.004924
H12   H     H_    0.249564 0.443994 0.857284 0.201222
H13   H     H_    0.240168 0.348521 0.145470 0.204502
N3    N     N_R   0.069229 0.529833 0.754056 0.240482
O9    O     O_R   0.141181 0.630619 0.745299 -0.331190
O10   O     O_R   0.026315 0.495749 0.873222 -0.258245
Br1   Br    Br    0.645057 0.158458 0.225268 -0.296708
Br2   Br    Br    0.489509 0.884890 0.195877 -0.251122
Br3   Br    Br    0.248654 0.908313 0.680519 -0.318220
Br4   Br    Br    0.566335 0.109265 0.889465 -0.229753
Br5   Br    Br    0.714623 0.668745 0.152194 -0.287618
N4    N     N_R   0.670724 0.655163 0.849241 0.246264
O11   O     O_R   0.786811 0.624204 0.839025 -0.279699
O12   O     O_R   0.646161 0.772518 0.833358 -0.353801
N5    N     N_R   0.260493 0.249503 0.918287 0.208099
O13   O     O_R   0.304961 0.166992 0.001187 -0.295999
O14   O     O_R   0.167453 0.215074 0.844146 -0.329157
Br6   Br    Br    0.226192 0.590896 0.089343 -0.353260
Br7   Br    Br    0.823231 0.346575 0.780485 -0.256713
Br8   Br    Br    0.119351 0.234980 0.403942 -0.434137

loop_
_geom_bond_atom_site_label_1
_geom_bond_atom_site_label_2
_geom_bond_distance
_ccdc_geom_bond_type
O4    Zn2   2.008003 S    
Zn1   O7    2.008001 S    
N1    C22   1.378085 A    
N5    O14   1.298482 A    
C23   N4    1.429503 S    
C5    C6    1.542447 S    
C18   C19   1.503018 S    
C12   H7    1.113801 S    
C19   Br3   1.945047 S    
C7    H8    1.113415 S    
C16   C17   1.419821 A    
Zn2   N1    2.031851 S    
Zn2   O8    2.024094 S    
C6    C10   1.580273 S    
C13   C14   1.385883 A    
C25   H12   1.092349 S    
C14   C15   1.407702 A    
C10   C11   1.564405 S    
C11   H9    1.113837 S    
C20   H11   1.107841 S    
O1    Zn1   2.007195 S    
C5    N3    1.484171 S    
C22   C23   1.430176 A    
N4    O12   1.298826 A    
C19   H10   1.107650 S    
C8    Br8   1.959148 S    
C19   C20   1.514777 S    
H4    C11   1.111313 S    
O3    Zn1   2.024096 S    
C2    C9    1.476071 S    
C5    C9    1.591283 S    
C17   C18   1.390379 A    
H3    C7    1.105833 S    
C7    C11   1.534461 S    
N3    O10   1.300253 A    
C6    H2    1.111875 S    
O2    C1    1.290458 A    
C8    C12   1.550601 S    
C7    C9    1.550350 S    
C4    C10   1.449949 S    
O4    C2    1.296519 A    
Zn2   O6    2.007196 S    
O7    C4    1.289959 A    
C8    H5    1.098703 S    
C6    Br7   1.968512 S    
C10   C12   1.554106 S    
C26   Br6   1.956426 S    
C1    C14   1.435840 S    
C22   Br5   1.918988 S    
N5    O13   1.302439 A    
Zn1   N2    2.030482 S    
C15   Br1   1.931934 S    
C21   C24   1.412679 A    
N3    O9    1.299186 A    
C3    C17   1.437056 S    
O3    C2    1.297954 A    
C15   C16   1.395863 A    
C21   N1    1.351341 A    
C13   C20   1.482468 S    
C12   H6    1.112668 S    
Zn1   O5    1.986845 S    
O5    C3    1.303433 A    
N2    C24   1.377357 A    
C25   C26   1.513048 S    
C25   N5    1.469896 S    
C13   C18   1.364502 A    
C21   C26   1.481816 S    
C26   H13   1.108170 S    
C16   Br2   1.931446 S    
C23   N2    1.374156 A    
C20   Br4   1.935247 S    
C24   C25   1.494894 S    
C8    C9    1.581028 S    
O2    Zn2   1.986845 S    
C5    H1    1.103327 S    
O8    C4    1.299264 A    
N4    O11   1.299327 A    
O1    C1    1.299801 A    
O6    C3    1.290559 A    
