data_mof_unit_31438.cif
_audit_creation_date              2012-12-10T20:27:10-0500
_audit_creation_method            fapswitch 2.2
_symmetry_space_group_name_H-M    P1
_symmetry_Int_Tables_number       1
_space_group_crystal_system       triclinic
_cell_length_a                    10.823161
_cell_length_b                    10.649554
_cell_length_c                    9.923463
_cell_angle_alpha                 90.731182
_cell_angle_beta                  105.642016
_cell_angle_gamma                 90.47579
_cell_volume                      1101.26457499

loop_
_atom_site_label
_atom_site_type_symbol
_atom_type_description
_atom_site_fract_x
_atom_site_fract_y
_atom_site_fract_z
_atom_type_partial_charge
C1    C     C_R   0.499048 0.260504 0.499160 0.946499
C2    C     C_R   0.489863 0.128751 0.497763 -0.226225
C3    C     C_R   0.405969 0.064762 0.385471 -0.117150
C4    C     C_R   0.398562 0.934487 0.386244 0.438671
C5    C     C_R   0.480620 0.871013 0.500057 -0.206785
C6    C     C_R   0.548252 0.937815 0.618809 -0.166798
C7    C     C_3   0.684881 0.929074 0.707808 0.154024
C8    C     C_3   0.689426 0.072646 0.704690 0.757451
C9    C     C_R   0.400792 0.445960 0.041002 0.126950
C10   C     C_R   0.591218 0.563283 0.100923 -0.011293
C11   C     C_R   0.591739 0.564679 0.957438 0.011256
C12   C     C_R   0.259283 0.499782 0.439777 0.869038
C13   C     C_R   0.401595 0.444925 0.899208 0.072952
C14   C     C_3   0.354650 0.311719 0.875195 0.207773
C15   C     C_3   0.354121 0.311388 0.030834 0.174692
C16   C     C_R   0.495410 0.739406 0.499603 0.898350
C17   C     C_R   0.741647 0.495464 0.559879 0.786984
C18   C     C_2   0.123283 0.480226 0.401423 -0.364326
C19   C     C_2   0.054717 0.527363 0.483837 0.501364
C20   C     C_2   0.881880 0.495563 0.594685 0.270195
C21   C     C_2   0.936182 0.462527 0.491787 -0.093949
C22   C     C_R   0.552259 0.065710 0.617679 0.055249
H1    H     H_    0.664829 0.613140 0.179433 0.197599
H2    H     H_    0.088797 0.404513 0.326708 0.215044
H3    H     H_    0.346864 0.115443 0.297979 0.204616
H4    H     H_    0.691502 0.891430 0.813308 0.152538
N1    N     N_R   0.499160 0.499140 0.142600 -0.125623
N2    N     N_R   0.499160 0.499180 0.856960 -0.117181
O1    O     O_R   0.500020 0.316790 0.614700 -0.513162
O2    O     O_R   0.500000 0.316760 0.385350 -0.598701
O3    O     O_R   0.317820 0.500020 0.571850 -0.594201
O4    O     O_R   0.317800 0.499980 0.342510 -0.566363
O5    O     O_R   0.500000 0.683240 0.614650 -0.638342
O6    O     O_R   0.499980 0.683210 0.385300 -0.608285
O7    O     O_R   0.682200 0.500020 0.657490 -0.626055
O8    O     O_R   0.682180 0.499980 0.428150 -0.622673
Zn1   Zn    Zn3+2 0.500010 0.500020 0.653140 1.031954
Zn2   Zn    Zn3+2 0.499990 0.499980 0.346860 1.018713
C23   C     C_2   0.871202 0.367250 0.382447 0.358415
H5    H     H_    0.823975 0.286179 0.412569 0.095409
O9    O     O_2   0.862157 0.383268 0.258534 -0.524036
O10   O     O_3   0.776860 0.124893 0.637330 -0.751058
H6    H     H_    0.749276 0.101177 0.536546 0.304383
C24   C     C_2   0.693390 0.638106 0.919654 0.418482
H7    H     H_    0.682641 0.666989 0.813924 0.132971
O11   O     O_2   0.791061 0.669992 0.008340 -0.541848
C25   C     C_2   0.226286 0.302932 0.766377 0.388247
H8    H     H_    0.148762 0.364286 0.773857 0.111505
O12   O     O_2   0.208785 0.228255 0.668475 -0.537686
O13   O     O_3   0.447370 0.232317 0.845865 -0.641446
H9    H     H_    0.417892 0.144931 0.854146 0.377570
C26   C     C_2   0.223807 0.293958 0.056582 0.393308
H10   H     H_    0.181985 0.200353 0.049477 0.107446
O14   O     O_2   0.163756 0.383111 0.083309 -0.539513
O15   O     O_3   0.443862 0.228788 0.113128 -0.741904
H11   H     H_    0.531297 0.252408 0.107469 0.388149
O16   O     O_3   0.095408 0.633753 0.567165 -0.655708
H12   H     H_    0.155458 0.683768 0.528752 0.326346
O17   O     O_3   0.955235 0.549553 0.718447 -0.660556
H13   H     H_    0.897950 0.575292 0.776318 0.373973
O18   O     O_3   0.313655 0.874307 0.274611 -0.719900
H14   H     H_    0.294056 0.789497 0.303572 0.341201
O19   O     O_3   0.769395 0.869180 0.642034 -0.704393
H15   H     H_    0.741881 0.885700 0.540153 0.342996
O20   O     O_3   0.700271 0.129191 0.835705 -0.697795
H16   H     H_    0.789885 0.115636 0.891800 0.360645

loop_
_geom_bond_atom_site_label_1
_geom_bond_atom_site_label_2
_ccdc_geom_bond_type
C10   N1    A    
C2    C22   A    
C8    C22   S    
O15   H11   S    
C13   N2    A    
C6    C7    S    
C17   O8    A    
O4    Zn2   S    
C10   H1    S    
C25   H8    S    
C21   C23   S    
C3    H3    S    
C26   H10   S    
O8    Zn2   S    
O13   H9    S    
C9    C15   S    
C15   C26   S    
C7    C8    S    
C25   O12   D    
O17   H13   S    
C14   O13   S    
C13   C14   S    
C12   O4    A    
C20   O17   S    
C7    O19   S    
O16   H12   S    
O18   H14   S    
C7    H4    S    
N2    Zn1   S    
C18   H2    S    
C11   N2    A    
C1    O1    A    
C1    O2    A    
C19   C21   S    
C8    O10   S    
C2    C3    A    
O20   H16   S    
C12   O3    A    
C5    C6    A    
C16   O5    A    
O5    Zn1   S    
C10   C11   A    
N1    Zn2   S    
O1    Zn1   S    
O19   H15   S    
C6    C22   A    
C11   C24   S    
C8    O20   S    
C17   C20   S    
C20   C21   D    
C9    N1    A    
C23   O9    D    
C1    C2    S    
O10   H6    S    
C12   C18   S    
C23   H5    S    
C9    C13   A    
C14   C15   S    
C18   C19   D    
C5    C16   S    
C17   O7    A    
O2    Zn2   S    
C16   O6    A    
O6    Zn2   S    
C14   C25   S    
C4    O18   S    
C24   O11   D    
C19   O16   S    
C24   H7    S    
O3    Zn1   S    
O7    Zn1   S    
C26   O14   D    
C4    C5    A    
C3    C4    A    
C15   O15   S    
