data_mof_unit_26727.cif
_audit_creation_date              2012-12-10T21:32:46-0500
_audit_creation_method            fapswitch 2.2
_symmetry_space_group_name_H-M    P1
_symmetry_Int_Tables_number       1
_space_group_crystal_system       triclinic
_cell_length_a                    11.528248
_cell_length_b                    16.162874
_cell_length_c                    16.748383
_cell_angle_alpha                 89.548451
_cell_angle_beta                  91.341723
_cell_angle_gamma                 93.05465
_cell_volume                      3115.36261363

loop_
_atom_site_label
_atom_site_type_symbol
_atom_type_description
_atom_site_fract_x
_atom_site_fract_y
_atom_site_fract_z
_atom_type_partial_charge
C1    C     C_R   0.499314 0.490297 0.652691 0.950323
C2    C     C_R   0.503602 0.509697 0.346086 0.891315
C3    C     C_R   0.575304 0.451512 0.786264 -0.010855
C4    C     C_R   0.529782 0.585591 0.214647 0.005842
C5    C     C_R   0.435097 0.756459 0.464123 -0.125852
C6    C     C_R   0.563003 0.243452 0.537992 -0.105197
C7    C     C_R   0.436488 0.843492 0.459566 -0.030523
C8    C     C_R   0.552922 0.156659 0.550395 -0.010453
C9    C     C_R   0.522132 0.891335 0.504279 0.208250
C10   C     C_R   0.469218 0.108250 0.504585 0.155765
C11   C     C_R   0.603070 0.848587 0.551591 0.057394
C12   C     C_R   0.391973 0.150808 0.454239 0.085786
C13   C     C_R   0.597658 0.760171 0.553265 0.272383
C14   C     C_R   0.397953 0.238521 0.451259 0.290181
C15   C     C_R   0.718246 0.500331 0.499605 0.902977
C16   C     C_R   0.281736 0.499745 0.499950 0.931649
C17   C     C_1   0.838582 0.500942 0.498549 -0.204020
C18   C     C_1   0.161349 0.499508 0.499421 -0.210677
C19   C     C_1   0.940714 0.500780 0.498263 -0.016470
C20   C     C_1   0.059220 0.500023 0.498791 -0.015203
C21   C     C_R   0.487958 0.486199 0.738287 -0.178753
C22   C     C_R   0.492577 0.513369 0.257983 -0.220841
C23   C     C_R   0.385376 0.513732 0.770996 0.078062
C24   C     C_R   0.430538 0.447146 0.217612 0.139460
C25   C     C_R   0.367765 0.504182 0.853168 0.156416
C26   C     C_R   0.385844 0.459607 0.140415 0.137413
C27   C     C_R   0.457813 0.474125 0.902072 0.140945
C28   C     C_R   0.418541 0.532659 0.098625 0.111324
C29   C     C_R   0.558370 0.444422 0.868755 0.150489
C30   C     C_R   0.487031 0.596299 0.135929 0.157029
H1    H     H_    0.628016 0.280562 0.571299 0.156406
H2    H     H_    0.371955 0.719477 0.429005 0.168080
N1    N     N_2   0.452949 0.474056 0.985911 -0.159806
N2    N     N_2   0.406925 0.534694 0.014764 -0.148221
N3    N     N_R   0.513820 0.716920 0.509720 -0.127192
N4    N     N_R   0.486180 0.283080 0.490280 -0.143599
N5    N     N_2   0.538531 0.980044 0.496093 -0.159741
N6    N     N_2   0.452267 0.019658 0.513650 -0.186811
O1    O     O_R   0.495050 0.422540 0.612660 -0.626278
O2    O     O_R   0.504950 0.577460 0.387340 -0.632960
O3    O     O_R   0.503930 0.561840 0.618900 -0.606563
O4    O     O_R   0.496070 0.438160 0.381100 -0.599117
O5    O     O_R   0.661110 0.430350 0.496870 -0.623168
O6    O     O_R   0.338890 0.569650 0.503130 -0.610525
O7    O     O_R   0.669990 0.569650 0.503110 -0.591746
O8    O     O_R   0.330010 0.430350 0.496890 -0.621018
Zn1   Zn    Zn3+2 0.494070 0.406980 0.495830 0.933149
Zn2   Zn    Zn3+2 0.505930 0.593020 0.504170 0.939686
N7    N     N_2   0.414290 0.367589 0.254323 -0.287231
H3    H     H_    0.337866 0.334525 0.239940 0.243687
C31   C     C_3   0.515439 0.317800 0.254913 -0.731903
H4    H     H_    0.529348 0.292460 0.194904 0.219285
H5    H     H_    0.502478 0.265192 0.297169 0.229547
H6    H     H_    0.595036 0.354725 0.274296 0.248724
N8    N     N_2   0.298236 0.546726 0.719755 -0.300620
H7    H     H_    0.214948 0.523081 0.729465 0.228272
C32   C     C_3   0.304914 0.636148 0.711389 -0.749179
H8    H     H_    0.277908 0.665885 0.766937 0.208469
H9    H     H_    0.246165 0.654422 0.661588 0.238151
H10   H     H_    0.394527 0.659782 0.697964 0.260350
N9    N     N_2   0.305605 0.399485 0.104824 -0.303333
H11   H     H_    0.242632 0.423687 0.068131 0.244737
C33   C     C_3   0.353084 0.325015 0.074192 -0.767320
H12   H     H_    0.319571 0.270484 0.108918 0.234541
H13   H     H_    0.449392 0.328499 0.077335 0.247520
H14   H     H_    0.326199 0.315847 0.010690 0.226576
N10   N     N_2   0.259732 0.522401 0.886996 -0.280144
H15   H     H_    0.222387 0.574307 0.864342 0.230268
C34   C     C_3   0.177492 0.451960 0.892700 -0.809599
H16   H     H_    0.217639 0.399686 0.924123 0.250748
H17   H     H_    0.101237 0.469501 0.926831 0.238964
H18   H     H_    0.147285 0.431361 0.832263 0.226530
N11   N     N_2   0.645342 0.410282 0.919157 -0.300428
H19   H     H_    0.660624 0.440513 0.972678 0.236140
C35   C     C_3   0.631959 0.321281 0.928884 -0.821150
H20   H     H_    0.549932 0.303874 0.959569 0.243376
H21   H     H_    0.706088 0.299033 0.965092 0.239742
H22   H     H_    0.630409 0.290225 0.869964 0.245244
N12   N     N_2   0.518196 0.670200 0.092750 -0.303081
H23   H     H_    0.542185 0.660809 0.034717 0.233485
C36   C     C_3   0.435411 0.733864 0.098622 -0.799542
H24   H     H_    0.351434 0.713180 0.069325 0.243745
H25   H     H_    0.469703 0.791138 0.068385 0.237653
H26   H     H_    0.420781 0.748510 0.162207 0.239561
C37   C     C_3   0.689779 0.428175 0.750822 -0.395093
C38   C     C_3   0.768352 0.505626 0.733609 -0.351192
C39   C     C_3   0.889884 0.482464 0.710920 -0.892991
H27   H     H_    0.934094 0.452857 0.762495 0.260543
H28   H     H_    0.884840 0.438793 0.659987 0.267760
H29   H     H_    0.942270 0.539094 0.693450 0.252405
H30   H     H_    0.730224 0.541937 0.683933 0.223189
H31   H     H_    0.775927 0.545524 0.787462 0.229238
H32   H     H_    0.737799 0.387140 0.791639 0.239423
H33   H     H_    0.673611 0.391756 0.695406 0.190291
C40   C     C_3   0.625346 0.646647 0.246445 -0.352505
C41   C     C_3   0.739925 0.636582 0.203294 -0.352442
C42   C     C_3   0.836656 0.695559 0.236741 -0.892896
H34   H     H_    0.812578 0.760853 0.229229 0.265076
H35   H     H_    0.852949 0.682488 0.301148 0.262493
H36   H     H_    0.917979 0.687152 0.204198 0.251434
H37   H     H_    0.766618 0.571828 0.210977 0.217266
H38   H     H_    0.729285 0.649171 0.138380 0.237903
H39   H     H_    0.597389 0.711064 0.239299 0.214634
H40   H     H_    0.645659 0.638002 0.310508 0.220375
C43   C     C_3   0.625563 0.120317 0.617070 -0.386516
C44   C     C_3   0.594782 0.155718 0.698493 -0.353694
C45   C     C_3   0.659738 0.114525 0.767135 -0.902480
H41   H     H_    0.629404 0.048530 0.772750 0.263648
H42   H     H_    0.754837 0.119052 0.757337 0.264540
H43   H     H_    0.642176 0.145788 0.824015 0.250169
H44   H     H_    0.617571 0.223349 0.700354 0.214905
H45   H     H_    0.499803 0.146047 0.707770 0.231581
H46   H     H_    0.611568 0.052322 0.620022 0.260340
H47   H     H_    0.719060 0.134546 0.605392 0.196446
C46   C     C_3   0.349214 0.880252 0.402960 -0.398002
C47   C     C_3   0.227023 0.872784 0.438097 -0.334904
C48   C     C_3   0.133339 0.893012 0.376170 -0.899745
H48   H     H_    0.147060 0.957369 0.353820 0.264684
H49   H     H_    0.134152 0.849578 0.325136 0.263030
H50   H     H_    0.046691 0.886604 0.403837 0.250648
H51   H     H_    0.207358 0.808580 0.460049 0.222991
H52   H     H_    0.223063 0.915241 0.489718 0.222433
H53   H     H_    0.374277 0.945283 0.388446 0.226174
H54   H     H_    0.349309 0.846423 0.345352 0.193120
N13   N     N_2   0.690870 0.895668 0.594904 -0.294105
H55   H     H_    0.774528 0.885034 0.579191 0.236445
C49   C     C_3   0.675009 0.900065 0.680114 -0.828922
H56   H     H_    0.585752 0.918259 0.692946 0.250015
H57   H     H_    0.738583 0.947093 0.705793 0.244207
H58   H     H_    0.690501 0.839884 0.709436 0.236970
N14   N     N_2   0.304625 0.106569 0.407823 -0.291245
H59   H     H_    0.272766 0.051775 0.432437 0.241684
C50   C     C_3   0.328209 0.102481 0.323445 -0.796483
H60   H     H_    0.255843 0.067430 0.291902 0.231887
H61   H     H_    0.410237 0.071156 0.314066 0.232288
H62   H     H_    0.335345 0.165535 0.296792 0.258671
N15   N     N_2   0.675201 0.714822 0.601718 -0.262199
H63   H     H_    0.655708 0.709181 0.661284 0.205146
C51   C     C_3   0.797352 0.719996 0.583015 -0.773906
H64   H     H_    0.832545 0.657730 0.589609 0.251150
H65   H     H_    0.846178 0.761879 0.625586 0.218216
H66   H     H_    0.811256 0.742065 0.520736 0.233841
N16   N     N_2   0.310092 0.279875 0.408070 -0.297243
H67   H     H_    0.330904 0.338819 0.388601 0.280860
C52   C     C_3   0.191250 0.265980 0.433789 -0.735375
H68   H     H_    0.154437 0.325712 0.449115 0.235304
H69   H     H_    0.185080 0.224716 0.487140 0.236448
H70   H     H_    0.137846 0.237479 0.384263 0.245554

loop_
_geom_bond_atom_site_label_1
_geom_bond_atom_site_label_2
_ccdc_geom_bond_type
O6    Zn2   S    
N8    H7    S    
C33   H13   S    
C1    C21   S    
C12   N14   S    
C41   H38   S    
C3    C37   S    
N11   C35   S    
N11   H19   S    
C40   C41   S    
C25   N10   S    
C39   H27   S    
C8    C43   S    
C36   H26   S    
C42   H34   S    
C44   H45   S    
C37   C38   S    
C27   N1    S    
N15   C51   S    
C47   H52   S    
C43   H46   S    
C11   N13   S    
C26   N9    S    
C24   C26   A    
C13   N3    A    
C38   H30   S    
C48   H49   S    
C14   N4    A    
C51   H66   S    
C32   H9    S    
C29   N11   S    
C44   C45   S    
C15   C17   S    
C46   C47   S    
C11   C13   A    
C47   C48   S    
N4    Zn1   S    
C3    C29   A    
C7    C46   S    
C34   H17   S    
O2    Zn2   S    
C42   H35   S    
C14   N16   S    
C37   H32   S    
C19   C20   S    
N7    C31   S    
C2    C22   S    
C50   H62   S    
C45   H41   S    
C16   O6    A    
C9    C11   A    
C5    H2    S    
C6    H1    S    
C33   H14   S    
C28   N2    S    
C41   H37   S    
C45   H42   S    
C34   H16   S    
N3    Zn2   S    
C52   H69   S    
C40   H39   S    
C36   H24   S    
C44   H44   S    
C46   H53   S    
C47   H51   S    
N10   H15   S    
C43   H47   S    
C48   H50   S    
C16   O8    A    
C5    C7    A    
C38   C39   S    
C32   H10   S    
C6    C8    A    
C31   H4    S    
C31   H5    S    
C13   N15   S    
C34   H18   S    
C35   H20   S    
C49   H57   S    
N5    N6    D    
C2    O2    A    
C4    C40   S    
C4    C22   A    
C37   H33   S    
C41   C42   S    
C9    N5    S    
N1    N2    D    
C16   C18   S    
N13   C49   S    
C35   H21   S    
C10   C12   A    
C30   N12   S    
C1    O3    A    
C12   C14   A    
C21   C23   A    
C50   H60   S    
C45   H43   S    
C22   C24   A    
C3    C21   A    
C15   O7    A    
C49   H56   S    
C52   H68   S    
C42   H36   S    
C52   H70   S    
O1    Zn1   S    
N15   H63   S    
O7    Zn2   S    
C24   N7    S    
N16   C52   S    
O8    Zn1   S    
C46   H54   S    
N9    C33   S    
C33   H12   S    
N14   C50   S    
C36   H25   S    
C51   H64   S    
N12   C36   S    
C23   N8    S    
C25   C27   A    
C43   C44   S    
C26   C28   A    
C10   N6    S    
C31   H6    S    
N8    C32   S    
C49   H58   S    
C15   O5    A    
C38   H31   S    
N14   H59   S    
C40   H40   S    
C51   H65   S    
C32   H8    S    
N13   H55   S    
C27   C29   A    
C2    O4    A    
C5    N3    A    
C28   C30   A    
C17   C19   T    
O3    Zn2   S    
C6    N4    A    
C18   C20   T    
O4    Zn1   S    
C23   C25   A    
N9    H11   S    
C35   H22   S    
C1    O1    A    
N12   H23   S    
C7    C9    A    
C8    C10   A    
N7    H3    S    
C39   H29   S    
C50   H61   S    
C39   H28   S    
N10   C34   S    
C48   H48   S    
O5    Zn1   S    
C4    C30   A    
N16   H67   S    
