data_mof_unit_65327.cif
_audit_creation_date              2013-03-05T16:01:29-0500
_audit_creation_method            fapswitch 2.2
_symmetry_space_group_name_H-M    P1
_symmetry_Int_Tables_number       1
_space_group_crystal_system       triclinic
_cell_length_a                    21.449736
_cell_length_b                    29.186612
_cell_length_c                    29.186943
_cell_angle_alpha                 90.000033
_cell_angle_beta                  90.111169
_cell_angle_gamma                 89.949423
_cell_volume                      18272.3017818

loop_
_atom_site_label
_atom_site_type_symbol
_atom_site_description
_atom_site_fract_x
_atom_site_fract_y
_atom_site_fract_z
_atom_type_partial_charge
O1    O     O_R   1.000000 0.964340 0.063140 -0.585204
O2    O     O_R   0.000000 0.964340 0.936860 -0.588186
O3    O     O_R   0.500000 0.464340 0.563140 -0.583404
O4    O     O_R   0.500000 0.464340 0.436860 -0.589667
O5    O     O_R   1.000000 0.035640 0.063120 -0.606628
O6    O     O_R   0.000000 0.035640 0.936880 -0.602613
O7    O     O_R   0.500000 0.535640 0.563120 -0.608136
O8    O     O_R   0.500000 0.535640 0.436880 -0.602966
C1    C     C_R   0.000005 0.999995 0.086744 0.897821
C2    C     C_R   0.999989 0.999995 0.913257 0.897992
C3    C     C_R   0.500003 0.499995 0.586744 0.896542
C4    C     C_R   0.499997 0.499995 0.413256 0.892728
O9    O     O_R   0.093030 0.964340 0.000000 -0.580198
O10   O     O_R   0.906970 0.964340 0.000000 -0.579291
O11   O     O_R   0.593030 0.464340 0.500000 -0.578982
O12   O     O_R   0.406970 0.464340 0.500000 -0.578543
O13   O     O_R   0.093040 0.035640 0.000000 -0.614378
O14   O     O_R   0.906960 0.035640 0.000000 -0.618167
O15   O     O_R   0.593040 0.535640 0.500000 -0.613479
O16   O     O_R   0.406960 0.535640 0.500000 -0.613202
C5    C     C_R   0.122570 0.999897 0.999559 0.995721
C6    C     C_R   0.877517 0.999984 0.001550 1.002301
C7    C     C_R   0.622578 0.499880 0.500232 0.994631
C8    C     C_R   0.377420 0.499906 0.500191 0.993881
Zn1   Zn    Zn3+2 1.000000 0.952380 0.000000 1.112080
Zn2   Zn    Zn3+2 0.500000 0.452380 0.500000 1.113452
Zn3   Zn    Zn3+2 0.000000 0.047600 0.000000 1.040502
Zn4   Zn    Zn3+2 0.500000 0.547600 0.500000 1.041498
C9    C     C_3   0.228588 0.010371 0.042309 -0.282564
C10   C     C_3   0.772022 0.998954 0.956951 -0.289607
C11   C     C_3   0.771298 0.038532 0.022305 -0.284900
C12   C     C_3   0.228306 0.031524 0.968853 -0.285462
C13   C     C_3   0.728590 0.528272 0.533766 -0.286032
C14   C     C_3   0.271318 0.517285 0.459846 -0.283404
C15   C     C_3   0.271512 0.525763 0.535821 -0.285620
C16   C     C_3   0.728361 0.514297 0.458611 -0.282845
C17   C     C_3   0.269147 0.040960 0.011359 0.312737
C18   C     C_3   0.730843 0.036431 0.978680 0.303881
C19   C     C_3   0.769192 0.541713 0.492347 0.315464
C20   C     C_3   0.230601 0.542145 0.495510 0.316940
H1    H     H_    0.210412 0.018964 0.076852 0.201827
H2    H     H_    0.790422 0.998304 0.921429 0.194247
H3    H     H_    0.789069 0.069863 0.039482 0.213541
H4    H     H_    0.209961 0.057239 0.944235 0.210150
H5    H     H_    0.710451 0.551504 0.560764 0.208091
H6    H     H_    0.289419 0.531636 0.427254 0.203819
H7    H     H_    0.289752 0.546978 0.564428 0.206924
H8    H     H_    0.709995 0.526216 0.425071 0.202859
C21   C     C_3   0.310940 0.000158 0.999550 -0.357330
C22   C     C_3   0.689117 0.999889 0.000439 -0.356181
C23   C     C_3   0.810954 0.499914 0.500131 -0.357239
C24   C     C_3   0.189036 0.499858 0.500251 -0.357208
C25   C     C_3   0.270082 0.969175 0.029098 0.216967
C26   C     C_3   0.730742 0.962418 0.980127 0.223317
C27   C     C_3   0.730124 0.000807 0.043471 0.200624
C28   C     C_3   0.269721 0.989685 0.958018 0.210455
C29   C     C_3   0.769982 0.485529 0.540471 0.210056
C30   C     C_3   0.230063 0.474382 0.465902 0.212848
C31   C     C_3   0.230280 0.482607 0.539408 0.210462
C32   C     C_3   0.769841 0.471972 0.467753 0.214582
C33   C     C_3   0.229538 0.957834 0.987377 0.332326
C34   C     C_3   0.770986 0.962649 0.023593 0.329045
C35   C     C_3   0.729547 0.456702 0.508207 0.332412
C36   C     C_3   0.270630 0.456237 0.505125 0.332482
C37   C     C_3   0.188984 0.999589 0.999439 -0.251961
C38   C     C_3   0.811187 0.999917 0.001294 -0.238271
C39   C     C_3   0.688997 0.499487 0.500266 -0.252063
C40   C     C_3   0.310997 0.499524 0.500291 -0.252150
C41   C     C_1   0.999948 0.000002 0.137416 -0.161652
C42   C     C_1   0.000041 0.000003 0.862584 -0.167660
C43   C     C_1   0.499962 0.500003 0.637417 -0.164380
C44   C     C_1   0.500039 0.500004 0.362583 -0.170306
C45   C     C_1   0.999902 0.000001 0.179618 0.044107
C46   C     C_1   0.000086 0.000004 0.820382 0.040888
C47   C     C_1   0.499922 0.500003 0.679618 0.043751
C48   C     C_1   0.500078 0.500005 0.320382 0.039604
C49   C     C_1   0.999856 0.999998 0.229444 0.044397
C50   C     C_1   0.000133 0.000002 0.770556 0.041918
C51   C     C_1   0.499877 0.500000 0.729445 0.044222
C52   C     C_1   0.500123 0.500003 0.270555 0.041337
C53   C     C_1   0.999830 0.999996 0.271647 0.039040
C54   C     C_1   0.000162 1.000000 0.728353 0.037057
C55   C     C_1   0.499847 0.499997 0.771647 0.038748
C56   C     C_1   0.500153 0.500000 0.228353 0.036798
C57   C     C_1   0.999822 0.999993 0.321474 0.031386
C58   C     C_1   0.000174 0.999996 0.678526 0.029932
C59   C     C_1   0.499831 0.499994 0.821474 0.031088
C60   C     C_1   0.500169 0.499997 0.178525 0.029829
C61   C     C_1   0.999848 0.999992 0.363678 -0.172547
C62   C     C_1   0.000151 0.999993 0.636322 -0.173665
C63   C     C_1   0.499851 0.499992 0.863678 -0.172936
C64   C     C_1   0.500149 0.499993 0.136322 -0.173793
O17   O     O_R   0.500000 0.063090 0.964350 -0.593764
O18   O     O_R   0.500000 0.063090 0.035650 -0.599019
O19   O     O_R   0.000000 0.563090 0.464350 -0.591397
O20   O     O_R   0.000000 0.563090 0.535650 -0.610602
C65   C     C_R   0.500125 0.086704 0.999998 0.957657
C66   C     C_R   0.999950 0.586703 0.500003 0.980859
O21   O     O_R   0.406990 0.999940 0.964350 -0.595691
O22   O     O_R   0.593010 0.999940 0.035650 -0.597065
O23   O     O_R   0.593010 0.999940 0.964350 -0.575529
O24   O     O_R   0.406990 0.999940 0.035650 -0.589535
O25   O     O_R   0.906990 0.499940 0.464350 -0.592325
O26   O     O_R   0.093010 0.499940 0.535650 -0.593727
O27   O     O_R   0.093010 0.499940 0.464350 -0.593039
O28   O     O_R   0.906990 0.499940 0.535650 -0.594013
C67   C     C_R   0.377447 0.999797 0.999896 1.043967
C68   C     C_R   0.622572 0.000000 0.000108 1.050725
C69   C     C_R   0.877454 0.499493 0.500005 1.046423
C70   C     C_R   0.122543 0.499328 0.500065 1.047640
Zn5   Zn    Zn3+2 0.500000 0.999950 0.952390 1.134232
Zn6   Zn    Zn3+2 0.500000 0.999950 0.047610 1.130524
Zn7   Zn    Zn3+2 0.000000 0.499950 0.452390 1.126694
Zn8   Zn    Zn3+2 1.000000 0.499950 0.547610 1.128340
O29   O     O_R   0.500000 0.936790 0.964340 -0.584945
O30   O     O_R   0.500000 0.936790 0.035660 -0.595065
O31   O     O_R   0.000000 0.436790 0.464340 -0.588809
O32   O     O_R   0.000000 0.436790 0.535660 -0.589079
C71   C     C_R   0.499934 0.913188 0.000001 0.949763
C72   C     C_R   1.000000 0.413187 0.499999 0.937034
O33   O     O_R   0.052540 0.063140 0.500000 -0.585546
O34   O     O_R   0.947460 0.063140 0.500000 -0.585479
O35   O     O_R   0.552540 0.563140 0.000000 -0.585759
O36   O     O_R   0.447460 0.563140 0.000000 -0.585717
C73   C     C_R   0.999976 0.085620 0.499999 0.871322
C74   C     C_R   0.499976 0.585620 1.000000 0.871128
O37   O     O_R   0.052540 0.999990 0.436840 -0.586410
O38   O     O_R   0.947460 0.999990 0.563160 -0.586836
O39   O     O_R   0.947460 0.999990 0.436840 -0.585262
O40   O     O_R   0.052540 0.999990 0.563160 -0.585566
O41   O     O_R   0.552540 0.499990 0.936840 -0.585784
O42   O     O_R   0.447460 0.499990 0.063160 -0.585966
O43   O     O_R   0.447460 0.499990 0.936840 -0.586058
O44   O     O_R   0.552540 0.499990 0.063160 -0.586479
C75   C     C_R   0.999947 0.999990 0.414357 0.871436
C76   C     C_R   0.000053 0.999990 0.585643 0.871008
C77   C     C_R   0.499947 0.499990 0.914357 0.871396
C78   C     C_R   0.500053 0.499990 0.085643 0.871213
Zn9   Zn    Zn3+2 0.070140 0.999990 0.500000 1.022159
Zn10  Zn    Zn3+2 0.929860 0.999990 0.500000 1.021950
Zn11  Zn    Zn3+2 0.570140 0.499990 0.000000 1.021067
Zn12  Zn    Zn3+2 0.429860 0.499990 0.000000 1.021736
O45   O     O_R   0.052520 0.936840 0.500000 -0.586036
O46   O     O_R   0.947480 0.936840 0.500000 -0.586209
O47   O     O_R   0.552520 0.436840 0.000000 -0.586376
O48   O     O_R   0.447480 0.436840 0.000000 -0.585841
C79   C     C_R   0.000024 0.914348 0.499999 0.871134
C80   C     C_R   0.500024 0.414348 0.999999 0.871503
C81   C     C_1   0.500124 0.137379 0.999993 -0.102004
C82   C     C_1   0.999966 0.637382 0.500004 -0.086041
C83   C     C_1   0.500115 0.179582 0.999991 0.056452
C84   C     C_1   0.999990 0.679584 0.500000 0.061167
C85   C     C_1   0.500107 0.229413 0.999991 0.048210
C86   C     C_1   0.000022 0.729415 0.499996 0.049487
C87   C     C_1   0.000046 0.771621 0.499995 0.042052
C88   C     C_1   0.500101 0.271620 0.999992 0.041204
C89   C     C_1   0.000066 0.821455 0.499996 0.031424
C90   C     C_1   0.500090 0.321454 0.999995 0.031286
C91   C     C_1   0.000064 0.863663 0.499998 -0.173250
C92   C     C_1   0.500072 0.363662 0.999997 -0.173256
C93   C     C_1   0.499933 0.862528 0.000000 -0.097337
C94   C     C_1   0.999978 0.362527 0.499994 -0.101029
C95   C     C_1   0.499928 0.820332 0.999999 0.066689
C96   C     C_1   0.999959 0.320332 0.499990 0.068168
C97   C     C_1   0.499920 0.770513 0.999998 0.055382
C98   C     C_1   0.999939 0.270513 0.499989 0.056830
C99   C     C_1   0.999926 0.228314 0.499990 0.046583
C100  C     C_1   0.499916 0.728315 0.999998 0.045495
C101  C     C_1   0.999921 0.178492 0.499993 0.034589
C102  C     C_1   0.499916 0.678493 0.999999 0.033574
C103  C     C_1   0.999931 0.136292 0.499996 -0.171137
C104  C     C_1   0.499930 0.636293 0.999999 -0.172015
N1    N     N_R   0.290027 0.086635 0.024415 0.236031
O49   O     O_R   0.349099 0.096373 0.026392 -0.406449
O50   O     O_R   0.249134 0.118163 0.033794 -0.342697
N2    N     N_R   0.710340 0.077285 0.954159 0.235097
O51   O     O_R   0.751538 0.104616 0.936348 -0.344681
O52   O     O_R   0.651528 0.087774 0.951506 -0.393354
N3    N     N_R   0.790138 0.588386 0.483690 0.235929
O53   O     O_R   0.849239 0.598064 0.482115 -0.414476
O54   O     O_R   0.749300 0.620777 0.477604 -0.342819
N4    N     N_R   0.209427 0.589300 0.490264 0.236153
O55   O     O_R   0.250100 0.622095 0.486593 -0.342753
O56   O     O_R   0.150280 0.598988 0.489265 -0.416478
N5    N     N_R   0.294227 0.935208 0.061103 0.252244
O57   O     O_R   0.280586 0.937808 0.104413 -0.340059
O58   O     O_R   0.329678 0.902171 0.046435 -0.345785
N6    N     N_R   0.710185 0.920563 0.957422 0.249433
O59   O     O_R   0.751279 0.892589 0.940412 -0.313064
O60   O     O_R   0.651343 0.910142 0.955214 -0.384209
N7    N     N_R   0.707251 0.001225 0.090448 0.254616
O61   O     O_R   0.719563 0.035686 0.117201 -0.351076
O62   O     O_R   0.676434 0.966337 0.106337 -0.308935
N8    N     N_R   0.292702 0.977916 0.912575 0.255736
O63   O     O_R   0.279268 0.003734 0.877609 -0.348888
O64   O     O_R   0.325563 0.940929 0.906640 -0.314415
N9    N     N_R   0.793371 0.469395 0.584503 0.256103
O65   O     O_R   0.780033 0.491564 0.621871 -0.347377
O66   O     O_R   0.826824 0.432272 0.586673 -0.317058
N10   N     N_R   0.206283 0.446216 0.428580 0.254224
O67   O     O_R   0.219864 0.456203 0.386346 -0.342453
O68   O     O_R   0.171435 0.410873 0.437413 -0.335081
N11   N     N_R   0.207049 0.463315 0.582112 0.255855
O69   O     O_R   0.220668 0.482585 0.621030 -0.345996
O70   O     O_R   0.173204 0.426370 0.581485 -0.321457
N12   N     N_R   0.793625 0.441211 0.432588 0.253411
O71   O     O_R   0.779727 0.448033 0.389743 -0.341630
O72   O     O_R   0.828912 0.406770 0.443967 -0.339220
Cl1   Cl    Cl    0.203618 0.902081 0.971173 -0.451172
Cl2   Cl    Cl    0.798069 0.913447 0.053931 -0.456831
Cl3   Cl    Cl    0.703894 0.399594 0.518959 -0.448778
Cl4   Cl    Cl    0.296361 0.398464 0.511653 -0.448634

loop_
_geom_bond_atom_site_label_1
_geom_bond_atom_site_label_2
_geom_bond_distance
_ccdc_geom_bond_type
C11   C38   1.542303 S    
N8    O64   1.300529 A    
N11   O69   1.300347 A    
O43   C77   1.304220 A    
C61   C75   1.479154 S    
C59   C63   1.231799 T    
C87   C89   1.454489 S    
C13   H5    1.110309 S    
Zn12  O48   1.881158 S    
C19   C23   1.529594 S    
O3    C3    1.248026 A    
C52   C56   1.231755 T    
C64   C78   1.479151 S    
C71   C93   1.478594 S    
O19   C66   1.248130 A    
C9    H1    1.110283 S    
C96   C98   1.454051 S    
C21   C67   1.426605 S    
C43   C47   1.231738 T    
N1    O49   1.299996 A    
O7    C3    1.248100 A    
C10   C26   1.543607 S    
C30   N10   1.456439 S    
O43   Zn12  1.882423 S    
C13   C19   1.542240 S    
C11   H3    1.110293 S    
O28   Zn8   2.024681 S    
C32   C35   1.531120 S    
C14   C20   1.541173 S    
C36   C40   1.538888 S    
O27   Zn7   2.024679 S    
C95   C97   1.454048 S    
O27   C70   1.218879 A    
O37   C75   1.303988 A    
C81   C83   1.231765 T    
C3    C43   1.478986 S    
N5    O58   1.300494 A    
O42   C78   1.303979 A    
C27   C34   1.531466 S    
C17   C21   1.529670 S    
C10   C18   1.542496 S    
O9    Zn1   2.026075 S    
C15   C31   1.543370 S    
C80   C92   1.479349 S    
C7    C39   1.424700 S    
N9    O66   1.300531 A    
C25   N5    1.456325 S    
N4    O55   1.300230 A    
C6    C38   1.422789 S    
O33   C73   1.303993 A    
O39   C75   1.304214 A    
O24   Zn6   2.024681 S    
C90   C92   1.231911 T    
C60   C64   1.231793 T    
N6    O60   1.300014 A    
N10   O67   1.300325 A    
O20   C66   1.247995 A    
C19   N3    1.457003 S    
C42   C46   1.231738 T    
C41   C45   1.231735 T    
C23   C29   1.529557 S    
C49   C53   1.231754 T    
O4    C4    1.248032 A    
O48   C80   1.303804 A    
O41   Zn11  1.880987 S    
C44   C48   1.231738 T    
C5    C37   1.424592 S    
O23   C68   1.220157 A    
O11   C7    1.216094 A    
N8    O63   1.300332 A    
C4    C44   1.478992 S    
C15   H7    1.110309 S    
O12   C8    1.215809 A    
C26   N6    1.457975 S    
C14   H6    1.110304 S    
O1    Zn1   1.875633 S    
C101  C103  1.231681 T    
O36   Zn12  1.881728 S    
O37   Zn9   1.880987 S    
O46   C79   1.303788 A    
O40   Zn9   1.882420 S    
C93   C95   1.231544 T    
C29   C35   1.531352 S    
C94   C96   1.231550 T    
N1    O50   1.300222 A    
O42   Zn12  1.880985 S    
C35   C39   1.538461 S    
C16   C39   1.543559 S    
O22   C68   1.216855 A    
C34   C38   1.534321 S    
C12   C37   1.543180 S    
N7    O61   1.300274 A    
O13   Zn3   2.025677 S    
O16   C8    1.220839 A    
O24   C67   1.219846 A    
C28   N8    1.456838 S    
O1    C1    1.248021 A    
C99   C101  1.454130 S    
C58   C62   1.231799 T    
O31   C72   1.248102 A    
C14   C40   1.543348 S    
C32   N12   1.456348 S    
C57   C61   1.231796 T    
N12   O71   1.300289 A    
O11   Zn2   2.026075 S    
C33   Cl1   1.783608 S    
C26   C34   1.533106 S    
C30   C36   1.530861 S    
C54   C58   1.454322 S    
C35   Cl3   1.783763 S    
O13   C5    1.220061 A    
O7    Zn4   1.875057 S    
O35   C74   1.303997 A    
N6    O59   1.300208 A    
C27   N7    1.457215 S    
C89   C91   1.231908 T    
O15   C7    1.220499 A    
N7    O62   1.300480 A    
O5    C1    1.248115 A    
O41   C77   1.303979 A    
C24   C31   1.528889 S    
C33   C37   1.537900 S    
N11   O70   1.300536 A    
C50   C54   1.231755 T    
C18   N2    1.457832 S    
O6    Zn3   1.875059 S    
Zn8   O32   1.876135 S    
C24   C70   1.426374 S    
O8    C4    1.248091 A    
O21   Zn5   2.026016 S    
O35   Zn11  1.881075 S    
C56   C60   1.454319 S    
C34   Cl2   1.783339 S    
O9    C5    1.216493 A    
Zn9   O45   1.881812 S    
C22   C26   1.531358 S    
C12   C17   1.542259 S    
C85   C88   1.231859 T    
O15   Zn4   2.025677 S    
C86   C87   1.231851 T    
C10   C38   1.541862 S    
C24   C30   1.527966 S    
O17   Zn5   1.875613 S    
C9    C37   1.543557 S    
C2    C42   1.478990 S    
N10   O68   1.300522 A    
N2    O51   1.300200 A    
O38   C76   1.303983 A    
C84   C86   1.454384 S    
O22   Zn6   2.026013 S    
C97   C100  1.231628 T    
O29   C71   1.248145 A    
C98   C99   1.231629 T    
O8    Zn4   1.875059 S    
O26   Zn8   2.026013 S    
C48   C52   1.454285 S    
C25   C33   1.531350 S    
O2    C2    1.248022 A    
O39   Zn10  1.882423 S    
O17   C65   1.248022 A    
O45   C79   1.303912 A    
Zn6   O30   1.876135 S    
O47   C80   1.303899 A    
O21   C67   1.216756 A    
O26   C70   1.217718 A    
O36   C74   1.304099 A    
C79   C91   1.479340 S    
C66   C82   1.479128 S    
Zn7   O31   1.876135 S    
C63   C77   1.479151 S    
C13   C29   1.542793 S    
N4    O56   1.299845 A    
C29   N9    1.456756 S    
O14   C6    1.218677 A    
C10   H2    1.110229 S    
C22   C68   1.427377 S    
C16   C19   1.541016 S    
O40   C76   1.304216 A    
O14   Zn3   2.026286 S    
Zn10  O46   1.881158 S    
C1    C41   1.478975 S    
C16   C32   1.544664 S    
O12   Zn2   2.025470 S    
C55   C59   1.454319 S    
O44   C78   1.304220 A    
O4    Zn2   1.875636 S    
O30   C71   1.248103 A    
C20   N4    1.456881 S    
C18   C22   1.531598 S    
C72   C94   1.478594 S    
O23   Zn5   2.024679 S    
C21   C28   1.530002 S    
O16   Zn4   2.026286 S    
O3    Zn2   1.875633 S    
C22   C27   1.532201 S    
O18   C65   1.248119 A    
C11   C18   1.540712 S    
O25   C69   1.219477 A    
O10   C6    1.217527 A    
O34   C73   1.304099 A    
C88   C90   1.454500 S    
C15   C20   1.542159 S    
O38   Zn10  1.880985 S    
O34   Zn10  1.881728 S    
C31   C36   1.531274 S    
C13   C39   1.543097 S    
C20   C24   1.529631 S    
O44   Zn11  1.882420 S    
C51   C55   1.231755 T    
O5    Zn3   1.875057 S    
O33   Zn9   1.881075 S    
N5    O57   1.300273 A    
O25   Zn7   2.026016 S    
C9    C25   1.544652 S    
C15   C40   1.543204 S    
O19   Zn7   1.875613 S    
C21   C25   1.527701 S    
C100  C102  1.454135 S    
Zn11  O47   1.881812 S    
C62   C76   1.479154 S    
C16   H8    1.110289 S    
O2    Zn1   1.875636 S    
C82   C84   1.231743 T    
C83   C85   1.454413 S    
O10   Zn1   2.025470 S    
N9    O65   1.300340 A    
C73   C103  1.478958 S    
O32   C72   1.248157 A    
O20   Zn8   1.875612 S    
C74   C104  1.478964 S    
O6    C2    1.248091 A    
C8    C40   1.424818 S    
C17   N1    1.457173 S    
N3    O53   1.299917 A    
C31   N11   1.456629 S    
C12   H4    1.110314 S    
C45   C49   1.454283 S    
C23   C69   1.426461 S    
C46   C50   1.454286 S    
C9    C17   1.540908 S    
C14   C30   1.544302 S    
C65   C81   1.479034 S    
C28   C33   1.531565 S    
C36   Cl4   1.783856 S    
Zn5   O29   1.876135 S    
C23   C32   1.527682 S    
C102  C104  1.231686 T    
C11   C27   1.541991 S    
N12   O72   1.300510 A    
C47   C51   1.454283 S    
C12   C28   1.542568 S    
O18   Zn6   1.875612 S    
C53   C57   1.454322 S    
N2    O52   1.300013 A    
N3    O54   1.300225 A    
O28   C69   1.217108 A    
