data_mof_unit_56602.cif
_audit_creation_date              2012-12-10T18:19:53-0500
_audit_creation_method            fapswitch 2.2
_symmetry_space_group_name_H-M    P1
_symmetry_Int_Tables_number       1
_space_group_crystal_system       triclinic
_cell_length_a                    14.837312
_cell_length_b                    14.30339
_cell_length_c                    14.080008
_cell_angle_alpha                 90.05001
_cell_angle_beta                  86.95135
_cell_angle_gamma                 89.95005
_cell_volume                      2983.88228057

loop_
_atom_site_label
_atom_site_type_symbol
_atom_type_description
_atom_site_fract_x
_atom_site_fract_y
_atom_site_fract_z
_atom_type_partial_charge
C1    C     C_R   0.327153 0.500586 0.502215 0.864889
C2    C     C_R   0.672851 0.500475 0.497788 0.863997
C3    C     C_R   0.953182 0.525231 0.500123 -0.037164
C4    C     C_R   0.046840 0.526304 0.501024 -0.034276
C5    C     C_R   0.911216 0.530306 0.412175 0.031604
C6    C     C_R   0.088894 0.530449 0.588827 0.031271
C7    C     C_R   0.942303 0.528818 0.674833 0.170327
C8    C     C_R   0.058102 0.535681 0.326850 0.161107
C9    C     C_R   0.036407 0.539907 0.675065 0.124563
C10   C     C_R   0.963657 0.542336 0.326148 0.130634
C11   C     C_R   0.546547 0.799163 0.428858 0.042396
C12   C     C_R   0.436386 0.200892 0.554628 0.034402
C13   C     C_R   0.453599 0.799360 0.571249 0.041765
C14   C     C_R   0.563612 0.200749 0.445308 0.033381
C15   C     C_R   0.443284 0.899220 0.565382 -0.073733
C16   C     C_R   0.558850 0.100438 0.436167 -0.073065
C17   C     C_R   0.556981 0.898989 0.434817 -0.073633
C18   C     C_R   0.441410 0.100640 0.563959 -0.073188
C19   C     C_R   0.500152 0.949627 0.500108 0.034924
C20   C     C_R   0.500171 0.050179 0.500107 0.039283
C21   C     C_R   0.381477 0.950166 0.626506 -0.046429
C22   C     C_R   0.614205 0.048512 0.368621 -0.048990
C23   C     C_R   0.618822 0.949700 0.373727 -0.046295
C24   C     C_R   0.386044 0.048985 0.631514 -0.048796
C25   C     C_R   0.499559 0.499676 0.329615 0.883570
C26   C     C_R   0.500496 0.499740 0.670380 0.882672
C27   C     C_1   0.498296 0.497802 0.228166 -0.194094
C28   C     C_1   0.501963 0.497975 0.771813 -0.195730
C29   C     C_1   0.498161 0.495175 0.142768 -0.021947
C30   C     C_1   0.502260 0.495331 0.857196 -0.024553
C31   C     C_1   0.499493 0.493572 0.042725 -0.025087
C32   C     C_1   0.501041 0.493626 0.957229 -0.025867
C33   C     C_R   0.817686 0.522159 0.412754 -0.240617
C34   C     C_R   0.182545 0.522636 0.587905 -0.240392
C35   C     C_R   0.768590 0.504356 0.497659 -0.038254
C36   C     C_R   0.231422 0.504936 0.502698 -0.035672
C37   C     C_R   0.808421 0.506426 0.584395 -0.223718
C38   C     C_R   0.191394 0.508428 0.416115 -0.232178
C39   C     C_R   0.901195 0.518899 0.587257 0.049177
C40   C     C_R   0.098901 0.522957 0.413931 0.055709
H1    H     H_    0.782596 0.525128 0.347367 0.136233
H2    H     H_    0.217762 0.524790 0.653246 0.135511
H3    H     H_    0.765796 0.500572 0.648988 0.163464
H4    H     H_    0.233258 0.501630 0.350929 0.159616
N1    N     N_R   0.500000 0.750030 0.500000 -0.132027
N2    N     N_R   0.500000 0.249970 0.500000 -0.132206
O1    O     O_R   0.367850 0.580280 0.500020 -0.628398
O2    O     O_R   0.632150 0.419720 0.499980 -0.596068
O3    O     O_R   0.632150 0.580280 0.499980 -0.627165
O4    O     O_R   0.367850 0.419720 0.500020 -0.595886
O5    O     O_R   0.500000 0.580290 0.373720 -0.584645
O6    O     O_R   0.500000 0.419710 0.626280 -0.617406
O7    O     O_R   0.500000 0.580290 0.626280 -0.584189
O8    O     O_R   0.500000 0.419710 0.373720 -0.617074
Zn1   Zn    Zn3+2 0.500000 0.607200 0.500000 0.936112
Zn2   Zn    Zn3+2 0.500000 0.392800 0.500000 0.932238
N3    N     N_2   0.888357 0.534793 0.761694 -0.298347
H5    H     H_    0.909068 0.582402 0.811047 0.249447
C41   C     C_3   0.857052 0.446844 0.802499 -0.828879
H6    H     H_    0.894104 0.430594 0.866959 0.237461
H7    H     H_    0.866386 0.387946 0.751234 0.242138
H8    H     H_    0.784135 0.452804 0.823586 0.244686
N4    N     N_2   0.112751 0.547644 0.241254 -0.306976
H9    H     H_    0.087832 0.517434 0.181680 0.249146
C42   C     C_3   0.143455 0.642467 0.224574 -0.798117
H10   H     H_    0.085074 0.689251 0.213561 0.243088
H11   H     H_    0.189744 0.644444 0.159994 0.233340
H12   H     H_    0.180791 0.668257 0.285722 0.248018
N5    N     N_2   0.076418 0.567390 0.760544 -0.316796
H13   H     H_    0.127009 0.616464 0.753860 0.220162
C43   C     C_3   0.087111 0.496894 0.832750 -0.822185
H14   H     H_    0.159883 0.484592 0.842225 0.221775
H15   H     H_    0.054957 0.429707 0.814293 0.250226
H16   H     H_    0.055574 0.522184 0.901250 0.244625
N6    N     N_2   0.923442 0.571525 0.241389 -0.303132
H17   H     H_    0.873438 0.621186 0.249820 0.224260
C44   C     C_3   0.908832 0.501157 0.169917 -0.856959
H18   H     H_    0.835715 0.486351 0.167319 0.229385
H19   H     H_    0.945324 0.435153 0.183969 0.234757
H20   H     H_    0.933446 0.528093 0.099349 0.248860
C45   C     C_R   0.567542 0.752974 0.336251 0.184429
C46   C     C_R   0.645169 0.697673 0.319466 -0.070609
C47   C     C_R   0.666180 0.661744 0.228471 -0.173419
C48   C     C_R   0.611869 0.682953 0.153377 -0.102001
C49   C     C_R   0.534178 0.736973 0.169675 -0.154506
C50   C     C_R   0.511815 0.771548 0.260744 -0.168098
H21   H     H_    0.691128 0.685867 0.375176 0.142437
H22   H     H_    0.725390 0.618985 0.215296 0.121203
H23   H     H_    0.629447 0.656550 0.082744 0.131270
H24   H     H_    0.491626 0.752540 0.111612 0.126032
H25   H     H_    0.452182 0.814716 0.272094 0.120356
C51   C     C_R   0.352708 0.249211 0.587708 0.190108
C52   C     C_R   0.347082 0.300145 0.673101 -0.067536
C53   C     C_R   0.263997 0.335171 0.708340 -0.166208
C54   C     C_R   0.186131 0.319029 0.658988 -0.105571
C55   C     C_R   0.191681 0.271053 0.572530 -0.150128
C56   C     C_R   0.274601 0.235914 0.537025 -0.155207
H26   H     H_    0.405317 0.307173 0.715543 0.135027
H27   H     H_    0.259727 0.371826 0.775556 0.128170
H28   H     H_    0.121433 0.344017 0.687196 0.138960
H29   H     H_    0.131480 0.259654 0.533950 0.128581
H30   H     H_    0.277701 0.196259 0.471354 0.117633
C57   C     C_R   0.432697 0.753308 0.663862 0.183829
C58   C     C_R   0.355210 0.697959 0.680646 -0.069486
C59   C     C_R   0.334353 0.662056 0.771609 -0.171713
C60   C     C_R   0.388613 0.683433 0.846706 -0.102625
C61   C     C_R   0.466124 0.737560 0.830431 -0.153969
C62   C     C_R   0.488375 0.772046 0.739379 -0.167156
H31   H     H_    0.309278 0.686017 0.624945 0.142313
H32   H     H_    0.275323 0.619142 0.784757 0.118793
H33   H     H_    0.371143 0.657071 0.917320 0.129843
H34   H     H_    0.508632 0.753267 0.888499 0.126385
H35   H     H_    0.547878 0.815280 0.728049 0.121226
C63   C     C_R   0.646534 0.249393 0.410902 0.190365
C64   C     C_R   0.650627 0.299436 0.325081 -0.066799
C65   C     C_R   0.732921 0.334914 0.288461 -0.166453
C66   C     C_R   0.811579 0.320141 0.336892 -0.107471
C67   C     C_R   0.807580 0.272982 0.423760 -0.148969
C68   C     C_R   0.725412 0.237338 0.460619 -0.154722
H36   H     H_    0.591791 0.305326 0.283339 0.134593
H37   H     H_    0.735936 0.370608 0.220786 0.127558
H38   H     H_    0.875699 0.345451 0.307573 0.138478
H39   H     H_    0.868392 0.262613 0.461613 0.128426
H40   H     H_    0.723491 0.198337 0.526603 0.117035
C69   C     C_R   0.302197 0.903153 0.675061 0.114584
C70   C     C_R   0.294174 0.894841 0.774779 -0.095769
C71   C     C_R   0.216620 0.855549 0.819096 -0.125916
C72   C     C_R   0.147050 0.823463 0.764446 -0.138625
C73   C     C_R   0.154684 0.830951 0.665382 -0.157139
C74   C     C_R   0.231647 0.871212 0.620760 -0.186997
H41   H     H_    0.347781 0.919022 0.817885 0.133827
H42   H     H_    0.210754 0.849410 0.895772 0.123925
H43   H     H_    0.087292 0.792585 0.798857 0.129053
H44   H     H_    0.100812 0.805836 0.623186 0.135879
H45   H     H_    0.236346 0.877674 0.544022 0.132303
C75   C     C_R   0.656714 0.093145 0.282047 0.117960
C76   C     C_R   0.751112 0.101275 0.269256 -0.095274
C77   C     C_R   0.790134 0.135388 0.183609 -0.128247
C78   C     C_R   0.735439 0.162121 0.110501 -0.123580
C79   C     C_R   0.641650 0.154057 0.122571 -0.152935
C80   C     C_R   0.602334 0.119069 0.207719 -0.195361
H46   H     H_    0.794174 0.080230 0.325181 0.129916
H47   H     H_    0.862746 0.141447 0.174101 0.120563
H48   H     H_    0.765743 0.188971 0.044443 0.121160
H49   H     H_    0.599421 0.174366 0.065709 0.129281
H50   H     H_    0.529693 0.111584 0.215668 0.130531
C81   C     C_R   0.698238 0.902537 0.325322 0.114280
C82   C     C_R   0.706402 0.893964 0.225612 -0.095547
C83   C     C_R   0.784345 0.855185 0.181380 -0.125036
C84   C     C_R   0.854194 0.823887 0.236097 -0.139503
C85   C     C_R   0.846345 0.831429 0.335162 -0.158303
C86   C     C_R   0.768968 0.871159 0.379707 -0.186186
H51   H     H_    0.652664 0.917700 0.182434 0.134136
H52   H     H_    0.790356 0.848951 0.104705 0.124339
H53   H     H_    0.914329 0.793549 0.201741 0.128745
H54   H     H_    0.900419 0.806861 0.377405 0.136919
H55   H     H_    0.764171 0.877834 0.456436 0.133135
C87   C     C_R   0.343360 0.094068 0.717882 0.117778
C88   C     C_R   0.248929 0.102005 0.730667 -0.095603
C89   C     C_R   0.209804 0.136839 0.816048 -0.129019
C90   C     C_R   0.264426 0.164509 0.888881 -0.123886
C91   C     C_R   0.358249 0.156686 0.876799 -0.152959
C92   C     C_R   0.397674 0.120995 0.791917 -0.195096
H56   H     H_    0.205926 0.080330 0.674922 0.130316
H57   H     H_    0.137168 0.142757 0.825551 0.120804
H58   H     H_    0.234041 0.191913 0.954730 0.120900
H59   H     H_    0.400425 0.177749 0.933442 0.129532
H60   H     H_    0.470352 0.113763 0.783949 0.130621

loop_
_geom_bond_atom_site_label_1
_geom_bond_atom_site_label_2
_ccdc_geom_bond_type
C2    C35   S    
C13   N1    A    
C76   H46   S    
N4    C42   S    
C70   C71   A    
C27   C29   T    
C61   H34   S    
C54   C55   A    
C34   H2    S    
C66   H38   S    
C83   H52   S    
C72   C73   A    
C6    C9    A    
C63   C64   A    
C83   C84   A    
C14   N2    A    
C68   H40   S    
C11   C45   S    
C15   C19   A    
C52   C53   A    
C47   C48   A    
C18   C24   A    
C53   H27   S    
C16   C20   A    
C35   C37   A    
C59   H32   S    
C9    N5    S    
C73   C74   A    
C77   H47   S    
C80   H50   S    
C58   H31   S    
C24   C87   S    
N3    C41   S    
C60   C61   A    
C64   C65   A    
C65   C66   A    
C18   C20   A    
C7    C9    A    
C78   H48   S    
N5    C43   S    
C71   H42   S    
C81   C82   A    
C17   C19   A    
C67   C68   A    
C69   C74   A    
C74   H45   S    
C42   H11   S    
C5    C33   A    
C56   H30   S    
C85   C86   A    
C57   C62   A    
C13   C57   S    
C1    O4    A    
C34   C36   A    
C63   C68   A    
C44   H18   S    
C67   H39   S    
C44   H19   S    
C47   H22   S    
C3    C39   A    
C41   H6    S    
C38   C40   A    
C55   H29   S    
N5    H13   S    
C58   C59   A    
C51   C56   A    
C45   C46   A    
C60   H33   S    
O7    Zn1   S    
C37   C39   A    
C78   C79   A    
O8    Zn2   S    
C41   H7    S    
C65   H37   S    
C4    C40   A    
C79   C80   A    
C12   N2    A    
C43   H15   S    
C54   H28   S    
C1    O1    A    
C2    O2    A    
C49   C50   A    
C23   C81   S    
O4    Zn2   S    
C6    C34   A    
C22   C75   S    
C62   H35   S    
C37   H3    S    
N6    H17   S    
C25   O5    A    
C38   H4    S    
C75   C80   A    
C2    O3    A    
C26   O6    A    
C10   N6    S    
C88   C89   A    
C88   H56   S    
C15   C21   A    
C61   C62   A    
C42   H12   S    
C55   C56   A    
C12   C18   A    
C45   C50   A    
C17   C23   A    
C85   H54   S    
C48   C49   A    
N6    C44   S    
C25   O8    A    
C87   C92   A    
C4    C6    A    
C42   H10   S    
C84   H53   S    
C13   C15   A    
C69   C70   A    
C14   C16   A    
C11   N1    A    
C48   H23   S    
C21   C69   S    
C3    C4    A    
C26   O7    A    
O1    Zn1   S    
C91   C92   A    
C76   C77   A    
C44   H20   S    
O2    Zn2   S    
C86   H55   S    
C11   C17   A    
C41   H8    S    
C16   C22   A    
C22   C23   A    
C12   C51   S    
C31   C32   T    
C90   H58   S    
N4    H9    S    
C3    C5    A    
C79   H49   S    
C43   H16   S    
C49   H24   S    
C64   H36   S    
C71   C72   A    
C14   C63   S    
C25   C27   S    
C59   C60   A    
C26   C28   S    
C50   H25   S    
C33   H1    S    
C89   C90   A    
C19   C20   A    
C89   H57   S    
C92   H60   S    
C5    C10   A    
C29   C31   S    
O3    Zn1   S    
C72   H43   S    
C36   C38   A    
C30   C32   S    
N3    H5    S    
C87   C88   A    
C90   C91   A    
C70   H41   S    
C28   C30   T    
C51   C52   A    
C33   C35   A    
C81   C86   A    
O5    Zn1   S    
C82   C83   A    
C53   C54   A    
C73   H44   S    
C77   C78   A    
C8    N4    S    
C91   H59   S    
O6    Zn2   S    
C43   H14   S    
N1    Zn1   S    
C8    C10   A    
C46   C47   A    
C82   H51   S    
C21   C24   A    
N2    Zn2   S    
C57   C58   A    
C7    C39   A    
C84   C85   A    
C75   C76   A    
C8    C40   A    
C66   C67   A    
C52   H26   S    
C7    N3    S    
C46   H21   S    
C1    C36   S    
