data_mof_unit_8652.cif
_audit_creation_date              2013-03-05T16:41:35-0500
_audit_creation_method            fapswitch 2.2
_symmetry_space_group_name_H-M    P1
_symmetry_Int_Tables_number       1
_space_group_crystal_system       triclinic
_cell_length_a                    12.806404
_cell_length_b                    10.736242
_cell_length_c                    9.917724
_cell_angle_alpha                 89.349571
_cell_angle_beta                  96.428057
_cell_angle_gamma                 91.021441
_cell_volume                      1354.76603493

loop_
_atom_site_label
_atom_site_type_symbol
_atom_site_description
_atom_site_fract_x
_atom_site_fract_y
_atom_site_fract_z
_atom_type_partial_charge
O1    O     O_R   0.500010 0.316790 0.614690 -0.619232
O2    O     O_R   0.500000 0.316760 0.385350 -0.636293
C1    C     C_R   0.500180 0.260265 0.500355 0.875362
O3    O     O_R   0.346360 0.499990 0.595720 -0.607500
O4    O     O_R   0.346350 0.499960 0.366370 -0.619269
C2    C     C_R   0.298526 0.498327 0.474167 0.898371
Zn1   Zn    Zn3+2 0.500010 0.500020 0.653130 1.000588
Zn2   Zn    Zn3+2 0.499990 0.499980 0.346870 0.954761
O5    O     O_R   0.500000 0.683240 0.614650 -0.569899
O6    O     O_R   0.499990 0.683210 0.385310 -0.646101
O7    O     O_R   0.653650 0.500040 0.633630 -0.632272
O8    O     O_R   0.653640 0.500010 0.404280 -0.620362
C3    C     C_R   0.500182 0.739725 0.499416 0.906490
C4    C     C_R   0.701407 0.499675 0.526429 0.880132
C5    C     C_R   0.813238 0.501279 0.544384 -0.035160
C6    C     C_R   0.186761 0.488487 0.460822 -0.048609
C7    C     C_R   0.026411 0.391665 0.360723 -0.229277
C8    C     C_R   0.133477 0.412254 0.361359 -0.201920
C9    C     C_R   0.134642 0.545701 0.558461 -0.255333
C10   C     C_R   0.028068 0.527062 0.557824 0.166549
C11   C     C_R   0.973382 0.449510 0.458022 0.184596
C12   C     C_R   0.865899 0.435391 0.453837 -0.259686
C13   C     C_R   0.867147 0.573333 0.647326 -0.202455
C14   C     C_R   0.975181 0.586038 0.654307 -0.203225
H1    H     H_    0.822609 0.377695 0.376771 0.149593
H2    H     H_    0.825381 0.623355 0.718432 0.173805
H3    H     H_    0.985063 0.332332 0.283888 0.146261
H4    H     H_    0.016733 0.644468 0.731864 0.164881
H5    H     H_    0.175114 0.365630 0.287828 0.152388
H6    H     H_    0.177385 0.604379 0.635135 0.194961
C15   C     C_R   0.528180 0.062951 0.621440 0.023028
C16   C     C_R   0.507856 0.128555 0.500000 -0.055706
C17   C     C_R   0.498625 0.065660 0.375991 -0.190822
H7    H     H_    0.486127 0.114535 0.279533 0.176009
C18   C     C_R   0.496704 0.937439 0.375617 -0.193844
H8    H     H_    0.479892 0.890964 0.279378 0.196990
C19   C     C_R   0.507550 0.871748 0.498987 -0.101082
C20   C     C_R   0.529061 0.935266 0.621139 0.020877
C21   C     C_3   0.476169 0.927601 0.749388 0.561078
C22   C     C_3   0.474534 0.069159 0.747456 -0.573887
H9    H     H_    0.394479 0.108309 0.727387 0.216504
H10   H     H_    0.525851 0.113543 0.832017 0.208597
C23   C     C_R   0.410475 0.471662 0.058651 0.224868
N1    N     N_R   0.499290 0.499140 0.142710 -0.140720
C24   C     C_R   0.585437 0.542525 0.080840 0.006306
C25   C     C_R   0.585107 0.539511 0.937818 -0.078529
H11   H     H_    0.653401 0.571162 0.891073 0.176625
N2    N     N_R   0.499290 0.499180 0.857070 -0.123541
C26   C     C_R   0.410287 0.472475 0.916651 0.286330
C27   C     C_3   0.347530 0.354310 0.903477 -0.516776
C28   C     C_3   0.347973 0.353385 0.056727 -0.512362
H12   H     H_    0.268220 0.368094 0.847846 0.217086
H13   H     H_    0.392532 0.277209 0.866485 0.213891
H14   H     H_    0.268782 0.367122 0.089087 0.204601
H15   H     H_    0.392776 0.275152 0.108065 0.217428
N3    N     N_R   0.543349 0.877938 0.866493 0.207446
O9    O     O_R   0.631327 0.823772 0.851187 -0.436092
O10   O     O_R   0.517108 0.892923 0.988163 -0.428164
C29   C     C_R   0.679006 0.601997 0.155201 0.180259
C30   C     C_R   0.671488 0.720366 0.210784 -0.001731
C31   C     C_R   0.761417 0.785076 0.266573 -0.165361
C32   C     C_R   0.860528 0.734837 0.260161 -0.088488
C33   C     C_R   0.869441 0.620352 0.197338 -0.115152
C34   C     C_R   0.779188 0.553208 0.146588 -0.208538
H16   H     H_    0.596518 0.764581 0.205032 0.168503
H17   H     H_    0.754389 0.875848 0.310766 0.145142
H18   H     H_    0.930435 0.785794 0.301009 0.146760
H19   H     H_    0.946352 0.583724 0.187816 0.150003
H20   H     H_    0.787365 0.464857 0.097496 0.125586
N4    N     N_R   0.371008 0.868590 0.731788 0.196414
O11   O     O_R   0.347514 0.777257 0.810992 -0.371718
O12   O     O_R   0.301157 0.904085 0.633986 -0.429968

loop_
_geom_bond_atom_site_label_1
_geom_bond_atom_site_label_2
_geom_bond_distance
_ccdc_geom_bond_type
C7    C8    1.384261 A    
O4    Zn2   1.998486 S    
C27   H12   1.111723 S    
C23   N1    1.362724 A    
O6    C3    1.289870 A    
C19   C20   1.394971 A    
C24   C29   1.474102 S    
C1    C16   1.419303 S    
C3    C19   1.418886 S    
C21   N3    1.466939 S    
C15   C20   1.371139 A    
Zn2   O8    1.986245 S    
C13   C14   1.381874 A    
C28   H14   1.110191 S    
C16   C17   1.402159 A    
C22   H10   1.112126 S    
O2    C1    1.285532 A    
C29   C30   1.400119 A    
C5    C12   1.388768 A    
C8    H5    1.082395 S    
O1    Zn1   2.008048 S    
C34   H20   1.083153 S    
Zn1   N2    2.023590 S    
Zn1   O7    1.998485 S    
C17   C18   1.376432 A    
C23   C28   1.488109 S    
C29   C34   1.406141 A    
C32   C33   1.396543 A    
C32   H18   1.082260 S    
O3    Zn1   1.986245 S    
N2    C26   1.365962 A    
O4    C2    1.290033 A    
C11   C12   1.378141 A    
C22   H9    1.111355 S    
C18   C19   1.399864 A    
C21   N4    1.471399 S    
O8    C4    1.294543 A    
C30   H16   1.074131 S    
C17   H7    1.083252 S    
C28   H15   1.111755 S    
C6    C9    1.390465 A    
Zn2   N1    2.023941 S    
C31   C32   1.396153 A    
Zn2   O6    2.008045 S    
O7    C4    1.284608 A    
C25   N2    1.352951 A    
C27   H13   1.105984 S    
N3    O9    1.301652 A    
C5    C13   1.399454 A    
C2    C6    1.424727 S    
C33   C34   1.398994 A    
C7    H3    1.084207 S    
C14   H4    1.084323 S    
N4    O11   1.301544 A    
C20   C21   1.507304 S    
C10   C11   1.416378 A    
C12   H1    1.085757 S    
C6    C8    1.398675 A    
C26   C27   1.488740 S    
C25   H11   1.082560 S    
C13   H2    1.084028 S    
C21   C22   1.520194 S    
Zn1   O5    1.999515 S    
O5    C3    1.287900 A    
C4    C5    1.423087 S    
C23   C26   1.407978 A    
N4    O12   1.302210 A    
C15   C22   1.494726 S    
C27   C28   1.519186 S    
C33   H19   1.081281 S    
C24   C25   1.418722 A    
C9    H6    1.086342 S    
O3    C2    1.289808 A    
C31   H17   1.082404 S    
C10   C14   1.396233 A    
C15   C16   1.389789 A    
O2    Zn2   1.999514 S    
N1    C24   1.391897 A    
C9    C10   1.375206 A    
N3    O10   1.300791 A    
C30   C31   1.397375 A    
O1    C1    1.292415 A    
C18   H8    1.080424 S    
C7    C11   1.397662 A    
