data_mof_unit_22992.cif
_audit_creation_date              2012-12-11T16:57:16-0500
_audit_creation_method            fapswitch 2.2
_symmetry_space_group_name_H-M    P1
_symmetry_Int_Tables_number       1
_space_group_crystal_system       monoclinic
_cell_length_a                    14.514363
_cell_length_b                    16.157695
_cell_length_c                    6.973034
_cell_angle_alpha                 90.0
_cell_angle_beta                  98.677562
_cell_angle_gamma                 90.0
_cell_volume                      1616.58724698

loop_
_atom_site_label
_atom_site_type_symbol
_atom_type_description
_atom_site_fract_x
_atom_site_fract_y
_atom_site_fract_z
_atom_type_partial_charge
O1    O     O_R   0.584990 0.413650 0.534420 -0.543285
O2    O     O_R   0.584990 0.586350 0.534420 -0.543284
O3    O     O_R   0.596190 0.585230 0.208380 -0.547688
O4    O     O_R   0.596190 0.414770 0.208380 -0.547688
O5    O     O_R   0.415010 0.586420 0.976930 -0.539428
O6    O     O_R   0.415010 0.413580 0.976930 -0.539428
C1    C     C_R   0.618231 0.614633 0.383867 0.690024
C2    C     C_R   0.618231 0.385367 0.383867 0.690024
O7    O     O_3   0.440560 0.500000 0.319140 -0.366656
V1    V     V_3+5 0.511030 0.500000 0.068070 1.378806
O8    O     O_R   0.403810 0.414840 0.643540 -0.541518
O9    O     O_R   0.403810 0.585160 0.643540 -0.541518
C3    C     C_R   0.381594 0.386119 0.805971 0.748241
C4    C     C_R   0.381594 0.613881 0.805971 0.748240
V2    V     V_3+5 0.488970 0.500000 0.560620 1.401613
O10   O     O_3   0.559440 0.500000 0.859420 -0.385807
H1    H     H_    0.188809 0.806393 0.806815 0.154388
H2    H     H_    0.188809 0.193607 0.806815 0.154388
H3    H     H_    0.319042 0.693561 0.101057 0.157221
H4    H     H_    0.319042 0.306439 0.101057 0.157220
C5    C     C_2   0.312630 0.681936 0.796757 -0.327181
C6    C     C_2   0.312630 0.318064 0.796757 -0.327182
C7    C     C_2   0.288187 0.715974 0.958816 -0.119596
C8    C     C_2   0.288187 0.284026 0.958816 -0.119596
H5    H     H_    0.225478 0.795578 0.252916 0.130262
H6    H     H_    0.225478 0.204422 0.252916 0.130262
C9    C     C_2   0.194729 0.818267 0.110870 -0.332184
C10   C     C_2   0.194729 0.181733 0.110870 -0.332184
C11   C     C_2   0.219572 0.784132 0.949258 -0.119999
C12   C     C_2   0.219572 0.215868 0.949258 -0.119999
H7    H     H_    0.281804 0.704941 0.655050 0.128131
H8    H     H_    0.281804 0.295058 0.655050 0.128131
C13   C     C_R   0.743088 0.694915 0.597341 0.066334
C14   C     C_R   0.743088 0.305085 0.597342 0.066334
C15   C     C_R   0.689509 0.681732 0.415732 -0.093638
C16   C     C_R   0.689509 0.318268 0.415732 -0.093638
C17   C     C_R   0.703358 0.736997 0.267382 -0.139311
C18   C     C_R   0.703359 0.263004 0.267381 -0.139312
H9    H     H_    0.658771 0.732903 0.130880 0.115124
H10   H     H_    0.658772 0.267098 0.130879 0.115124
C19   C     C_R   0.768253 0.802527 0.299845 -0.155001
C20   C     C_R   0.768253 0.197473 0.299845 -0.155001
H11   H     H_    0.773227 0.846055 0.184242 0.132075
H12   H     H_    0.773228 0.153945 0.184242 0.132075
C21   C     C_R   0.821177 0.815511 0.483821 -0.087983
C22   C     C_R   0.821177 0.184489 0.483821 -0.087983
C23   C     C_R   0.808957 0.758789 0.630033 0.078905
C24   C     C_R   0.808957 0.241211 0.630034 0.078905
C25   C     C_3   0.784318 0.776881 0.825463 -0.403899
C26   C     C_3   0.784318 0.223119 0.825463 -0.403899
C27   C     C_3   0.710144 0.709792 0.786890 -0.196562
C28   C     C_3   0.710143 0.290208 0.786890 -0.196562
H13   H     H_    0.757204 0.840834 0.836489 0.202036
H14   H     H_    0.757205 0.159165 0.836490 0.202036
H15   H     H_    0.842264 0.759948 0.941908 0.147068
H16   H     H_    0.842264 0.240052 0.941908 0.147068
H17   H     H_    0.723230 0.655530 0.885295 0.102611
H18   H     H_    0.723230 0.344469 0.885295 0.102611
O11   O     O_R   0.921430 0.915960 0.371040 -0.539611
O12   O     O_R   0.921430 0.084040 0.371040 -0.539612
O13   O     O_R   0.910450 0.087500 0.697310 -0.542277
O14   O     O_R   0.910450 0.912500 0.697310 -0.542276
O15   O     O_R   0.091710 0.087460 0.928430 -0.540871
O16   O     O_R   0.091710 0.912540 0.928430 -0.540871
C29   C     C_R   0.887968 0.114169 0.519738 0.695428
C30   C     C_R   0.887967 0.885831 0.519738 0.695428
O17   O     O_3   0.065970 0.000000 0.586140 -0.369556
V3    V     V_3+5 0.995640 0.000000 0.837400 1.418119
O18   O     O_R   0.103020 0.915700 0.261710 -0.540733
O19   O     O_R   0.103020 0.084300 0.261710 -0.540733
C31   C     C_R   0.125302 0.886057 0.100104 0.757816
C32   C     C_R   0.125302 0.113943 0.100104 0.757816
V4    V     V_3+5 0.017940 1.000000 0.344880 1.406385
O20   O     O_3   0.947330 0.000000 0.046180 -0.375486
C33   C     C_2   0.611069 0.742024 0.764440 0.439806
H19   H     H_    0.558835 0.707163 0.826157 0.030163
O21   O     O_2   0.588273 0.805517 0.674443 -0.518578
C34   C     C_2   0.611068 0.257975 0.764440 0.439807
H20   H     H_    0.558835 0.292836 0.826159 0.030162
O22   O     O_2   0.588274 0.194482 0.674445 -0.518578

loop_
_geom_bond_atom_site_label_1
_geom_bond_atom_site_label_2
_ccdc_geom_bond_type
C9    C11   D    
O1    C2    A    
H1    C11   S    
V4    O20   S    
O2    C1    A    
O4    C2    A    
C23   C25   S    
C5    H7    S    
C26   H14   S    
C6    H8    S    
C7    C11   S    
C4    C5    S    
C15   C17   A    
C27   C33   S    
C18   C20   A    
O3    C1    A    
O11   C30   A    
C20   C22   A    
C34   O22   D    
V3    O20   S    
V2    O10   S    
O12   V4    S    
C2    C16   S    
O16   C31   A    
O18   C31   A    
O8    V2    S    
H4    C8    S    
C25   C27   S    
C26   C28   S    
O18   V4    S    
O1    V2    S    
O7    V1    S    
O11   V4    S    
C24   C26   S    
C19   H11   S    
C10   C32   S    
C20   H12   S    
C28   C34   S    
H6    C10   S    
C21   C23   A    
C22   C24   A    
O14   C30   A    
O17   V3    S    
C22   C29   S    
C34   H20   S    
C25   H15   S    
C26   H16   S    
H3    C7    S    
C33   H19   S    
O9    V2    S    
O19   V4    S    
O2    V2    S    
C33   O21   D    
O5    C4    A    
C28   H18   S    
C27   H17   S    
O17   V4    S    
O9    C4    A    
O12   C29   A    
C5    C7    D    
H2    C12   S    
C13   C23   A    
C6    C8    D    
C14   C24   A    
O4    V1    S    
O16   V3    S    
C9    C31   S    
O15   V3    S    
C1    C15   S    
O6    V1    S    
C13   C27   S    
C14   C28   S    
O14   V3    S    
C16   C18   A    
O7    V2    S    
O5    V1    S    
C17   H9    S    
O3    V1    S    
V1    O10   S    
O6    C3    A    
C18   H10   S    
O8    C3    A    
O13   V3    S    
C25   H13   S    
C10   C12   D    
C13   C15   A    
C3    C6    S    
C14   C16   A    
C17   C19   A    
C8    C12   S    
O13   C29   A    
O15   C32   A    
C21   C30   S    
C19   C21   A    
O19   C32   A    
H5    C9    S    
