data_mof_unit_7328.cif
_audit_creation_date              2012-12-11T15:07:39-0500
_audit_creation_method            fapswitch 2.2
_symmetry_space_group_name_H-M    P1
_symmetry_Int_Tables_number       1
_space_group_crystal_system       triclinic
_cell_length_a                    21.720629
_cell_length_b                    7.20828
_cell_length_c                    18.58048
_cell_angle_alpha                 90.000017
_cell_angle_beta                  95.692244
_cell_angle_gamma                 90.0
_cell_volume                      2894.77073883

loop_
_atom_site_label
_atom_site_type_symbol
_atom_type_description
_atom_site_fract_x
_atom_site_fract_y
_atom_site_fract_z
_atom_type_partial_charge
O1    O     O_R   0.449650 0.506500 0.414480 -0.524325
O2    O     O_R   0.550350 0.006500 0.585520 -0.524326
O3    O     O_R   0.432010 0.173150 0.560250 -0.536534
O4    O     O_R   0.567990 0.673150 0.439750 -0.536534
C1    C     C_R   0.415723 0.344652 0.580578 0.787407
C2    C     C_R   0.584277 0.844652 0.419422 0.787407
O5    O     O_R   0.442320 0.176650 0.413480 -0.528505
O6    O     O_R   0.557680 0.676650 0.586520 -0.528505
O7    O     O_R   0.560730 0.008380 0.437700 -0.528984
O8    O     O_R   0.439270 0.508380 0.562300 -0.528984
C3    C     C_R   0.428323 0.345447 0.387571 0.906585
C4    C     C_R   0.571677 0.845447 0.612429 0.906586
O9    O     O_3   0.538840 0.339860 0.508120 -0.388224
O10   O     O_3   0.461160 0.839860 0.491880 -0.388224
V1    V     V_3+5 0.492800 0.064220 0.498490 1.581319
V2    V     V_3+5 0.507200 0.564220 0.501510 1.581319
C5    C     C_R   0.875976 0.870577 0.691841 -0.151566
C6    C     C_R   0.124024 0.370579 0.308159 -0.151565
H1    H     H_    0.962714 0.894043 0.756389 0.119601
H2    H     H_    0.037286 0.394045 0.243611 0.119601
H3    H     H_    0.798912 0.834242 0.575280 0.113041
H4    H     H_    0.201088 0.334246 0.424720 0.113042
H5    H     H_    0.898232 0.851461 0.642669 0.123424
H6    H     H_    0.101768 0.351464 0.357332 0.123424
C7    C     C_R   0.886146 0.934232 0.820280 -0.136690
C8    C     C_R   0.113854 0.434233 0.179720 -0.136690
C9    C     C_R   0.586096 0.856757 0.746922 0.355910
C10   C     C_R   0.413904 0.356757 0.253078 0.355910
C11   C     C_R   0.622537 0.828691 0.812010 -0.141843
C12   C     C_R   0.377463 0.328690 0.187990 -0.141843
C13   C     C_R   0.686379 0.811175 0.814425 0.392085
C14   C     C_R   0.313620 0.311173 0.185575 0.392085
C15   C     C_R   0.716824 0.851660 0.751888 -0.079963
C16   C     C_R   0.283176 0.351660 0.248112 -0.079963
C17   C     C_R   0.680005 0.851273 0.683090 -0.067603
C18   C     C_R   0.319994 0.351274 0.316910 -0.067602
C19   C     C_R   0.782562 0.882204 0.755161 0.049751
C20   C     C_R   0.217438 0.382204 0.244839 0.049751
C21   C     C_R   0.811381 0.864764 0.690477 0.048756
C22   C     C_R   0.188619 0.364765 0.309522 0.048756
C23   C     C_R   0.775800 0.844576 0.624263 -0.246063
C24   C     C_R   0.224200 0.344578 0.375737 -0.246064
C25   C     C_R   0.710893 0.846327 0.619201 0.354590
C26   C     C_R   0.289107 0.346328 0.380799 0.354590
C27   C     C_R   0.820372 0.937567 0.819361 0.307692
C28   C     C_R   0.179628 0.437566 0.180639 0.307691
C29   C     C_R   0.912829 0.897869 0.756433 -0.203277
C30   C     C_R   0.087170 0.397871 0.243567 -0.203276
C31   C     C_R   0.613551 0.853155 0.681069 -0.231562
C32   C     C_R   0.386449 0.353155 0.318930 -0.231561
H7    H     H_    0.600995 0.811506 0.861689 0.211356
H8    H     H_    0.399005 0.311504 0.138311 0.211356
C33   C     C_R   0.647768 0.707688 0.326062 -0.143957
C34   C     C_R   0.352233 0.207689 0.673938 -0.143957
C35   C     C_R   0.635187 0.856565 0.371405 -0.065274
C36   C     C_R   0.364813 0.356565 0.628595 -0.065276
C37   C     C_R   0.670813 0.019849 0.369635 -0.234851
C38   C     C_R   0.329187 0.519849 0.630365 -0.234852
C39   C     C_R   0.717365 0.036071 0.322629 0.092113
C40   C     C_R   0.282634 0.536071 0.677371 0.092112
C41   C     C_R   0.727720 0.888997 0.275267 0.061806
C42   C     C_R   0.272280 0.388997 0.724733 0.061806
C43   C     C_R   0.692538 0.724622 0.276755 0.068396
C44   C     C_R   0.307462 0.224622 0.723245 0.068396
C45   C     C_R   0.753572 0.197274 0.321832 -0.201872
C46   C     C_R   0.246428 0.697273 0.678168 -0.201872
C47   C     C_R   0.799131 0.213696 0.273875 -0.191987
C48   C     C_R   0.200869 0.713696 0.726125 -0.191987
C49   C     C_R   0.809024 0.069899 0.225392 0.099433
C50   C     C_R   0.190976 0.569899 0.774608 0.099433
C51   C     C_R   0.773365 0.906244 0.226373 0.061843
C52   C     C_R   0.226635 0.406244 0.773627 0.061843
C53   C     C_R   0.783397 0.759494 0.178714 0.079363
C54   C     C_R   0.216604 0.259494 0.821286 0.079363
C55   C     C_R   0.747375 0.597949 0.179770 -0.166265
C56   C     C_R   0.252625 0.097949 0.820230 -0.166265
C57   C     C_R   0.702375 0.580701 0.228342 -0.131272
C58   C     C_R   0.297625 0.080702 0.771658 -0.131272
C59   C     C_R   0.854273 0.086097 0.176513 -0.216244
C60   C     C_R   0.145727 0.586097 0.823487 -0.216244
C61   C     C_R   0.865292 0.939044 0.129533 -0.074587
C62   C     C_R   0.134708 0.439044 0.870467 -0.074587
C63   C     C_R   0.829400 0.776343 0.131073 -0.184211
C64   C     C_R   0.170599 0.276343 0.868927 -0.184211
H9    H     H_    0.621944 0.579786 0.328016 0.165879
H10   H     H_    0.378057 0.079787 0.671984 0.165882
H11   H     H_    0.662564 0.134491 0.405209 0.139198
H12   H     H_    0.337436 0.634490 0.594791 0.139199
H13   H     H_    0.746449 0.311324 0.358092 0.126962
H14   H     H_    0.253551 0.811323 0.641908 0.126962
H15   H     H_    0.826421 0.339608 0.274442 0.130025
H16   H     H_    0.173579 0.839607 0.725558 0.130025
H17   H     H_    0.881861 0.211401 0.176250 0.121941
H18   H     H_    0.118139 0.711400 0.823750 0.121941
H19   H     H_    0.837108 0.662489 0.094901 0.137177
H20   H     H_    0.162892 0.162489 0.905099 0.137177
H21   H     H_    0.754296 0.484129 0.143329 0.148649
H22   H     H_    0.245704 0.984129 0.856672 0.148649
H23   H     H_    0.675242 0.454494 0.228049 0.161355
H24   H     H_    0.324758 0.954495 0.771951 0.161355
O11   O     O_R   0.060820 0.290050 0.937800 -0.539035
O12   O     O_R   0.939180 0.790050 0.062200 -0.539035
O13   O     O_R   0.057690 0.616620 0.086540 -0.538551
O14   O     O_R   0.942310 0.116620 0.913460 -0.538552
C65   C     C_R   0.071750 0.448080 0.112200 0.679645
C66   C     C_R   0.928249 0.948080 0.887800 0.679646
O15   O     O_R   0.068010 0.619890 0.939770 -0.541384
O16   O     O_R   0.931990 0.119890 0.060230 -0.541385
O17   O     O_R   0.949640 0.787940 0.914460 -0.530466
O18   O     O_R   0.050360 0.287940 0.085540 -0.530466
C67   C     C_R   0.084547 0.451043 0.919343 0.696909
C68   C     C_R   0.915453 0.951043 0.080657 0.696909
O19   O     O_3   0.961210 0.453080 0.991940 -0.373356
O20   O     O_3   0.038790 0.953080 0.008060 -0.373356
V3    V     V_3+5 0.007200 0.728820 0.001500 1.425179
V4    V     V_3+5 0.992800 0.228820 0.998500 1.425178
O21   O     O_3   0.792153 0.005585 0.877514 -0.617112
H25   H     H_    0.823541 0.049111 0.915986 0.288780
O22   O     O_3   0.207847 0.505583 0.122486 -0.617112
H26   H     H_    0.176459 0.549108 0.084014 0.288780
S1    S     S_3+6 0.505799 0.894748 0.749792 0.002641
O23   O     O_2   0.488136 0.873641 0.825595 -0.304202
O24   O     O_2   0.491333 0.088868 0.724055 -0.343961
O25   O     O_3   0.464894 0.743274 0.695426 -0.516180
H27   H     H_    0.421322 0.763068 0.704929 0.343289
S2    S     S_3+6 0.494201 0.394749 0.250208 0.002642
O26   O     O_2   0.511864 0.373645 0.174405 -0.304200
O27   O     O_2   0.508667 0.588868 0.275946 -0.343962
O28   O     O_3   0.535106 0.243273 0.304573 -0.516177
H28   H     H_    0.578679 0.263074 0.295072 0.343287
O29   O     O_3   0.716089 0.736226 0.876795 -0.597708
H29   H     H_    0.752904 0.667389 0.863760 0.304308
O30   O     O_3   0.283911 0.236224 0.123205 -0.597707
H30   H     H_    0.247096 0.167387 0.136240 0.304308
O31   O     O_3   0.677574 0.838964 0.552047 -0.677181
H31   H     H_    0.706306 0.834235 0.513818 0.268384
O32   O     O_3   0.322425 0.338967 0.447953 -0.677181
H32   H     H_    0.293694 0.334239 0.486182 0.268385

loop_
_geom_bond_atom_site_label_1
_geom_bond_atom_site_label_2
_ccdc_geom_bond_type
C46   C48   A    
C65   O18   A    
S2    O26   D    
C19   C27   A    
C7    C27   A    
C9    C11   A    
C23   C25   A    
C1    C36   S    
O12   C68   A    
O1    C3    A    
C2    C35   S    
O2    C4    A    
C2    O7    A    
O14   C66   A    
C4    C31   S    
C9    S1    S    
O3    V1    S    
O31   H31   S    
C46   H14   S    
O5    C3    A    
C26   O32   S    
C54   C56   A    
C6    H6    S    
C56   C58   A    
C59   H17   S    
C5    C21   A    
C14   O30   S    
H1    C29   S    
C37   C39   A    
C38   C40   A    
C55   H21   S    
C40   C42   A    
C64   H20   S    
C49   C51   A    
C6    C22   A    
S1    O25   S    
C13   O29   S    
O12   V3    S    
C48   H16   S    
O14   V4    S    
C10   C32   A    
C45   C47   A    
C17   C31   A    
C42   C44   A    
C13   C15   A    
C12   C14   A    
C17   C25   A    
C7    C29   A    
C8    C30   A    
O19   V4    S    
O15   C67   A    
C41   C51   A    
C22   C24   A    
C40   C46   A    
O6    V2    S    
C53   C55   A    
C24   C26   A    
C8    C65   S    
C61   C63   A    
C10   S2    S    
C7    C66   S    
O20   V3    S    
C33   C35   A    
C34   C36   A    
C39   C41   A    
S1    O24   D    
C50   C60   A    
C60   C62   A    
C34   H10   S    
O17   V3    S    
S2    O28   S    
C15   C19   A    
O16   C68   A    
C6    C30   A    
C47   C49   A    
C14   C16   A    
O4    V2    S    
C45   H13   S    
O13   V3    S    
C61   C68   S    
O6    C4    A    
C63   H19   S    
C47   H15   S    
C42   C52   A    
O13   C65   A    
O1    V2    S    
C5    H5    S    
C25   O31   S    
O2    V1    S    
C55   C57   A    
O15   V3    S    
S1    O23   D    
H2    C30   S    
H3    C23   S    
C52   C54   A    
C62   C64   A    
C35   C37   A    
C58   H24   S    
O30   H30   S    
C49   C59   A    
O4    C2    A    
C60   H18   S    
O29   H29   S    
O18   V4    S    
C18   C32   A    
C51   C53   A    
O28   H28   S    
C43   C57   A    
C27   O21   S    
O11   V4    S    
C12   H8    S    
S2    O27   D    
C16   C20   A    
C44   C58   A    
C41   C43   A    
C5    C29   A    
C54   C64   A    
O3    C1    A    
C38   H12   S    
C33   H9    S    
O22   H26   S    
O11   C67   A    
O32   H32   S    
C59   C61   A    
C62   C67   S    
O16   V4    S    
C10   C12   A    
O7    V1    S    
C1    O8    A    
C19   C21   A    
C3    C32   S    
O8    V2    S    
O21   H25   S    
C39   C45   A    
C20   C22   A    
C33   C43   A    
H4    C24   S    
C34   C44   A    
O5    V1    S    
C15   C17   A    
C36   C38   A    
C28   O22   S    
C57   H23   S    
C16   C18   A    
C20   C28   A    
C18   C26   A    
C8    C28   A    
C11   H7    S    
C37   H11   S    
C21   C23   A    
C11   C13   A    
O9    V2    S    
C48   C50   A    
O10   V1    S    
C50   C52   A    
C56   H22   S    
C53   C63   A    
C9    C31   A    
O25   H27   S    
C66   O17   A    
