data_mof_unit_23913.cif
_audit_creation_date              2012-10-26T18:50:44-0400
_audit_creation_method            fapswitch 2.2
_symmetry_space_group_name_H-M    P1
_symmetry_Int_Tables_number       1
_space_group_crystal_system       triclinic
_cell_length_a                    12.287783
_cell_length_b                    13.308232
_cell_length_c                    17.390664
_cell_angle_alpha                 105.314386
_cell_angle_beta                  74.480514
_cell_angle_gamma                 116.568957
_cell_volume                      2416.14216342

loop_
_atom_site_label
_atom_site_type_symbol
_atom_type_description
_atom_site_fract_x
_atom_site_fract_y
_atom_site_fract_z
_atom_type_partial_charge
C1    C     C_R   0.144058 0.712906 0.511903 0.518615
C2    C     C_R   0.025828 0.509246 0.262629 -0.013614
C3    C     C_R   0.723644 0.989829 0.384596 0.213321
C4    C     C_R   0.988064 0.504715 0.652135 0.537133
C5    C     C_R   0.772382 0.165753 0.480192 -0.049191
C6    C     C_R   0.188741 0.883144 0.614801 -0.135922
C7    C     C_R   0.277804 0.967499 0.658106 -0.147045
C8    C     C_R   0.401878 0.004097 0.622700 -0.115654
C9    C     C_R   0.438777 0.968005 0.539517 0.030269
C10   C     C_R   0.348858 0.875594 0.497837 0.026376
C11   C     C_R   0.562971 0.015738 0.497699 -0.018201
C12   C     C_R   0.905500 0.554927 0.796718 -0.141432
C13   C     C_R   0.598944 0.952978 0.422673 0.043102
C14   C     C_R   0.508649 0.858424 0.384649 -0.117380
C15   C     C_R   0.385227 0.825257 0.419240 -0.138425
C16   C     C_R   0.855386 0.286911 0.490955 0.553418
C17   C     C_R   0.649693 0.127251 0.523640 -0.051049
C18   C     C_R   0.809726 0.093572 0.415480 -0.114808
C19   C     C_R   0.224647 0.830906 0.537219 0.000791
C20   C     C_R   0.642425 0.675655 0.628171 -0.157989
C21   C     C_R   0.247130 0.347836 0.393405 0.069180
C22   C     C_R   0.343230 0.311927 0.372832 -0.156217
C23   C     C_R   0.933708 0.528876 0.162716 -0.107632
C24   C     C_R   0.444383 0.369510 0.412704 -0.152099
C25   C     C_R   0.449392 0.462787 0.475401 -0.019204
C26   C     C_R   0.347237 0.494869 0.495665 0.175122
C27   C     C_R   0.550530 0.524251 0.519488 -0.020807
C28   C     C_R   0.016937 0.503324 0.348159 0.535563
C29   C     C_R   0.545908 0.614408 0.583652 0.026689
C30   C     C_R   0.444868 0.642903 0.603354 -0.181444
C31   C     C_R   0.347825 0.584347 0.560634 -0.099265
C32   C     C_R   0.657300 0.501193 0.502707 0.058500
C33   C     C_R   0.744032 0.648147 0.608978 0.041335
C34   C     C_R   0.948800 0.549906 0.242822 -0.029486
C35   C     C_R   0.984242 0.511789 0.737823 0.011989
C36   C     C_R   0.061818 0.478271 0.761451 -0.137654
C37   C     C_R   0.059380 0.486143 0.842933 -0.110067
C38   C     C_R   0.978692 0.527029 0.901732 0.042925
C39   C     C_R   0.903326 0.563012 0.878357 -0.120505
C40   C     C_R   0.610280 0.210505 0.587077 0.050133
C41   C     C_R   0.662691 0.258802 0.657857 -0.076720
C42   C     C_R   0.626103 0.337330 0.716865 -0.098588
C43   C     C_R   0.538035 0.368947 0.705505 -0.099657
C44   C     C_R   0.486023 0.321872 0.635188 -0.106319
C45   C     C_R   0.100412 0.464345 0.198805 -0.027469
C46   C     C_R   0.522642 0.243745 0.575744 -0.071578
C47   C     C_R   0.889417 0.621764 0.302625 0.056672
C48   C     C_R   0.960437 0.720605 0.351038 -0.036304
C49   C     C_R   0.904555 0.787139 0.408109 -0.067186
C50   C     C_R   0.778160 0.757289 0.416073 -0.045797
C51   C     C_R   0.707661 0.661589 0.366378 -0.072018
C52   C     C_R   0.762537 0.593449 0.310317 -0.091809
C53   C     C_R   0.206568 0.448348 0.210189 0.054425
C54   C     C_R   0.307303 0.543042 0.239082 -0.054453
C55   C     C_R   0.414228 0.531687 0.240992 -0.100121
C56   C     C_R   0.083261 0.445231 0.119195 -0.116053
C57   C     C_R   0.422167 0.426277 0.212903 -0.103007
C58   C     C_R   0.322377 0.331588 0.184146 -0.128985
C59   C     C_R   0.214886 0.342398 0.182691 -0.107052
C60   C     C_R   0.000137 0.476418 0.101097 0.014028
C61   C     C_2   0.974694 0.536457 0.987937 -0.134444
C62   C     C_2   0.992292 0.461337 0.016011 -0.136639
Cl1   Cl    Cl    0.775538 0.914293 0.293511 -0.671763
Cu1   Cu    Cu3+1 0.900140 0.524980 0.518800 0.940675
Cu2   Cu    Cu3+1 0.099860 0.475020 0.481200 0.924039
H1    H     H_    0.124717 0.446363 0.717125 0.128465
H2    H     H_    0.440362 0.711318 0.652749 0.113293
H3    H     H_    0.639326 0.744516 0.677449 0.090365
H4    H     H_    0.669538 0.435372 0.454302 0.122838
H5    H     H_    0.169262 0.302852 0.361870 0.137856
H6    H     H_    0.516329 0.338364 0.393970 0.098889
H7    H     H_    0.339725 0.239660 0.325320 0.106373
H8    H     H_    0.274183 0.611599 0.581839 0.186932
H9    H     H_    0.009519 0.390850 0.974763 0.118428
H10   H     H_    0.841998 0.596229 0.923286 0.108953
H11   H     H_    0.871135 0.555684 0.148556 0.114663
H12   H     H_    0.139851 0.410972 0.070248 0.107447
H13   H     H_    0.846113 0.582927 0.779826 0.121549
H14   H     H_    0.957928 0.607519 0.028453 0.127029
H15   H     H_    0.122161 0.462129 0.859663 0.102483
H16   H     H_    0.731080 0.235012 0.667309 0.094340
H17   H     H_    0.665747 0.373413 0.771549 0.107956
H18   H     H_    0.510059 0.429932 0.751207 0.103142
H19   H     H_    0.417825 0.346467 0.626513 0.113549
H20   H     H_    0.482622 0.208790 0.521105 0.107931
H21   H     H_    0.058656 0.745077 0.345316 0.087614
H22   H     H_    0.959312 0.861924 0.446112 0.103822
H23   H     H_    0.903842 0.123437 0.382742 0.158348
H24   H     H_    0.734936 0.808761 0.460327 0.122746
H25   H     H_    0.610016 0.639358 0.372188 0.117553
H26   H     H_    0.705969 0.518095 0.273605 0.089456
H27   H     H_    0.303928 0.626012 0.258149 0.090679
H28   H     H_    0.491658 0.604954 0.262964 0.114555
H29   H     H_    0.505310 0.417733 0.213851 0.106768
H30   H     H_    0.328564 0.249911 0.162646 0.110715
H31   H     H_    0.139055 0.268901 0.158927 0.116227
H32   H     H_    0.531637 0.812492 0.325823 0.166297
H33   H     H_    0.093977 0.848688 0.645887 0.117098
H34   H     H_    0.467546 0.057529 0.662383 0.122263
H35   H     H_    0.251368 0.999507 0.721040 0.117463
H36   H     H_    0.318289 0.757244 0.384606 0.119395
H37   H     H_    0.819032 0.695166 0.642954 0.113389
N1    N     N_R   0.749710 0.562810 0.547300 -0.226438
N2    N     N_R   0.249640 0.437820 0.453210 -0.236711
O1    O     O_R   0.025490 0.682370 0.523640 -0.512634
O2    O     O_R   0.194150 0.640180 0.491890 -0.522631
O3    O     O_R   0.905900 0.523560 0.631310 -0.504737
O4    O     O_R   0.074570 0.481370 0.599560 -0.528966
O5    O     O_R   0.805850 0.359820 0.508110 -0.486420
O6    O     O_R   0.974510 0.317630 0.476360 -0.512624
O7    O     O_R   0.925430 0.518630 0.400440 -0.499953
O8    O     O_R   0.094100 0.476440 0.368690 -0.499008

loop_
_geom_bond_atom_site_label_1
_geom_bond_atom_site_label_2
_ccdc_geom_bond_type
Cu1   N1    S    
C27   C29   A    
C43   H18   S    
C41   C42   A    
C49   H22   S    
C35   C36   A    
C42   H17   S    
C23   H11   S    
C55   H28   S    
C53   C59   A    
C16   O6    A    
Cu1   O1    S    
C53   C54   A    
C28   O8    A    
C40   C46   A    
C6    C19   A    
C4    O4    A    
C29   C30   A    
Cu1   O3    S    
C6    H33   S    
C36   C37   A    
C8    H34   S    
C10   C15   A    
C51   H25   S    
C30   C31   A    
C36   H1    S    
C31   H8    S    
C5    C17   A    
C3    C18   A    
C60   C62   S    
C5    C16   S    
C26   N2    A    
C21   N2    A    
C11   C17   A    
C45   C56   A    
C8    C9    A    
C12   H13   S    
C39   H10   S    
C9    C10   A    
Cu2   O4    S    
C30   H2    S    
C3    C13   A    
C1    O2    A    
C46   H20   S    
C2    C34   A    
C4    C35   S    
C45   C53   S    
C26   C31   A    
C2    C45   A    
C21   C22   A    
C22   H7    S    
C4    O3    A    
C44   C46   A    
C16   O5    A    
C57   C58   A    
C20   C29   A    
C28   O7    A    
C23   C60   A    
C37   H15   S    
C1    C19   S    
C7    H35   S    
C51   C52   A    
C7    C8    A    
C24   C25   A    
Cu1   O7    S    
C5    C18   A    
C58   C59   A    
C18   H23   S    
C56   H12   S    
C33   H37   S    
C17   C40   S    
C58   H30   S    
Cu2   O8    S    
C54   H27   S    
C37   C38   A    
C50   H24   S    
C47   C48   A    
C10   C19   A    
C23   C34   A    
C41   H16   S    
C50   C51   A    
C32   N1    A    
C15   H36   S    
C12   C35   A    
C9    C11   A    
C6    C7    A    
C20   C33   A    
C40   C41   A    
C57   H29   S    
C55   C57   A    
C43   C44   A    
C48   H21   S    
C59   H31   S    
Cu2   O2    S    
C14   H32   S    
C54   C55   A    
C48   C49   A    
C27   C32   A    
C33   N1    A    
C32   H4    S    
C20   H3    S    
C44   H19   S    
C47   C52   A    
C3    Cl1   S    
C25   C27   A    
C21   H5    S    
Cu1   Cu2   S    
C38   C61   S    
C12   C39   A    
C25   C26   A    
C11   C13   A    
Cu1   O5    S    
C38   C39   A    
C61   H14   S    
C22   C24   A    
C61   C62   D    
Cu2   O6    S    
C56   C60   A    
C49   C50   A    
C42   C43   A    
C14   C15   A    
C62   H9    S    
C52   H26   S    
C2    C28   S    
C34   C47   S    
Cu2   N2    S    
C13   C14   A    
C24   H6    S    
C1    O1    A    
