data_mof_unit_53177.cif
_audit_creation_date              2012-10-26T18:33:59-0400
_audit_creation_method            fapswitch 2.2
_symmetry_space_group_name_H-M    P1
_symmetry_Int_Tables_number       1
_space_group_crystal_system       triclinic
_cell_length_a                    11.030833
_cell_length_b                    10.814305
_cell_length_c                    9.596075
_cell_angle_alpha                 90.686132
_cell_angle_beta                  102.54142
_cell_angle_gamma                 92.322938
_cell_volume                      1116.23790134

loop_
_atom_site_label
_atom_site_type_symbol
_atom_type_description
_atom_site_fract_x
_atom_site_fract_y
_atom_site_fract_z
_atom_type_partial_charge
C1    C     C_R   0.500043 0.262292 0.499520 0.558021
C2    C     C_2   0.871911 0.505378 0.588553 -0.063063
C3    C     C_2   0.072744 0.544378 0.529651 0.213558
C4    C     C_2   0.937163 0.557013 0.499178 0.218751
C5    C     C_R   0.493115 0.062071 0.371507 -0.118844
C6    C     C_R   0.505037 0.937682 0.627971 -0.127175
C7    C     C_R   0.492068 0.934206 0.371859 -0.151249
C8    C     C_R   0.505373 0.065517 0.627525 -0.138108
C9    C     C_R   0.498482 0.871535 0.500216 0.012463
C10   C     C_R   0.499635 0.128259 0.499307 0.022849
C11   C     C_3   0.913608 0.746261 0.393078 0.008464
C12   C     C_R   0.499231 0.737637 0.500297 0.534439
C13   C     C_3   0.810624 0.817534 0.437449 -0.248602
C14   C     C_3   0.843973 0.956028 0.453481 -0.467448
C15   C     C_3   0.130582 0.648966 0.748238 0.012671
C16   C     C_3   0.235232 0.742069 0.733371 -0.274211
C17   C     C_3   0.227195 0.863098 0.813634 -0.469413
C18   C     C_R   0.262868 0.505022 0.443591 0.573875
C19   C     C_R   0.736973 0.502730 0.557552 0.570091
C20   C     C_R   0.408261 0.434434 0.045892 0.341060
C21   C     C_R   0.590951 0.566681 0.953574 0.348682
C22   C     C_R   0.410561 0.435879 0.899208 0.004758
C23   C     C_R   0.589277 0.564434 0.100499 0.008819
C24   C     C_2   0.128772 0.523111 0.419269 -0.076235
Cu1   Cu    Cu3+1 0.500000 0.500020 0.640660 1.043146
Cu2   Cu    Cu3+1 0.500000 0.499980 0.359340 1.048409
H1    H     H_    0.919058 0.463109 0.686560 0.141579
H2    H     H_    0.003918 0.768790 0.469102 0.095233
H3    H     H_    0.723083 0.802134 0.355459 0.195265
H4    H     H_    0.795228 0.782643 0.540909 0.190445
H5    H     H_    0.931113 0.973597 0.535673 0.153236
H6    H     H_    0.768133 0.004647 0.487448 0.167799
H7    H     H_    0.856230 0.993861 0.350064 0.165190
H8    H     H_    0.142821 0.625674 0.862723 0.202596
H9    H     H_    0.038876 0.692204 0.718451 0.126835
H10   H     H_    0.326384 0.701877 0.777332 0.199693
H11   H     H_    0.229451 0.761932 0.618820 0.154919
H12   H     H_    0.075348 0.523049 0.309890 0.155689
H13   H     H_    0.137497 0.906199 0.769830 0.159532
H14   H     H_    0.304141 0.928612 0.801583 0.163383
H15   H     H_    0.235103 0.845927 0.929107 0.161846
H16   H     H_    0.134139 0.223155 0.956375 0.372853
H17   H     H_    0.844561 0.802613 0.027107 0.359830
H18   H     H_    0.339285 0.386874 0.820678 0.214616
H19   H     H_    0.660445 0.613961 0.178556 0.213664
H20   H     H_    0.488774 0.108708 0.271399 0.170208
H21   H     H_    0.510249 0.891004 0.728190 0.163813
H22   H     H_    0.486890 0.884778 0.271740 0.141908
H23   H     H_    0.510493 0.114896 0.727657 0.148208
H24   H     H_    0.926409 0.779388 0.288232 0.188517
N1    N     N_R   0.500030 0.500030 0.852080 -0.304458
N2    N     N_R   0.499970 0.499970 0.147920 -0.297771
O1    O     O_R   0.499990 0.319660 0.618740 -0.523562
O2    O     O_3   0.137611 0.537725 0.671197 -0.553804
O3    O     O_2   0.295296 0.279987 0.211949 -0.270079
O4    O     O_2   0.175220 0.444913 0.082290 -0.297859
O5    O     O_3   0.216635 0.252437 0.941695 -0.567705
O6    O     O_2   0.827072 0.564148 0.925912 -0.279440
O7    O     O_2   0.703262 0.719009 0.782614 -0.300169
O8    O     O_3   0.770954 0.759489 0.050951 -0.586993
O9    O     O_R   0.500010 0.680340 0.381260 -0.537701
O10   O     O_R   0.499990 0.319630 0.381170 -0.464816
O11   O     O_R   0.500010 0.680370 0.618830 -0.478201
O12   O     O_R   0.320690 0.500020 0.575130 -0.471641
O13   O     O_R   0.679310 0.499980 0.424870 -0.477766
O14   O     O_R   0.320680 0.499990 0.337560 -0.423865
O15   O     O_R   0.679320 0.500010 0.662440 -0.426165
O16   O     O_3   0.878807 0.618265 0.378266 -0.556418
S1    S     S_3+6 0.273030 0.352997 0.077901 0.017679
S2    S     S_3+6 0.723918 0.651821 0.920533 0.008167

loop_
_geom_bond_atom_site_label_1
_geom_bond_atom_site_label_2
_ccdc_geom_bond_type
C24   H12   S    
Cu1   N1    S    
C19   O15   A    
C2    H1    S    
C23   H19   S    
Cu2   N2    S    
C18   O14   A    
C20   C22   A    
C5    H20   S    
C16   H11   S    
C15   H8    S    
C2    C4    D    
Cu1   O15   S    
O8    S2    S    
C14   H5    S    
C1    O10   A    
C14   H7    S    
Cu2   O10   S    
C5    C10   A    
C20   N2    A    
C11   H24   S    
C13   C14   S    
C7    H22   S    
C12   O9    A    
C11   C13   S    
C18   O12   A    
C23   N2    A    
O3    S1    D    
C22   H18   S    
C11   H2    S    
C6    C9    A    
C18   C24   S    
H17   O8    S    
H16   O5    S    
C15   H9    S    
C3    O2    S    
Cu2   O9    S    
Cu1   O1    S    
C19   O13   A    
C21   C23   A    
C17   H13   S    
C9    C12   S    
C17   H15   S    
C20   S1    S    
C22   N1    A    
C6    H21   S    
C13   H3    S    
C21   S2    S    
C3    C4    S    
Cu2   O14   S    
C15   O2    S    
C7    C9    A    
C13   H4    S    
C21   N1    A    
C11   O16   S    
C8    C10   A    
O4    S1    D    
Cu1   O11   S    
C14   H6    S    
C5    C7    A    
C12   O11   A    
C1    O1    A    
O6    S2    D    
C6    C8    A    
O7    S2    D    
O5    S1    S    
Cu1   Cu2   S    
C2    C19   S    
Cu2   O13   S    
C4    O16   S    
C8    H23   S    
Cu1   O12   S    
C16   H10   S    
C1    C10   S    
C15   C16   S    
C3    C24   D    
C16   C17   S    
C17   H14   S    
