data_mof_unit_59381.cif
_audit_creation_date              2013-03-05T15:52:29-0500
_audit_creation_method            fapswitch 2.2
_symmetry_space_group_name_H-M    P1
_symmetry_Int_Tables_number       1
_space_group_crystal_system       triclinic
_cell_length_a                    27.732088
_cell_length_b                    10.759942
_cell_length_c                    9.599192
_cell_angle_alpha                 89.939553
_cell_angle_beta                  89.754176
_cell_angle_gamma                 92.474064
_cell_volume                      2861.65870401

loop_
_atom_site_label
_atom_site_type_symbol
_atom_site_description
_atom_site_fract_x
_atom_site_fract_y
_atom_site_fract_z
_atom_type_partial_charge
O1    O     O_R   0.500000 0.319640 0.618810 -0.573948
O2    O     O_R   0.500000 0.319660 0.381240 -0.572915
C1    C     C_R   0.498347 0.262603 0.500107 0.796958
O3    O     O_R   0.430260 0.500010 0.618770 -0.596145
O4    O     O_R   0.430270 0.500030 0.381200 -0.575647
C2    C     C_R   0.407499 0.500677 0.500423 0.773665
Cu1   Cu    Cu3+1 0.500000 0.499990 0.640660 0.929051
Cu2   Cu    Cu3+1 0.500000 0.500010 0.359340 0.936722
O5    O     O_R   0.500000 0.680340 0.618760 -0.601397
O6    O     O_R   0.500000 0.680360 0.381190 -0.587131
O7    O     O_R   0.569730 0.499970 0.618800 -0.592613
O8    O     O_R   0.569740 0.499990 0.381230 -0.602772
C3    C     C_R   0.498545 0.737081 0.499970 0.770792
C4    C     C_R   0.592553 0.500927 0.499673 0.790580
C5    C     C_R   0.176167 0.402634 0.525203 0.526313
O9    O     O_2   0.199326 0.294787 0.522986 -0.550582
N1    N     N_R   0.201912 0.512955 0.516378 -0.465322
C6    C     C_R   0.180124 0.624533 0.519709 0.536823
C7    C     C_R   0.280336 0.533497 0.631786 -0.122058
C8    C     C_R   0.330444 0.529626 0.628242 -0.233702
C9    C     C_R   0.327445 0.483845 0.380824 -0.212428
C10   C     C_R   0.277152 0.486930 0.384919 -0.103830
C11   C     C_R   0.253553 0.511714 0.510492 0.376950
C12   C     C_R   0.102136 0.514224 0.542512 -0.082793
C13   C     C_R   0.125936 0.400856 0.536235 0.007010
C14   C     C_R   0.099279 0.287554 0.540251 -0.158686
C15   C     C_R   0.129240 0.629422 0.539772 -0.080064
C16   C     C_R   0.354497 0.504529 0.502790 -0.033945
H1    H     H_    0.256505 0.469926 0.290857 0.132297
H2    H     H_    0.116944 0.199737 0.535732 0.176777
C17   C     C_R   0.645741 0.503304 0.498486 -0.085859
C18   C     C_R   0.972868 0.394889 0.555509 0.042056
C19   C     C_R   0.976912 0.620868 0.518819 0.051876
C20   C     C_R   0.949596 0.507439 0.531848 0.062888
C21   C     C_R   0.943918 0.285410 0.579445 -0.215161
C22   C     C_R   0.893783 0.286406 0.573312 -0.146396
C23   C     C_R   0.870781 0.396070 0.541613 -0.019141
C24   C     C_R   0.898678 0.506751 0.519701 -0.049482
C25   C     C_R   0.875704 0.616801 0.485078 -0.016030
C26   C     C_R   0.825154 0.614846 0.477422 0.517460
N2    N     N_R   0.798670 0.506529 0.500744 -0.471534
C27   C     C_R   0.820337 0.398132 0.531921 0.524512
C28   C     C_R   0.721941 0.498321 0.368780 0.187611
C29   C     C_R   0.671108 0.497104 0.371667 -0.206825
C30   C     C_R   0.671441 0.512042 0.623748 -0.221494
C31   C     C_R   0.721586 0.513984 0.622562 -0.125101
C32   C     C_R   0.746959 0.507051 0.496667 0.312602
O10   O     O_2   0.793096 0.292827 0.553419 -0.535995
C33   C     C_R   0.024098 0.395731 0.550794 0.067248
C34   C     C_R   0.051057 0.511494 0.546863 0.030609
C35   C     C_R   0.027050 0.624327 0.547658 -0.007207
C36   C     C_R   0.049335 0.284778 0.547440 -0.213807
H3    H     H_    0.958965 0.197866 0.606319 0.136945
H4    H     H_    0.031404 0.193906 0.544956 0.128994
O11   O     O_2   0.208167 0.728663 0.502538 -0.552861
C37   C     C_R   0.104525 0.742200 0.563231 0.107185
H5    H     H_    0.350314 0.546834 0.723679 0.155309
H6    H     H_    0.262185 0.552647 0.729046 0.127691
C38   C     C_R   0.953718 0.726011 0.469339 -0.208047
C39   C     C_R   0.903758 0.725039 0.455804 -0.155697
O12   O     O_2   0.802587 0.720263 0.447799 -0.543834
C40   C     C_R   0.053646 0.735212 0.585194 0.104567
H7    H     H_    0.974212 0.808075 0.434946 0.138274
H8    H     H_    0.652857 0.517411 0.722893 0.169223
H9    H     H_    0.887292 0.809027 0.420956 0.185483
H10   H     H_    0.740998 0.520417 0.720139 0.141024
H11   H     H_    0.557109 0.119638 0.363743 0.155490
C41   C     C_R   0.420936 0.120556 0.644891 -0.185831
H12   H     H_    0.418501 0.220545 0.644178 0.139318
C42   C     C_R   0.384763 0.051330 0.715077 -0.124986
C43   C     C_R   0.384773 0.922059 0.714910 -0.118770
H13   H     H_    0.356258 0.868579 0.767931 0.141334
C44   C     C_R   0.420980 0.861224 0.644665 -0.168442
C45   C     C_R   0.458489 0.929510 0.574526 0.099288
C46   C     C_R   0.458458 0.060903 0.574639 0.094794
C47   C     C_R   0.495110 0.128441 0.500088 -0.102007
C48   C     C_R   0.529480 0.067501 0.422244 -0.185347
C49   C     C_R   0.529523 0.939380 0.422148 -0.201379
C50   C     C_R   0.495184 0.870461 0.499870 -0.088490
H14   H     H_    0.445021 0.360376 0.129869 0.137847
C51   C     C_R   0.564603 0.663941 0.143151 -0.150904
H15   H     H_    0.567402 0.672307 0.252865 0.193956
C52   C     C_R   0.596434 0.743482 0.070609 -0.215859
C53   C     C_R   0.596376 0.743811 0.927085 -0.203726
C54   C     C_R   0.564509 0.664546 0.855219 -0.145181
H16   H     H_    0.567295 0.673426 0.745420 0.198163
C55   C     C_R   0.531715 0.580786 0.924774 0.209835
C56   C     C_R   0.531740 0.580610 0.074350 0.212335
N3    N     N_R   0.500460 0.501210 0.147910 -0.198306
C57   C     C_R   0.469791 0.423289 0.074336 -0.058050
H17   H     H_    0.445066 0.360376 0.871601 0.133943
C58   C     C_R   0.469814 0.423291 0.926449 -0.060299
N4    N     N_R   0.500480 0.501290 0.852040 -0.198407
H18   H     H_    0.345063 0.464257 0.282855 0.152906
C59   C     C_3   0.130425 0.870437 0.561679 -0.338653
C60   C     C_3   0.158191 0.898289 0.696740 -0.736167
H19   H     H_    0.133231 0.903191 0.786877 0.220865
H20   H     H_    0.184210 0.825930 0.720251 0.272704
H21   H     H_    0.178349 0.989336 0.686839 0.251197
H22   H     H_    0.154143 0.881779 0.469067 0.246910
H23   H     H_    0.104649 0.945053 0.544744 0.156743
C61   C     C_3   0.029769 0.833379 0.676003 -0.405199
C62   C     C_3   0.004793 0.775635 0.804623 -0.791693
H24   H     H_    0.972416 0.717518 0.775565 0.260390
H25   H     H_    0.030200 0.717797 0.862649 0.251761
H26   H     H_    0.992881 0.850582 0.874664 0.234542
H27   H     H_    0.056252 0.902822 0.718018 0.209828
H28   H     H_    0.004216 0.889337 0.617717 0.187660
H29   H     H_    0.356247 0.098192 0.768279 0.141814
H30   H     H_    0.418578 0.760749 0.643907 0.150909
H31   H     H_    0.557203 0.893730 0.363651 0.140184
H32   H     H_    0.621207 0.805752 0.126517 0.157939
H33   H     H_    0.621119 0.806334 0.870652 0.161310
H34   H     H_    0.650836 0.490614 0.275921 0.174764
C63   C     C_3   0.750597 0.489063 0.233719 -0.382095
C64   C     C_3   0.720830 0.476764 0.100147 -0.850897
H35   H     H_    0.697027 0.391083 0.103311 0.258290
H36   H     H_    0.698924 0.559778 0.085269 0.256016
H37   H     H_    0.745507 0.470095 0.009284 0.249630
H38   H     H_    0.774935 0.573252 0.223032 0.228654
H39   H     H_    0.773514 0.407056 0.240535 0.216130
H40   H     H_    0.873113 0.200317 0.592602 0.188196

loop_
_geom_bond_atom_site_label_1
_geom_bond_atom_site_label_2
_geom_bond_distance
_ccdc_geom_bond_type
C37   C59   1.527850 S    
C55   C56   1.435806 A    
C3    C50   1.442196 S    
C53   H33   1.083078 S    
C63   H39   1.111519 S    
C10   H1    1.082749 S    
C21   H3    1.078105 S    
N2    C27   1.368317 A    
C22   H40   1.083421 S    
C59   C60   1.533969 S    
H11   C48   1.084278 S    
C12   C15   1.421755 A    
C4    C17   1.474149 S    
C28   C29   1.409337 A    
C51   H15   1.059992 S    
C44   H30   1.080312 S    
C48   C49   1.378629 A    
C41   C46   1.414945 A    
Cu1   O7    1.944224 S    
N1    C11   1.433629 S    
C22   C23   1.399187 A    
C31   H10   1.083124 S    
C54   H16   1.060390 S    
O4    C2    1.304903 A    
O7    C4    1.304434 A    
C5    C13   1.395896 A    
C9    H18   1.083012 S    
C5    O9    1.350474 S    
C60   H21   1.110550 S    
C64   H35   1.110784 S    
C5    N1    1.360913 A    
C44   C45   1.414970 A    
C23   C27   1.403524 A    
C33   C34   1.425192 A    
O5    C3    1.294480 A    
C28   C63   1.523348 S    
C2    C16   1.472301 S    
C21   C22   1.392366 A    
C41   H12   1.080913 S    
C60   H20   1.107827 S    
C61   H28   1.103287 S    
C42   C43   1.390961 A    
C29   H34   1.080210 S    
C38   C39   1.391717 A    
C19   C38   1.408385 A    
C20   C24   1.417060 A    
C9    C10   1.396928 A    
C35   C40   1.422882 A    
O3    Cu1   1.946325 S    
C51   C52   1.387399 A    
C36   H4    1.077991 S    
N1    C6    1.367495 A    
C47   C48   1.394897 A    
C54   C55   1.417011 A    
C7    H6    1.082956 S    
C12   C34   1.415999 A    
Cu1   N4    2.029238 S    
C17   C29   1.406466 A    
C18   C21   1.414633 A    
Cu1   Cu2   2.700444 S    
C12   C13   1.412995 A    
C59   H22   1.107114 S    
O3    C2    1.302151 A    
C45   C46   1.413826 A    
C25   C26   1.403338 A    
C43   C44   1.393995 A    
C15   C37   1.436697 A    
C8    C16   1.406191 A    
C34   C35   1.409630 A    
C13   C14   1.398597 A    
C30   C31   1.389870 A    
C26   O12   1.349534 S    
O1    C1    1.294837 A    
C18   C20   1.415214 A    
C7    C11   1.398287 A    
C46   C47   1.415008 A    
C52   H32   1.083093 S    
C23   C24   1.406986 A    
C42   H29   1.082567 S    
C14   C36   1.385511 A    
C57   C58   1.419602 A    
C52   C53   1.377723 A    
Cu2   O8    1.946320 S    
C33   C36   1.410016 A    
C60   H19   1.108454 S    
C19   C20   1.413549 A    
N2    C32   1.435001 S    
C61   H27   1.102797 S    
C62   H25   1.111076 S    
C27   O10   1.349599 S    
C53   C54   1.387704 A    
C1    C47   1.442495 S    
C49   H31   1.084081 S    
C6    O11   1.345602 S    
Cu2   O6    1.952078 S    
C26   N2    1.368228 A    
C9    C16   1.405966 A    
O8    C4    1.303321 A    
C39   H9    1.083241 S    
C14   H2    1.083776 S    
C45   C50   1.415396 A    
C37   C40   1.424494 A    
H17   C58   1.081776 S    
Cu1   O5    1.951689 S    
C31   C32   1.399495 A    
O1    Cu1   1.952077 S    
O2    Cu2   1.951689 S    
C6    C15   1.426607 A    
O6    C3    1.295126 A    
O4    Cu2   1.944227 S    
C19   C35   1.417801 A    
C30   H8    1.083149 S    
C38   H7    1.079894 S    
C64   H37   1.110621 S    
C7    C8    1.392296 A    
O2    C1    1.294830 A    
C8    H5    1.083091 S    
C43   H13   1.082676 S    
C49   C50   1.394692 A    
C24   C25   1.408789 A    
C25   C39   1.399933 A    
C55   N4    1.382727 A    
C58   N4    1.367359 A    
C64   H36   1.111141 S    
C62   H26   1.110733 S    
H14   C57   1.081777 S    
C61   C62   1.531016 S    
C18   C33   1.420896 A    
C51   C56   1.416536 A    
C59   H23   1.110077 S    
C56   N3    1.382194 A    
C41   C42   1.394160 A    
C63   H38   1.110455 S    
C17   C30   1.401574 A    
C62   H24   1.108651 S    
C10   C11   1.400494 A    
Cu2   N3    2.029566 S    
N3    C57   1.367461 A    
C28   C32   1.413917 A    
C63   C64   1.530675 S    
C40   C61   1.539949 S    
