data_mof_unit_66097.cif
_audit_creation_date              2012-10-26T18:03:05-0400
_audit_creation_method            fapswitch 2.2
_symmetry_space_group_name_H-M    P1
_symmetry_Int_Tables_number       1
_space_group_crystal_system       triclinic
_cell_length_a                    18.386587
_cell_length_b                    18.386589
_cell_length_c                    35.664332
_cell_angle_alpha                 90.000011
_cell_angle_beta                  90.000011
_cell_angle_gamma                 90.000044
_cell_volume                      12056.9201125

loop_
_atom_site_label
_atom_site_type_symbol
_atom_type_description
_atom_site_fract_x
_atom_site_fract_y
_atom_site_fract_z
_atom_type_partial_charge
C1    C     C_R   0.500000 0.139771 0.500000 0.551976
C2    C     C_1   0.717614 0.500000 0.500000 -0.051720
C3    C     C_3   0.073492 0.617797 0.113621 -0.385582
C4    C     C_3   0.382112 0.926664 0.886383 -0.385613
C5    C     C_3   0.926630 0.617867 0.886382 -0.385608
C6    C     C_3   0.617888 0.073336 0.886383 -0.385613
C7    C     C_3   0.073370 0.382133 0.886382 -0.385608
C8    C     C_3   0.882112 0.573338 0.613617 -0.385612
C9    C     C_3   0.426633 0.882132 0.613618 -0.385609
C10   C     C_3   0.117888 0.426662 0.613617 -0.385612
C11   C     C_3   0.573367 0.117868 0.613618 -0.385609
C12   C     C_3   0.882194 0.426521 0.386380 -0.385583
C13   C     C_1   0.500000 0.717614 0.500000 -0.051721
C14   C     C_3   0.426621 0.117865 0.386382 -0.385602
C15   C     C_3   0.117806 0.573479 0.386380 -0.385583
C16   C     C_3   0.573379 0.882134 0.386382 -0.385602
C17   C     C_1   0.282386 0.500000 0.500000 -0.051720
C18   C     C_1   0.000000 0.782386 1.000000 -0.051720
C19   C     C_1   0.217614 1.000000 0.000000 -0.051721
C20   C     C_1   1.000000 0.217614 1.000000 -0.051720
C21   C     C_1   0.782386 1.000000 1.000000 -0.051721
C22   C     C_1   0.500000 0.217178 0.500000 -0.058956
C23   C     C_1   0.782822 0.500000 0.500000 -0.058954
C24   C     C_1   0.500000 0.782822 0.500000 -0.058956
C25   C     C_R   0.860229 0.500000 0.500000 0.551979
C26   C     C_1   0.217178 0.500000 0.500000 -0.058954
C27   C     C_1   1.000000 0.717178 1.000000 -0.058953
C28   C     C_1   0.282822 1.000000 1.000000 -0.058956
C29   C     C_1   1.000000 0.282822 1.000000 -0.058952
C30   C     C_1   0.717178 1.000000 1.000000 -0.058956
C31   C     C_R   0.500000 0.000000 0.427893 0.548187
C32   C     C_R   0.000000 0.500000 0.427893 0.548189
C33   C     C_R   0.500000 0.000000 0.572107 0.548184
C34   C     C_R   0.000000 0.500000 0.572106 0.548186
C35   C     C_R   0.000000 0.500000 0.927893 0.548185
C36   C     C_R   0.500000 0.860229 0.500000 0.551976
C37   C     C_R   0.500000 1.000000 0.927893 0.548186
C38   C     C_R   0.000000 0.500000 0.072107 0.548189
C39   C     C_R   0.500000 1.000000 0.072107 0.548186
C40   C     C_R   0.444648 0.035486 0.173058 -0.094513
C41   C     C_R   0.964480 0.444669 0.173058 -0.094515
C42   C     C_R   0.555352 0.964514 0.173058 -0.094513
C43   C     C_R   0.035520 0.555331 0.173058 -0.094515
C44   C     C_R   0.444622 0.964553 0.826943 -0.094510
C45   C     C_R   0.964538 0.555366 0.826943 -0.094511
C46   C     C_R   0.555377 0.035446 0.826943 -0.094510
C47   C     C_R   0.139771 0.500000 0.500000 0.551979
C48   C     C_R   0.035462 0.444633 0.826943 -0.094511
C49   C     C_R   0.944623 0.535447 0.673057 -0.094510
C50   C     C_R   0.464539 0.944633 0.673057 -0.094511
C51   C     C_R   0.055377 0.464553 0.673057 -0.094510
C52   C     C_R   0.535461 0.055367 0.673057 -0.094511
C53   C     C_R   0.944665 0.464485 0.326942 -0.094515
C54   C     C_R   0.464533 0.055366 0.326943 -0.094512
C55   C     C_R   0.055335 0.535515 0.326942 -0.094514
C56   C     C_R   0.535467 0.944634 0.326943 -0.094513
C57   C     C_R   0.443943 0.036010 0.133671 -0.022270
C58   C     C_R   1.000000 0.639771 1.000000 0.551981
C59   C     C_R   0.963955 0.443964 0.133672 -0.022268
C60   C     C_R   0.556057 0.963989 0.133671 -0.022270
C61   C     C_R   0.036045 0.556036 0.133672 -0.022268
C62   C     C_R   0.443918 0.964029 0.866330 -0.022270
C63   C     C_R   0.964013 0.556071 0.866329 -0.022270
C64   C     C_R   0.556082 0.035971 0.866330 -0.022270
C65   C     C_R   0.035987 0.443928 0.866329 -0.022271
C66   C     C_R   0.943918 0.535971 0.633670 -0.022270
C67   C     C_R   0.464014 0.943928 0.633671 -0.022271
C68   C     C_R   0.056082 0.464029 0.633670 -0.022270
C69   C     C_R   0.360229 1.000000 1.000000 0.551977
C70   C     C_R   0.535986 0.056072 0.633671 -0.022271
C71   C     C_R   0.943959 0.463960 0.366329 -0.022267
C72   C     C_R   0.464008 0.056071 0.366329 -0.022269
C73   C     C_R   0.056041 0.536040 0.366329 -0.022268
C74   C     C_R   0.535992 0.943929 0.366329 -0.022269
C75   C     C_R   0.500000 1.000000 0.113617 0.049881
C76   C     C_R   0.000000 0.500000 0.113617 0.049870
C77   C     C_R   0.500000 1.000000 0.886383 0.049896
C78   C     C_R   1.000000 0.500000 0.886383 0.049891
C79   C     C_R   1.000000 0.500000 0.613617 0.049895
C80   C     C_R   1.000000 0.360229 1.000000 0.551982
C81   C     C_R   0.500000 0.000000 0.613617 0.049891
C82   C     C_R   0.000000 0.500000 0.386383 0.049871
C83   C     C_R   0.500000 0.000000 0.386383 0.049887
C84   C     C_R   0.359810 0.500000 0.500000 0.561455
C85   C     C_R   0.500000 0.359810 0.500000 0.561455
C86   C     C_R   0.640190 0.500000 0.500000 0.561454
C87   C     C_R   0.500000 0.640190 0.500000 0.561454
C88   C     C_R   0.859810 0.000000 0.000000 0.561454
C89   C     C_R   0.000000 0.859810 0.000000 0.561454
C90   C     C_R   0.140190 1.000000 0.000000 0.561454
C91   C     C_R   0.639771 1.000000 1.000000 0.551976
C92   C     C_R   1.000000 0.140190 0.000000 0.561454
C93   C     C_R   0.500000 0.000000 0.192654 0.010059
C94   C     C_R   0.000000 0.500000 0.192655 0.010062
C95   C     C_R   0.500000 1.000000 0.807346 0.010059
C96   C     C_R   1.000000 0.500000 0.807346 0.010058
C97   C     C_R   1.000000 0.500000 0.692654 0.010059
C98   C     C_R   0.500000 1.000000 0.692654 0.010057
C99   C     C_R   0.000000 0.500000 0.307346 0.010063
C100  C     C_R   0.500000 1.000000 0.307346 0.010061
C101  C     C_1   0.500000 0.000000 0.233080 -0.030813
C102  C     C_1   0.500000 0.282386 0.500000 -0.051721
C103  C     C_1   1.000000 0.500000 0.233080 -0.030813
C104  C     C_1   0.500000 1.000000 0.766921 -0.030812
C105  C     C_1   1.000000 0.500000 0.766920 -0.030812
C106  C     C_1   1.000000 0.500000 0.733079 -0.030812
C107  C     C_1   0.500000 1.000000 0.733080 -0.030812
C108  C     C_1   1.000000 0.500000 0.266920 -0.030812
C109  C     C_1   0.500000 0.000000 0.266921 -0.030812
C110  C     C_3   0.382161 0.073420 0.113619 -0.385597
C111  C     C_3   0.926508 0.382203 0.113621 -0.385582
C112  C     C_3   0.617839 0.926581 0.113619 -0.385597
Cu1   Cu    Cu3+1 0.572400 0.000000 0.500000 0.926846
Cu2   Cu    Cu3+1 0.500000 0.500000 0.537120 0.947500
Cu3   Cu    Cu3+1 0.000000 0.000000 0.962880 0.947500
Cu4   Cu    Cu3+1 0.000000 0.000000 0.037120 0.947510
Cu5   Cu    Cu3+1 0.000000 0.572400 0.500000 0.926841
Cu6   Cu    Cu3+1 0.427600 0.000000 0.500000 0.926846
Cu7   Cu    Cu3+1 1.000000 0.427600 0.500000 0.926841
Cu8   Cu    Cu3+1 0.072400 0.500000 0.000000 0.926836
Cu9   Cu    Cu3+1 0.500000 0.072400 0.000000 0.926844
Cu10  Cu    Cu3+1 0.927600 0.500000 0.000000 0.926836
Cu11  Cu    Cu3+1 0.500000 0.927600 0.000000 0.926844
Cu12  Cu    Cu3+1 0.500000 0.500000 0.462880 0.947507
H1    H     H_    0.401861 0.062685 0.188583 0.113790
H2    H     H_    0.437359 0.901834 0.688583 0.113792
H3    H     H_    0.098184 0.437383 0.688582 0.113791
H4    H     H_    0.562641 0.098166 0.688583 0.113792
H5    H     H_    0.901891 0.437263 0.311416 0.113785
H6    H     H_    0.437348 0.098163 0.311418 0.113788
H7    H     H_    0.098109 0.562737 0.311416 0.113785
H8    H     H_    0.562652 0.901837 0.311418 0.113788
H9    H     H_    0.340722 0.094330 0.133556 0.119352
H10   H     H_    0.403138 0.120304 0.097291 0.159034
H11   H     H_    0.354834 0.034556 0.094387 0.137395
H12   H     H_    0.937253 0.401898 0.188584 0.113785
H13   H     H_    0.905582 0.340772 0.133557 0.119342
H14   H     H_    0.879630 0.403205 0.097296 0.159038
H15   H     H_    0.965353 0.354856 0.094385 0.137402
H16   H     H_    0.659277 0.905670 0.133556 0.119352
H17   H     H_    0.596862 0.879696 0.097291 0.159034
H18   H     H_    0.645166 0.965444 0.094387 0.137395
H19   H     H_    0.094418 0.659228 0.133557 0.119342
H20   H     H_    0.120370 0.596795 0.097296 0.159038
H21   H     H_    0.034647 0.645144 0.094385 0.137402
H22   H     H_    0.340661 0.905775 0.866447 0.119363
H23   H     H_    0.598139 0.937315 0.188583 0.113790
H24   H     H_    0.403058 0.879771 0.902715 0.159027
H25   H     H_    0.354808 0.965548 0.905612 0.137385
H26   H     H_    0.905732 0.659312 0.866446 0.119359
H27   H     H_    0.879741 0.596908 0.902712 0.159031
H28   H     H_    0.965505 0.645180 0.905613 0.137389
H29   H     H_    0.659339 0.094225 0.866447 0.119363
H30   H     H_    0.596942 0.120229 0.902715 0.159028
H31   H     H_    0.645192 0.034452 0.905612 0.137385
H32   H     H_    0.094267 0.340688 0.866445 0.119359
H33   H     H_    0.120259 0.403092 0.902712 0.159031
H34   H     H_    0.062747 0.598102 0.188584 0.113785
H35   H     H_    0.034495 0.354820 0.905613 0.137389
H36   H     H_    0.840661 0.594226 0.633553 0.119362
H37   H     H_    0.903059 0.620231 0.597285 0.159028
H38   H     H_    0.854807 0.534453 0.594387 0.137385
H39   H     H_    0.405736 0.840686 0.633554 0.119359
H40   H     H_    0.379744 0.903089 0.597287 0.159031
H41   H     H_    0.465509 0.854819 0.594387 0.137389
H42   H     H_    0.159339 0.405773 0.633553 0.119362
H43   H     H_    0.096941 0.379769 0.597285 0.159028
H44   H     H_    0.145192 0.465547 0.594387 0.137385
H45   H     H_    0.401816 0.937384 0.811418 0.113791
H46   H     H_    0.594264 0.159314 0.633554 0.119359
H47   H     H_    0.620256 0.096910 0.597287 0.159031
H48   H     H_    0.534491 0.145180 0.594387 0.137389
H49   H     H_    0.840761 0.405599 0.366443 0.119343
H50   H     H_    0.903191 0.379640 0.402704 0.159036
H51   H     H_    0.854852 0.465368 0.405615 0.137401
H52   H     H_    0.405721 0.159310 0.366446 0.119357
H53   H     H_    0.379731 0.096904 0.402713 0.159029
H54   H     H_    0.465495 0.145182 0.405613 0.137389
H55   H     H_    0.159239 0.594401 0.366443 0.119343
H56   H     H_    0.937356 0.598165 0.811417 0.113792
H57   H     H_    0.096809 0.620360 0.402704 0.159036
H58   H     H_    0.145148 0.534632 0.405616 0.137401
H59   H     H_    0.594279 0.840690 0.366446 0.119356
H60   H     H_    0.620269 0.903096 0.402713 0.159030
H61   H     H_    0.534505 0.854818 0.405613 0.137390
H62   H     H_    0.598184 0.062616 0.811418 0.113791
H63   H     H_    0.062644 0.401835 0.811417 0.113792
H64   H     H_    0.901816 0.562616 0.688582 0.113791
O1    O     O_R   0.561120 0.105710 0.500130 -0.503078
O2    O     O_R   0.394290 0.061120 0.000130 -0.503079
O3    O     O_R   0.938880 0.394290 0.000130 -0.503080
O4    O     O_R   0.605710 0.938880 0.000130 -0.503079
O5    O     O_R   0.061120 0.394290 0.999870 -0.503074
O6    O     O_R   0.394290 0.938880 0.999870 -0.503076
O7    O     O_R   0.938880 0.605710 0.999870 -0.503074
O8    O     O_R   0.605710 0.061120 0.999870 -0.503076
O9    O     O_R   0.561120 0.999900 0.445770 -0.509244
O10   O     O_R   0.000100 0.561120 0.445770 -0.509251
O11   O     O_R   0.438880 0.000100 0.445770 -0.509244
O12   O     O_R   0.894290 0.561120 0.500130 -0.503074
O13   O     O_R   0.999900 0.438880 0.445770 -0.509251
O14   O     O_R   0.561120 0.000100 0.554230 -0.509243
O15   O     O_R   0.000100 0.438880 0.554230 -0.509241
O16   O     O_R   0.438880 0.999900 0.554230 -0.509243
O17   O     O_R   0.999900 0.561120 0.554230 -0.509241
O18   O     O_R   0.061120 0.499900 0.945770 -0.509243
O19   O     O_R   0.500100 0.061120 0.945770 -0.509241
O20   O     O_R   0.938880 0.500100 0.945770 -0.509243
O21   O     O_R   0.499900 0.938880 0.945770 -0.509241
O22   O     O_R   0.061120 0.500100 0.054230 -0.509252
O23   O     O_R   0.438880 0.894290 0.500130 -0.503078
O24   O     O_R   0.500100 0.938880 0.054230 -0.509247
O25   O     O_R   0.938880 0.499900 0.054230 -0.509252
O26   O     O_R   0.499900 0.061120 0.054230 -0.509247
O27   O     O_R   0.394010 0.499860 0.468680 -0.505196
O28   O     O_R   0.500140 0.394010 0.468680 -0.505198
O29   O     O_R   0.605990 0.500140 0.468680 -0.505196
O30   O     O_R   0.499860 0.605990 0.468680 -0.505198
O31   O     O_R   0.394010 0.500140 0.531320 -0.505199
O32   O     O_R   0.500140 0.605990 0.531320 -0.505198
O33   O     O_R   0.605990 0.499860 0.531320 -0.505199
O34   O     O_R   0.105710 0.438880 0.500130 -0.503074
O35   O     O_R   0.499860 0.394010 0.531320 -0.505198
O36   O     O_R   0.894010 0.999860 0.968680 -0.505199
O37   O     O_R   0.000140 0.894010 0.968680 -0.505199
O38   O     O_R   0.105990 0.000140 0.968680 -0.505199
O39   O     O_R   0.999860 0.105990 0.968680 -0.505199
O40   O     O_R   0.894010 0.000140 0.031320 -0.505197
O41   O     O_R   0.000140 0.105990 0.031320 -0.505196
O42   O     O_R   0.105990 0.999860 0.031320 -0.505197
O43   O     O_R   0.999860 0.894010 0.031320 -0.505196
O44   O     O_R   0.561120 0.894290 0.499870 -0.503077
O45   O     O_R   0.894290 0.438880 0.499870 -0.503080
O46   O     O_R   0.438880 0.105710 0.499870 -0.503078
O47   O     O_R   0.105710 0.561120 0.499870 -0.503081
O48   O     O_R   0.061120 0.605710 0.000130 -0.503080

loop_
_geom_bond_atom_site_label_1
_geom_bond_atom_site_label_2
_ccdc_geom_bond_type
C51   C97   A    
C96   C105  S    
C8    C66   S    
C15   H55   S    
Cu4   O41   S    
C42   C93   A    
C64   C77   A    
C33   O14   A    
C62   C77   A    
C112  H18   S    
C28   C69   S    
Cu7   O13   S    
C74   C83   A    
C43   H34   S    
C54   C100  A    
C31   O11   A    
C52   H4    S    
C16   H59   S    
C111  H15   S    
Cu10  O3    S    
C38   C76   S    
C53   C99   A    
C38   O22   A    
C11   H47   S    
C80   O5    A    
C20   C92   S    
C43   C61   A    
C24   C36   S    
C5    H28   S    
C105  C106  T    
Cu4   O40   S    
C16   C74   S    
C17   C26   T    
Cu3   O37   S    
Cu5   O17   S    
C8    H37   S    
Cu5   Cu7   S    
C7    H35   S    
Cu5   O47   S    
C91   O4    A    
C101  C109  T    
Cu3   Cu4   S    
C4    H24   S    
C15   H58   S    
C4    C62   S    
C58   O7    A    
C43   C94   A    
C31   C83   S    
C5    C63   S    
C87   O30   A    
C6    C64   S    
C32   O13   A    
C9    H39   S    
C70   C81   A    
C112  H16   S    
C44   H45   S    
C14   H52   S    
C45   H56   S    
Cu7   O45   S    
C3    H19   S    
C7    H32   S    
C41   C94   A    
C92   O39   A    
C10   H43   S    
C32   O10   A    
C88   O36   A    
Cu11  O6    S    
C103  C108  T    
C50   H2    S    
C86   O33   A    
C39   C75   S    
C48   C65   A    
C50   C67   A    
Cu10  O7    S    
Cu9   O8    S    
C1    C22   S    
C6    H31   S    
C84   O27   A    
C36   O44   A    
C71   C82   A    
Cu2   Cu12  S    
C68   C79   A    
C4    H25   S    
C21   C88   S    
C25   O45   A    
C11   H48   S    
C34   O17   A    
C85   C102  S    
C37   O19   A    
C66   C79   A    
C110  H11   S    
Cu6   O11   S    
Cu8   Cu10  S    
C47   O47   A    
C20   C29   T    
C3    C61   S    
C61   C76   A    
Cu8   O22   S    
C54   H6    S    
Cu12  O30   S    
C11   C70   S    
C50   C98   A    
C49   C66   A    
C46   C95   A    
C14   H53   S    
Cu10  O20   S    
Cu3   O36   S    
C41   H12   S    
C56   C74   A    
C41   C59   A    
Cu3   O38   S    
C54   C72   A    
C85   O28   A    
C93   C101  S    
Cu9   O2    S    
C36   O23   A    
C35   C78   S    
C44   C62   A    
C87   O32   A    
C37   C77   S    
C45   C63   A    
Cu7   O34   S    
C46   H62   S    
C5    H26   S    
C13   C24   T    
C46   C64   A    
Cu6   O23   S    
C86   O29   A    
C55   C99   A    
C112  H17   S    
C3    H20   S    
C9    H40   S    
C9    C67   S    
Cu3   O39   S    
C60   C112  S    
C84   O31   A    
C34   C79   S    
C7    C65   S    
C42   H23   S    
Cu6   O46   S    
C35   O18   A    
C59   C111  S    
C57   C110  S    
C40   C93   A    
C1    O46   A    
C10   H42   S    
C4    H22   S    
Cu11  O24   S    
C13   C87   S    
C65   C78   A    
Cu7   O15   S    
C6    H30   S    
Cu1   O14   S    
C89   O43   A    
C19   C28   T    
C85   O35   A    
C37   O21   A    
C56   H8    S    
Cu5   O12   S    
C26   C47   S    
C48   H63   S    
C12   H51   S    
C97   C106  S    
C15   C73   S    
C47   O34   A    
C99   C108  S    
C94   C103  S    
C3    H21   S    
C55   H7    S    
Cu2   O31   S    
C14   H54   S    
Cu2   O35   S    
C80   O3    A    
C110  H10   S    
C34   O15   A    
C53   H5    S    
Cu9   O19   S    
C38   O25   A    
C42   C60   A    
C8    H36   S    
C73   C82   A    
C31   O9    A    
C32   C82   S    
C95   C104  S    
C111  H13   S    
Cu1   O44   S    
C12   H50   S    
Cu12  O28   S    
Cu12  O29   S    
Cu1   O9    S    
C40   C57   A    
C48   C96   A    
C39   O26   A    
Cu4   O42   S    
C90   O38   A    
C18   C89   S    
C14   C72   S    
C12   C71   S    
Cu6   O16   S    
C18   C27   T    
Cu2   O32   S    
C30   C91   S    
C27   C58   S    
C5    H27   S    
C69   O2    A    
C16   H60   S    
C67   C81   A    
C7    H33   S    
C10   C68   S    
Cu1   O1    S    
C21   C30   T    
C33   O16   A    
C58   O48   A    
Cu8   O5    S    
C22   C102  T    
Cu10  O25   S    
C16   H61   S    
C17   C84   S    
Cu8   O18   S    
Cu9   O26   S    
C57   C75   A    
C9    H41   S    
C51   H3    S    
Cu4   O43   S    
C25   O12   A    
C8    H38   S    
Cu8   O48   S    
C91   O8    A    
C49   H64   S    
C88   O40   A    
C29   C80   S    
C92   O41   A    
C40   H1    S    
C15   H57   S    
C52   C98   A    
C69   O6    A    
C39   O24   A    
C2    C86   S    
C51   C68   A    
C23   C25   S    
Cu2   O33   S    
Cu9   Cu11  S    
C6    H29   S    
C52   C70   A    
C98   C107  S    
C72   C83   A    
C49   C97   A    
Cu1   Cu6   S    
C55   C73   A    
C35   O20   A    
C100  C109  S    
C89   O37   A    
C11   H46   S    
C10   H44   S    
Cu11  O21   S    
C2    C23   T    
C19   C90   S    
C56   C100  A    
C90   O42   A    
C110  H9    S    
C60   C75   A    
Cu11  O4    S    
C45   C96   A    
C33   C81   S    
C59   C76   A    
C63   C78   A    
C104  C107  T    
C44   C95   A    
Cu5   O10   S    
C111  H14   S    
C1    O1    A    
C12   H49   S    
Cu12  O27   S    
C53   C71   A    
