data_mof_unit_49136.cif
_audit_creation_date              2013-03-05T16:09:55-0500
_audit_creation_method            fapswitch 2.2
_symmetry_space_group_name_H-M    P1
_symmetry_Int_Tables_number       1
_space_group_crystal_system       triclinic
_cell_length_a                    10.743946
_cell_length_b                    9.883
_cell_length_c                    10.671996
_cell_angle_alpha                 87.064359
_cell_angle_beta                  92.990204
_cell_angle_gamma                 87.955893
_cell_volume                      1129.31501162

loop_
_atom_site_label
_atom_site_type_symbol
_atom_site_description
_atom_site_fract_x
_atom_site_fract_y
_atom_site_fract_z
_atom_type_partial_charge
O1    O     O_R   0.316770 0.614620 0.499990 -0.593136
O2    O     O_R   0.683230 0.614620 0.500010 -0.577584
O3    O     O_R   0.316800 0.385290 0.500000 -0.557980
O4    O     O_R   0.683200 0.385290 0.500000 -0.571149
C1    C     C_R   0.260273 0.502272 0.499624 0.995940
C2    C     C_R   0.740057 0.497273 0.500256 1.041539
O5    O     O_R   0.500010 0.614690 0.316770 -0.600112
O6    O     O_R   0.499990 0.614690 0.683230 -0.639062
O7    O     O_R   0.500040 0.385360 0.316770 -0.598166
O8    O     O_R   0.499960 0.385360 0.683230 -0.572912
C3    C     C_R   0.491725 0.504269 0.258562 0.933945
C4    C     C_R   0.513396 0.496116 0.739972 0.917263
Zn1   Zn    Zn3+2 0.500000 0.653120 0.500000 1.069342
Zn2   Zn    Zn3+2 0.500000 0.346880 0.500000 1.123263
H1    H     H_    0.410810 0.310646 0.113546 0.233833
H2    H     H_    0.430464 0.300027 0.890374 0.221336
C5    C     C_R   0.530896 0.759245 0.087862 0.186253
C6    C     C_R   0.676838 0.676574 0.893313 0.145865
C7    C     C_R   0.626277 0.842331 0.045711 0.306526
C8    C     C_R   0.704035 0.797007 0.953421 0.310476
C9    C     C_R   0.580476 0.595481 0.938304 -0.107325
C10   C     C_R   0.531181 0.623070 0.052473 -0.055776
C11   C     C_R   0.483171 0.512517 0.122601 -0.011707
C12   C     C_R   0.529436 0.487400 0.874142 -0.002306
C13   C     C_R   0.450953 0.394688 0.063463 -0.102714
C14   C     C_R   0.467620 0.385439 0.937806 -0.070206
C15   C     C_R   0.073733 0.414483 0.586201 0.343433
C16   C     C_R   0.946010 0.402545 0.577739 0.382219
C17   C     C_R   0.872777 0.492113 0.495061 -0.342606
C18   C     C_R   0.128041 0.506043 0.502884 -0.349875
C19   C     C_R   0.927133 0.584595 0.412135 0.226857
C20   C     C_R   0.055825 0.590627 0.415385 0.184935
C21   C     C_R   0.566187 0.062699 0.591312 0.409373
C22   C     C_R   0.424651 0.078461 0.415850 0.434469
C23   C     C_R   0.568655 0.919841 0.588912 -0.076251
C24   C     C_R   0.424952 0.935253 0.416574 -0.042400
H3    H     H_    0.620913 0.859145 0.661809 0.200490
H4    H     H_    0.362153 0.886446 0.353299 0.244772
N1    N     N_R   0.500000 0.857200 0.500000 -0.153126
N2    N     N_R   0.500000 0.142810 0.500000 -0.168260
N3    N     N_R   0.418901 0.819703 0.133648 0.219502
O9    O     O_R   0.397638 0.950198 0.120285 -0.297606
O10   O     O_R   0.323914 0.745148 0.153242 -0.307106
N4    N     N_R   0.760123 0.623501 0.805338 0.218439
O11   O     O_R   0.809688 0.702504 0.722033 -0.343084
O12   O     O_R   0.800004 0.497809 0.820408 -0.302940
Cl1   Cl    Cl    0.653980 0.998914 0.113377 -0.369764
Cl2   Cl    Cl    0.835394 0.890730 0.915941 -0.249431
Cl3   Cl    Cl    0.164784 0.317256 0.704803 -0.432091
Cl4   Cl    Cl    0.882187 0.273327 0.670916 -0.303349
N5    N     N_R   0.852239 0.666729 0.319769 0.252304
O13   O     O_R   0.776709 0.609796 0.241023 -0.406680
O14   O     O_R   0.864852 0.797213 0.309200 -0.240183
N6    N     N_R   0.112389 0.674952 0.323338 0.249848
O15   O     O_R   0.146071 0.794837 0.352773 -0.281257
O16   O     O_R   0.096339 0.649161 0.205338 -0.242724
Cl5   Cl    Cl    0.633838 0.131364 0.724741 -0.425088
Cl6   Cl    Cl    0.315049 0.170103 0.314481 -0.458266

loop_
_geom_bond_atom_site_label_1
_geom_bond_atom_site_label_2
_geom_bond_distance
_ccdc_geom_bond_type
C23   N1    1.359204 A    
O7    Zn2   1.972882 S    
N6    O16   1.301492 A    
O6    Zn1   1.972793 S    
C6    N4    1.435935 S    
C6    C9    1.419981 A    
N3    O10   1.299329 A    
N3    O9    1.300987 A    
C4    C12   1.431060 S    
C22   C24   1.414832 A    
C7    C8    1.404635 A    
O6    C4    1.291075 A    
C24   H4    1.073757 S    
C17   C19   1.403136 A    
C8    Cl2   1.767474 S    
C9    C10   1.389389 A    
C15   C18   1.399739 A    
C18   C20   1.403907 A    
O7    C3    1.298791 A    
C12   C14   1.393848 A    
O2    C2    1.291043 A    
O3    Zn2   1.991224 S    
O8    C4    1.286750 A    
O1    C1    1.284360 A    
C20   N6    1.429469 S    
C16   C17   1.406792 A    
C5    C7    1.413180 A    
N4    O12   1.298817 A    
O5    C3    1.286588 A    
C6    C8    1.413146 A    
C11   C13   1.398377 A    
O4    Zn2   2.017813 S    
C7    Cl1   1.769110 S    
Zn1   N1    2.016923 S    
C21   N2    1.375009 A    
O1    Zn1   2.018324 S    
N5    O14   1.301249 A    
Zn2   N2    2.016825 S    
N5    O13   1.300465 A    
C15   Cl3   1.778064 S    
O5    Zn1   2.010983 S    
C2    C17   1.429094 S    
N4    O11   1.300586 A    
C23   H3    1.078371 S    
H1    C13   1.079677 S    
O4    C2    1.283115 A    
C1    C18   1.422136 S    
O8    Zn2   2.011114 S    
C9    C12   1.409996 A    
C3    C11   1.447018 S    
C15   C16   1.380162 A    
C22   Cl6   1.751538 S    
O2    Zn1   1.991670 S    
C10   C11   1.420090 A    
C22   N2    1.373203 A    
C21   Cl5   1.744317 S    
C5    N3    1.443454 S    
C21   C23   1.412735 A    
C13   C14   1.369366 A    
N6    O15   1.300105 A    
C16   Cl4   1.758802 S    
C24   N1    1.359507 A    
C19   C20   1.384771 A    
C5    C10   1.416249 A    
C19   N5    1.437614 S    
O3    C1    1.286347 A    
H2    C14   1.083913 S    
