data_mof_unit_5762.cif
_audit_creation_date              2012-12-10T18:11:08-0500
_audit_creation_method            fapswitch 2.2
_symmetry_space_group_name_H-M    P1
_symmetry_Int_Tables_number       1
_space_group_crystal_system       triclinic
_cell_length_a                    10.750139
_cell_length_b                    9.420389
_cell_length_c                    10.644522
_cell_angle_alpha                 90.113341
_cell_angle_beta                  89.734358
_cell_angle_gamma                 89.928181
_cell_volume                      1077.96141711

loop_
_atom_site_label
_atom_site_type_symbol
_atom_type_description
_atom_site_fract_x
_atom_site_fract_y
_atom_site_fract_z
_atom_type_partial_charge
C1    C     C_R   0.259473 0.500243 0.497487 0.824214
C2    C     C_3   0.501070 0.500611 0.122734 -0.038862
C3    C     C_3   0.069055 0.555675 0.624664 0.005216
C4    C     C_3   0.070170 0.347460 0.469723 -0.023763
C5    C     C_3   0.925412 0.551275 0.625243 -0.416960
C6    C     C_3   0.927555 0.346471 0.475697 -0.385114
C7    C     C_3   0.070867 0.599757 0.390670 -0.359684
C8    C     C_3   0.120999 0.501092 0.495338 0.059098
C9    C     C_3   0.877295 0.498751 0.497034 0.098828
C10   C     C_3   0.927237 0.596429 0.390560 -0.365478
C11   C     C_3   0.615616 0.083337 0.445702 -0.188633
C12   C     C_3   0.616093 0.915949 0.446647 -0.191099
C13   C     C_3   0.490807 0.083998 0.631912 -0.198286
C14   C     C_3   0.490050 0.916657 0.631828 -0.174549
C15   C     C_3   0.394471 0.083465 0.430621 -0.166480
C16   C     C_3   0.395443 0.916323 0.428860 -0.187719
C17   C     C_R   0.500512 0.500058 0.259385 0.815476
C18   C     C_R   0.739819 0.499675 0.498056 0.773301
C19   C     C_R   0.500074 0.499918 0.740828 0.840273
C20   C     C_3   0.500874 0.635960 0.041496 -0.234560
C21   C     C_3   0.398938 0.431028 0.042828 -0.238122
C22   C     C_3   0.400669 0.564693 0.960819 0.505913
C23   C     C_3   0.501257 0.499140 0.877794 -0.034981
C24   C     C_3   0.603263 0.567900 0.957936 -0.233382
C25   C     C_3   0.502120 0.364562 0.959309 -0.194505
C26   C     C_3   0.604054 0.433472 0.041745 -0.143490
Cu1   Cu    Cu3+1 0.499860 0.642410 0.500060 0.919045
Cu2   Cu    Cu3+1 0.499860 0.357590 0.500060 0.909904
H1    H     H_    0.891369 0.706486 0.402846 0.178856
H2    H     H_    0.893803 0.556920 0.298147 0.168944
H3    H     H_    0.698410 0.120827 0.498224 0.148521
H4    H     H_    0.698394 0.879637 0.500709 0.149998
H5    H     H_    0.626468 0.122353 0.347691 0.143784
H6    H     H_    0.628527 0.875158 0.349233 0.142728
H7    H     H_    0.570348 0.121773 0.689483 0.142708
H8    H     H_    0.568686 0.878010 0.690182 0.141677
H9    H     H_    0.305292 0.119037 0.473248 0.180520
H10   H     H_    0.305370 0.878009 0.466832 0.182353
H11   H     H_    0.396719 0.123992 0.332628 0.173431
H12   H     H_    0.400742 0.878008 0.330069 0.138386
H13   H     H_    0.404668 0.123700 0.678602 0.153530
H14   H     H_    0.403365 0.878259 0.677685 0.192492
H15   H     H_    0.498982 0.746769 0.077229 0.131517
H16   H     H_    0.314969 0.376686 0.079670 0.165047
H17   H     H_    0.686809 0.622587 0.920081 0.143205
H18   H     H_    0.503436 0.253931 0.923154 0.142802
H19   H     H_    0.687999 0.379449 0.078900 0.133229
H20   H     H_    0.104328 0.485135 0.700311 0.123669
H21   H     H_    0.105556 0.273874 0.543117 0.142753
H22   H     H_    0.892658 0.479409 0.701438 0.136567
H23   H     H_    0.897133 0.275713 0.553708 0.155486
H24   H     H_    0.885385 0.657701 0.645986 0.200145
H25   H     H_    0.887592 0.302087 0.387825 0.197490
H26   H     H_    0.103082 0.710658 0.404508 0.193168
H27   H     H_    0.107411 0.566770 0.297463 0.183606
N1    N     N_3   0.500250 0.143650 0.502780 -0.126480
N2    N     N_3   0.500250 0.856350 0.502780 -0.124699
O1    O     O_R   0.317570 0.620260 0.500070 -0.565895
O2    O     O_R   0.317570 0.379740 0.500070 -0.585036
O3    O     O_R   0.499850 0.620240 0.316900 -0.603845
O4    O     O_R   0.499850 0.379760 0.316900 -0.579426
O5    O     O_R   0.682190 0.620260 0.500030 -0.601681
O6    O     O_R   0.682190 0.379740 0.500030 -0.601756
O7    O     O_R   0.499910 0.620280 0.683200 -0.570929
O8    O     O_R   0.499910 0.379720 0.683200 -0.604813
O9    O     O_3   0.295330 0.631021 0.908909 -0.609292
C27   C     C_3   0.218730 0.690738 0.003801 0.079006
H28   H     H_    0.202940 0.803701 0.978514 0.195096
H29   H     H_    0.260022 0.691087 0.099856 0.095796
C28   C     C_3   0.093839 0.612417 0.008023 -0.326175
H30   H     H_    0.066103 0.579505 0.912026 0.250719
H31   H     H_    0.103570 0.514833 0.065543 0.211884
C29   C     C_3   0.990655 0.705721 0.062674 -0.922062
H32   H     H_    0.017781 0.748100 0.155924 0.256896
H33   H     H_    0.904112 0.642494 0.072998 0.248374
H34   H     H_    0.971564 0.796123 0.998717 0.273650
I1    I     I_    0.124932 0.769794 0.675286 -0.485892
I2    I     I_    0.127734 0.258785 0.289894 -0.565656

loop_
_geom_bond_atom_site_label_1
_geom_bond_atom_site_label_2
_ccdc_geom_bond_type
C7    C10   S    
C1    C8    S    
C29   H32   S    
C7    H27   S    
C4    C8    S    
C6    C9    S    
C13   H13   S    
Cu2   N1    S    
C7    C8    S    
C4    I2    S    
C24   H17   S    
C24   C26   S    
C13   H7    S    
Cu1   O3    S    
C1    O2    A    
C14   H8    S    
C18   O6    A    
C15   C16   S    
C3    H20   S    
C15   H9    S    
C17   O4    A    
C22   O9    S    
C20   C24   S    
C23   C24   S    
C5    H24   S    
C28   H30   S    
C6    H23   S    
C9    C10   S    
C14   H14   S    
C13   N1    S    
Cu2   O4    S    
O9    C27   S    
C11   H3    S    
C13   C14   S    
C12   H4    S    
C2    C17   S    
C29   H33   S    
C28   C29   S    
C2    C20   S    
C27   H28   S    
C11   H5    S    
C4    C6    S    
C3    C8    S    
Cu1   N2    S    
C18   O5    A    
C25   C26   S    
C27   H29   S    
C19   C23   S    
C5    C9    S    
Cu1   O5    S    
C21   H16   S    
C10   H2    S    
C19   O7    A    
C2    C21   S    
C2    C26   S    
C15   H11   S    
C26   H19   S    
C16   H12   S    
C12   N2    S    
C20   C22   S    
C29   H34   S    
C5    H22   S    
C6    H25   S    
C12   H6    S    
C3    I1    S    
C20   H15   S    
Cu2   O2    S    
C14   N2    S    
C21   C25   S    
C3    C5    S    
Cu1   O1    S    
C11   C12   S    
C4    H21   S    
C27   C28   S    
C15   N1    S    
Cu2   O8    S    
C1    O1    A    
C10   H1    S    
C19   O8    A    
C16   N2    S    
C23   C25   S    
Cu1   O7    S    
C17   O3    A    
Cu2   O6    S    
C9    C18   S    
Cu1   Cu2   S    
C22   C23   S    
C28   H31   S    
C7    H26   S    
C21   C22   S    
C25   H18   S    
C11   N1    S    
C16   H10   S    
