data_mof_unit_28138.cif
_audit_creation_date              2012-10-26T20:22:31-0400
_audit_creation_method            fapswitch 2.2
_symmetry_space_group_name_H-M    P1
_symmetry_Int_Tables_number       1
_space_group_crystal_system       triclinic
_cell_length_a                    9.51691
_cell_length_b                    10.765344
_cell_length_c                    17.305907
_cell_angle_alpha                 90.215894
_cell_angle_beta                  86.125782
_cell_angle_gamma                 90.920199
_cell_volume                      1768.75248555

loop_
_atom_site_label
_atom_site_type_symbol
_atom_type_description
_atom_site_fract_x
_atom_site_fract_y
_atom_site_fract_z
_atom_type_partial_charge
C1    C     C_R   0.501396 0.737572 0.499777 0.597382
C2    C     C_R   0.080147 0.438816 0.443590 0.001857
C3    C     C_R   0.068629 0.561344 0.556323 0.006994
C4    C     C_R   0.931371 0.438656 0.443677 0.006989
C5    C     C_R   0.482016 0.502941 0.649983 0.561302
C6    C     C_R   0.517983 0.497046 0.350018 0.561312
C7    C     C_R   0.474061 0.512577 0.734367 -0.016600
C8    C     C_R   0.525935 0.487354 0.265636 -0.016586
C9    C     C_R   0.595939 0.543788 0.771881 -0.104187
C10   C     C_R   0.404073 0.456045 0.228134 -0.104141
C11   C     C_R   0.592433 0.551231 0.852869 0.292139
C12   C     C_R   0.498601 0.262428 0.500233 0.597383
C13   C     C_R   0.407578 0.448530 0.147147 0.292139
C14   C     C_R   0.462915 0.530167 0.895579 0.045655
C15   C     C_R   0.537084 0.469618 0.104431 0.045654
C16   C     C_R   0.340201 0.504313 0.857863 -0.161564
C17   C     C_R   0.659786 0.495567 0.142137 -0.161565
C18   C     C_R   0.345741 0.494611 0.777639 -0.157661
C19   C     C_R   0.654244 0.505341 0.222358 -0.157680
C20   C     C_2   0.453570 0.530637 0.980235 -0.062256
C21   C     C_2   0.546416 0.469108 0.019775 -0.062230
C22   C     C_3   0.168782 0.472857 0.134578 -0.147508
C23   C     C_R   0.535773 0.935334 0.566510 0.242256
C24   C     C_3   0.831197 0.526732 0.865444 -0.147534
C25   C     C_3   0.713412 0.860972 0.633756 -0.116089
C26   C     C_3   0.286446 0.138934 0.366307 -0.116126
C27   C     C_3   0.535837 0.134132 0.646057 -0.261357
C28   C     C_3   0.390834 0.170721 0.681246 -0.431393
C29   C     C_3   0.464233 0.865885 0.353950 -0.261359
C30   C     C_3   0.609273 0.829321 0.318797 -0.431409
C31   C     C_R   0.464186 0.064665 0.433514 0.242261
C32   C     C_R   0.524453 0.064993 0.569653 -0.040004
C33   C     C_R   0.475544 0.935011 0.430364 -0.040020
C34   C     C_R   0.494779 0.128425 0.501626 -0.014207
C35   C     C_R   0.505209 0.871576 0.498391 -0.014211
C36   C     C_R   0.919853 0.561185 0.556410 0.001863
Cu1   Cu    Cu3+1 0.359340 0.499980 0.500000 0.932979
Cu2   Cu    Cu3+1 0.640660 0.500020 0.500000 0.932937
H1    H     H_    0.693028 0.564857 0.738004 0.112704
H2    H     H_    0.140624 0.390039 0.398271 0.092325
H3    H     H_    0.119936 0.610835 0.601360 0.113787
H4    H     H_    0.880064 0.389166 0.398639 0.113779
H5    H     H_    0.190066 0.573573 0.144544 0.101017
H6    H     H_    0.118075 0.428937 0.187560 0.114030
H7    H     H_    0.092359 0.466154 0.089031 0.137184
H8    H     H_    0.881962 0.570651 0.812476 0.114053
H9    H     H_    0.809819 0.426038 0.855450 0.101020
H10   H     H_    0.907608 0.533339 0.911001 0.137165
H11   H     H_    0.762836 0.953154 0.644212 0.097718
H12   H     H_    0.307001 0.434950 0.262020 0.112710
H13   H     H_    0.763430 0.820909 0.579587 0.129620
H14   H     H_    0.737002 0.799182 0.682210 0.136816
H15   H     H_    0.237081 0.046708 0.355898 0.097749
H16   H     H_    0.262775 0.200658 0.317836 0.136779
H17   H     H_    0.236447 0.179025 0.420475 0.129634
H18   H     H_    0.338451 0.234709 0.642667 0.169256
H19   H     H_    0.323174 0.086565 0.691523 0.167335
H20   H     H_    0.402320 0.218425 0.737523 0.138280
H21   H     H_    0.584613 0.076781 0.689675 0.183285
H22   H     H_    0.604505 0.218002 0.637786 0.148611
H23   H     H_    0.749819 0.527982 0.250374 0.126010
H24   H     H_    0.661639 0.765352 0.357395 0.169284
H25   H     H_    0.597859 0.781603 0.262517 0.138276
H26   H     H_    0.676920 0.913490 0.308538 0.167297
H27   H     H_    0.395572 0.782007 0.362198 0.148609
H28   H     H_    0.415488 0.923242 0.310323 0.183333
H29   H     H_    0.250153 0.472043 0.749615 0.126017
H30   H     H_    0.634900 0.422765 0.989782 0.137731
H31   H     H_    0.365087 0.576977 0.010233 0.137697
H32   H     H_    0.240627 0.488526 0.890828 0.116081
H33   H     H_    0.759348 0.511376 0.109166 0.116105
H34   H     H_    0.859377 0.609963 0.601728 0.092304
N1    N     N_R   0.147930 0.499970 0.499980 -0.226407
N2    N     N_R   0.852070 0.500030 0.500020 -0.226404
O1    O     O_R   0.381260 0.680340 0.500000 -0.500892
O2    O     O_3   0.708748 0.591435 0.891283 -0.569552
O3    O     O_3   0.565617 0.868964 0.631695 -0.560392
O4    O     O_3   0.434256 0.131032 0.368342 -0.560388
O5    O     O_R   0.618740 0.319660 0.500000 -0.500918
O6    O     O_R   0.618830 0.680370 0.500010 -0.505592
O7    O     O_R   0.381170 0.319630 0.499990 -0.505539
O8    O     O_R   0.367440 0.500000 0.613600 -0.511377
O9    O     O_R   0.632560 0.500000 0.386400 -0.511370
O10   O     O_R   0.605010 0.500030 0.613600 -0.515336
O11   O     O_R   0.394990 0.499970 0.386400 -0.515318
O12   O     O_3   0.291289 0.408234 0.108742 -0.569530

loop_
_geom_bond_atom_site_label_1
_geom_bond_atom_site_label_2
_ccdc_geom_bond_type
C30   H26   S    
Cu2   O9    S    
C26   H17   S    
C28   H18   S    
C28   H19   S    
C29   C30   S    
C6    O11   A    
Cu2   O6    S    
C25   O3    S    
Cu1   O11   S    
C11   O2    S    
C11   C14   A    
Cu2   O5    S    
C12   O5    A    
C29   C33   S    
C9    H1    S    
C7    C9    A    
C17   C19   A    
C22   H6    S    
C13   O12   S    
C31   C33   A    
C4    N2    A    
Cu1   O1    S    
C30   H25   S    
Cu1   O7    S    
C26   H16   S    
C8    C19   A    
C1    O1    A    
C14   C20   S    
C16   H32   S    
C5    C7    S    
C5    O10   A    
C24   O2    S    
C6    C8    S    
C18   H29   S    
C24   H10   S    
C2    C4    A    
C25   H13   S    
Cu1   Cu2   S    
C22   H5    S    
C7    C18   A    
C31   C34   A    
C26   O4    S    
C23   O3    S    
C9    C11   A    
C2    N1    A    
C36   N2    A    
C29   H27   S    
C16   C18   A    
C17   H33   S    
C23   C35   A    
C13   C15   A    
C21   H30   S    
C14   C16   A    
Cu1   O8    S    
C12   C34   S    
C10   H12   S    
C26   H15   S    
C1    C35   S    
C31   O4    S    
Cu2   N2    S    
C15   C17   A    
Cu1   N1    S    
C3    H3    S    
C6    O9    A    
Cu2   O10   S    
C27   C32   S    
C24   H9    S    
C10   C13   A    
C28   H20   S    
C27   H22   S    
C24   H8    S    
C23   C32   A    
C30   H24   S    
C25   H14   S    
C27   H21   S    
C5    O8    A    
C4    H4    S    
C3    C36   A    
C19   H23   S    
C33   C35   A    
C12   O7    A    
C22   O12   S    
C3    N1    A    
C25   H11   S    
C29   H28   S    
C2    H2    S    
C15   C21   S    
C22   H7    S    
C20   C21   D    
C8    C10   A    
C27   C28   S    
C1    O6    A    
C20   H31   S    
C36   H34   S    
C32   C34   A    
