data_mof_unit_49930.cif
_audit_creation_date              2012-12-11T16:28:30-0500
_audit_creation_method            fapswitch 2.2
_symmetry_space_group_name_H-M    P1
_symmetry_Int_Tables_number       1
_space_group_crystal_system       triclinic
_cell_length_a                    16.469008
_cell_length_b                    7.246846
_cell_length_c                    15.28463
_cell_angle_alpha                 89.993573
_cell_angle_beta                  94.677818
_cell_angle_gamma                 89.9597
_cell_volume                      1818.11878772

loop_
_atom_site_label
_atom_site_type_symbol
_atom_type_description
_atom_site_fract_x
_atom_site_fract_y
_atom_site_fract_z
_atom_type_partial_charge
O1    O     O_R   0.663460 0.361760 0.165970 -0.531976
O2    O     O_R   0.336540 0.638240 0.834030 -0.531976
O3    O     O_R   0.836540 0.861760 0.334030 -0.532129
O4    O     O_R   0.163460 0.138240 0.665970 -0.532129
O5    O     O_R   0.827100 0.689870 0.163730 -0.534649
O6    O     O_R   0.172900 0.310130 0.836270 -0.534649
O7    O     O_R   0.672900 0.189870 0.336270 -0.533727
O8    O     O_R   0.327100 0.810130 0.663730 -0.533727
C1    C     C_R   0.853305 0.522851 0.143613 0.710985
C2    C     C_R   0.146695 0.477149 0.856387 0.710983
C3    C     C_R   0.646624 0.022916 0.356306 0.711314
C4    C     C_R   0.353375 0.977084 0.643694 0.711311
O9    O     O_R   0.663490 0.691370 0.155500 -0.535537
O10   O     O_R   0.336510 0.308630 0.844500 -0.535535
O11   O     O_R   0.836510 0.191370 0.344500 -0.535673
O12   O     O_R   0.163490 0.808630 0.655500 -0.535674
O13   O     O_R   0.671770 0.863320 0.325740 -0.532421
O14   O     O_R   0.328230 0.136680 0.674260 -0.532419
O15   O     O_R   0.828230 0.363320 0.174260 -0.532878
O16   O     O_R   0.171770 0.636680 0.825740 -0.532878
C5    C     C_R   0.635531 0.523064 0.134479 0.677070
C6    C     C_R   0.364469 0.476936 0.865522 0.677068
C7    C     C_R   0.864156 0.022898 0.365873 0.677121
C8    C     C_R   0.135844 0.977101 0.634127 0.677121
O17   O     O_3   0.752910 0.528800 0.305860 -0.373587
O18   O     O_3   0.247090 0.471200 0.694140 -0.373587
O19   O     O_3   0.747090 0.028800 0.194140 -0.374443
O20   O     O_3   0.252910 0.971200 0.805860 -0.374443
V1    V     V_3+5 0.749460 0.803010 0.239640 1.428945
V2    V     V_3+5 0.250540 0.196990 0.760360 1.428950
V3    V     V_3+5 0.750540 0.303010 0.260360 1.430066
V4    V     V_3+5 0.249460 0.696990 0.739640 1.430066
C9    C     C_1   0.468954 0.994898 0.530258 0.034905
C10   C     C_1   0.531044 0.005101 0.469739 0.034900
C11   C     C_1   0.031125 0.494993 0.969831 0.025949
C12   C     C_1   0.968876 0.505007 0.030170 0.025941
H1    H     H_    0.766666 0.809758 0.641628 0.123141
H2    H     H_    0.233336 0.190212 0.358368 0.123148
H3    H     H_    0.734870 0.313517 0.861041 0.109736
H4    H     H_    0.265132 0.686538 0.138955 0.109746
C13   C     C_R   0.028918 0.117970 0.328417 -0.202143
C14   C     C_R   0.971083 0.882016 0.671582 -0.202125
C15   C     C_R   0.470169 0.617939 0.171385 -0.188930
C16   C     C_R   0.529831 0.382094 0.828612 -0.188910
C17   C     C_R   0.107784 0.159601 0.306977 0.461826
C18   C     C_R   0.892218 0.840376 0.693021 0.461830
C19   C     C_R   0.391213 0.659635 0.193041 0.471745
C20   C     C_R   0.608787 0.340411 0.806953 0.471752
C21   C     C_R   0.172357 0.150937 0.372417 -0.230394
C22   C     C_R   0.827645 0.849043 0.627581 -0.230404
C23   C     C_R   0.326768 0.649388 0.126725 -0.242472
C24   C     C_R   0.673233 0.350648 0.873270 -0.242506
C25   C     C_R   0.158858 0.093346 0.456905 -0.201314
C26   C     C_R   0.841143 0.906644 0.543094 -0.201308
C27   C     C_R   0.340904 0.592036 0.042440 -0.194657
C28   C     C_R   0.659096 0.407978 0.957559 -0.194637
C29   C     C_R   0.079829 0.046855 0.479409 0.075665
C30   C     C_R   0.920171 0.953141 0.520591 0.075658
C31   C     C_R   0.420061 0.546411 0.020290 0.077896
C32   C     C_R   0.579938 0.453595 0.979710 0.077894
C33   C     C_R   0.013415 0.059981 0.413969 -0.003070
C34   C     C_R   0.986585 0.940013 0.586031 -0.003076
C35   C     C_R   0.486150 0.560000 0.085951 -0.007728
C36   C     C_R   0.513850 0.440011 0.914049 -0.007736
C37   C     C_R   0.066538 0.986907 0.565431 -0.133082
C38   C     C_R   0.933461 0.013092 0.434569 -0.133083
C39   C     C_R   0.433704 0.486581 0.934344 -0.133144
C40   C     C_R   0.566295 0.513421 0.065657 -0.133145
C41   C     C_1   0.416190 0.986362 0.581731 -0.185486
C42   C     C_1   0.583808 0.013637 0.418267 -0.185490
C43   C     C_1   0.083952 0.486508 0.918433 -0.184712
C44   C     C_1   0.916049 0.513491 0.081568 -0.184721
H5    H     H_    0.980199 0.129987 0.276760 0.127950
H6    H     H_    0.019802 0.869997 0.723238 0.127952
H7    H     H_    0.518899 0.629883 0.223038 0.128236
H8    H     H_    0.481102 0.370162 0.776958 0.128237
H9    H     H_    0.211235 0.086157 0.504326 0.120503
H10   H     H_    0.788765 0.913833 0.495673 0.120507
H11   H     H_    0.288687 0.584071 0.994841 0.119010
H12   H     H_    0.711313 0.415938 0.005157 0.119008
O21   O     O_3   0.118869 0.223189 0.223283 -0.556878
C45   C     C_3   0.172032 0.103861 0.182148 0.071429
H13   H     H_    0.151847 0.957383 0.185818 0.111421
H14   H     H_    0.235517 0.116987 0.212351 0.125712
C46   C     C_3   0.172205 0.156127 0.085768 -0.667365
H15   H     H_    0.192707 0.301222 0.079568 0.215667
H16   H     H_    0.214350 0.064169 0.052939 0.178214
H17   H     H_    0.109957 0.141247 0.052719 0.222315
O22   O     O_3   0.881136 0.776774 0.776714 -0.556880
C47   C     C_3   0.827948 0.896048 0.817847 0.071440
H18   H     H_    0.764465 0.882839 0.787651 0.125697
H19   H     H_    0.848097 0.042550 0.814167 0.111402
C48   C     C_3   0.827795 0.843796 0.914230 -0.667363
H20   H     H_    0.890042 0.858756 0.947273 0.222314
H21   H     H_    0.785632 0.935708 0.947058 0.178215
H22   H     H_    0.807330 0.698675 0.920440 0.215664
O23   O     O_3   0.382075 0.720813 0.278183 -0.558087
C49   C     C_3   0.306109 0.670524 0.308136 0.088025
H23   H     H_    0.290504 0.524045 0.291963 0.126987
H24   H     H_    0.257325 0.763816 0.279611 0.111546
C50   C     C_3   0.309952 0.692339 0.407343 -0.675011
H25   H     H_    0.321613 0.838910 0.425299 0.213828
H26   H     H_    0.251043 0.649923 0.431718 0.180225
H27   H     H_    0.359414 0.604963 0.439010 0.224070
O24   O     O_3   0.617919 0.279271 0.721802 -0.558086
C51   C     C_3   0.693913 0.329406 0.691873 0.088037
H28   H     H_    0.742654 0.236015 0.720410 0.111525
H29   H     H_    0.709572 0.475853 0.708058 0.126999
C52   C     C_3   0.690086 0.307602 0.592667 -0.675006
H30   H     H_    0.640672 0.395096 0.560989 0.224059
H31   H     H_    0.749022 0.349875 0.568312 0.180224
H32   H     H_    0.678358 0.161060 0.574701 0.213836

loop_
_geom_bond_atom_site_label_1
_geom_bond_atom_site_label_2
_ccdc_geom_bond_type
O17   V3    S    
C4    C41   S    
O1    C5    A    
C50   H25   S    
C27   C31   A    
O19   V1    S    
O13   V1    S    
O3    C7    A    
C11   C12   S    
C1    C44   S    
C13   C33   A    
O15   V3    S    
O21   C45   S    
C3    C42   S    
C15   C35   A    
C18   O22   S    
C46   H15   S    
C16   C36   A    
O7    C3    A    
C22   C26   A    
C7    C38   S    
O9    V1    S    
C52   H31   S    
C26   C30   A    
O4    C8    A    
C51   H28   S    
C12   C44   T    
O1    V3    S    
O2    V4    S    
C14   C18   A    
O3    V1    S    
C31   C39   A    
C33   C38   A    
C30   C38   A    
C2    O16   A    
O2    C6    A    
O14   V2    S    
C14   C34   A    
C9    C41   T    
C2    C43   S    
O11   C7    A    
H3    C24   S    
C11   C43   T    
C50   H26   S    
O10   V2    S    
C1    O15   A    
O23   C49   S    
O5    V1    S    
C46   H16   S    
H4    C23   S    
C15   H7    S    
C14   H6    S    
O7    V3    S    
O8    V4    S    
C36   C39   A    
C52   H32   S    
H2    C21   S    
C25   C29   A    
O18   V4    S    
C19   C23   A    
C28   C32   A    
C25   H9    S    
O5    C1    A    
C27   H11   S    
C47   H19   S    
C20   O24   S    
C17   C21   A    
O8    C4    A    
C9    C10   S    
O9    C5    A    
C48   H20   S    
O11   V3    S    
C30   C34   A    
C8    C37   S    
O6    V2    S    
C45   H13   S    
C48   H22   S    
C45   H14   S    
C5    C40   S    
O12   V4    S    
C49   C50   S    
C47   C48   S    
O16   V4    S    
C46   H17   S    
C10   C42   T    
C35   C40   A    
C3    O13   A    
C34   C37   A    
C17   O21   S    
C29   C37   A    
C19   O23   S    
O6    C2    A    
C29   C33   A    
C50   H27   S    
C45   C46   S    
O24   C51   S    
C18   C22   A    
C31   C35   A    
C28   H12   S    
C32   C36   A    
O10   C6    A    
O20   V2    S    
C52   H30   S    
H1    C22   S    
C47   H18   S    
C48   H21   S    
C51   H29   S    
C21   C25   A    
C23   C27   A    
C49   H24   S    
C6    C39   S    
C13   H5    S    
C16   C20   A    
C20   C24   A    
C32   C40   A    
O12   C8    A    
C49   H23   S    
C4    O14   A    
C13   C17   A    
C16   H8    S    
O22   C47   S    
C15   C19   A    
O4    V2    S    
C24   C28   A    
C26   H10   S    
C51   C52   S    
