data_mof_unit_48117.cif
_audit_creation_date              2012-12-10T18:38:10-0500
_audit_creation_method            fapswitch 2.2
_symmetry_space_group_name_H-M    P1
_symmetry_Int_Tables_number       1
_space_group_crystal_system       triclinic
_cell_length_a                    15.250544
_cell_length_b                    13.876434
_cell_length_c                    10.663319
_cell_angle_alpha                 89.872647
_cell_angle_beta                  91.350829
_cell_angle_gamma                 89.950125
_cell_volume                      2255.97167146

loop_
_atom_site_label
_atom_site_type_symbol
_atom_type_description
_atom_site_fract_x
_atom_site_fract_y
_atom_site_fract_z
_atom_type_partial_charge
C1    C     C_R   0.329851 0.500210 0.507582 0.804365
C2    C     C_R   0.669784 0.500152 0.489661 0.739371
C3    C     C_R   0.541433 0.107443 0.595987 -0.348926
C4    C     C_R   0.438229 0.891912 0.427333 -0.362865
C5    C     C_R   0.456693 0.108295 0.403945 -0.355767
C6    C     C_R   0.561370 0.892039 0.570987 -0.364179
C7    C     C_R   0.545775 0.209239 0.591438 0.594918
C8    C     C_R   0.442891 0.790239 0.422080 0.561489
C9    C     C_R   0.453352 0.209933 0.409113 0.569160
C10   C     C_R   0.557841 0.790072 0.576493 0.570721
C11   C     C_R   0.499185 0.054618 0.499637 0.083412
C12   C     C_R   0.499373 0.945180 0.499511 0.085906
C13   C     C_R   0.501929 0.500027 0.259637 0.858138
C14   C     C_R   0.499972 0.499873 0.740591 0.783200
C15   C     C_3   0.545790 0.576582 0.041712 -0.018999
C16   C     C_3   0.457560 0.422756 0.958932 -0.013126
C17   C     C_3   0.583836 0.496050 0.960667 -0.034423
C18   C     C_3   0.419328 0.503393 0.039648 -0.039420
C19   C     C_3   0.462078 0.581265 0.956946 -0.248649
C20   C     C_3   0.541277 0.418173 0.043639 -0.106967
C21   C     C_3   0.500618 0.499573 0.877058 -0.128607
C22   C     C_3   0.502412 0.499866 0.123416 -0.103820
C23   C     C_R   0.093363 0.576672 0.461261 -0.146461
C24   C     C_R   0.903961 0.412104 0.454304 -0.126914
C25   C     C_R   0.906122 0.579518 0.514391 -0.148159
C26   C     C_R   0.094571 0.413809 0.540069 -0.125969
C27   C     C_R   0.183458 0.584321 0.481485 0.010314
C28   C     C_R   0.812180 0.413825 0.445530 -0.004722
C29   C     C_R   0.815728 0.586166 0.496236 -0.013901
C30   C     C_R   0.186323 0.415555 0.551041 -0.025041
C31   C     C_R   0.232631 0.500681 0.516454 -0.215744
C32   C     C_R   0.766407 0.500499 0.474257 -0.221936
C33   C     C_R   0.047926 0.493615 0.494576 0.024334
C34   C     C_R   0.951119 0.494069 0.490345 0.028445
Cu1   Cu    Cu3+1 0.500000 0.596430 0.500000 1.009529
Cu2   Cu    Cu3+1 0.500000 0.403570 0.500000 1.021449
H1    H     H_    0.430229 0.647584 0.919432 0.156649
H2    H     H_    0.573535 0.351914 0.080860 0.175090
H3    H     H_    0.057700 0.638527 0.424720 0.172338
H4    H     H_    0.939060 0.347444 0.428529 0.173659
H5    H     H_    0.942165 0.643428 0.542307 0.172830
H6    H     H_    0.058981 0.350986 0.571373 0.176355
H7    H     H_    0.570688 0.070890 0.675836 0.149808
H8    H     H_    0.386783 0.927781 0.373996 0.155614
H9    H     H_    0.425619 0.073011 0.324465 0.155030
H10   H     H_    0.613114 0.928749 0.621971 0.154494
N1    N     N_R   0.500000 0.258690 0.500000 -0.252098
N2    N     N_R   0.500000 0.741310 0.500000 -0.248129
O1    O     O_R   0.371460 0.581430 0.500010 -0.559216
O2    O     O_R   0.628540 0.418570 0.499990 -0.587085
O3    O     O_R   0.628540 0.581430 0.499990 -0.564596
O4    O     O_R   0.371460 0.418570 0.500010 -0.586593
O5    O     O_R   0.499980 0.581420 0.316850 -0.567533
O6    O     O_R   0.500020 0.418580 0.683150 -0.533739
O7    O     O_R   0.500020 0.581420 0.683150 -0.576218
O8    O     O_R   0.499980 0.418580 0.316850 -0.538143
C35   C     C_2   0.596781 0.660442 0.092895 0.293171
H11   H     H_    0.655961 0.647986 0.149006 0.066266
O9    O     O_2   0.571842 0.742638 0.072603 -0.592019
C36   C     C_2   0.407395 0.337028 0.911905 0.404452
H12   H     H_    0.344674 0.347195 0.864054 0.013035
O10   O     O_2   0.436301 0.255842 0.928271 -0.528181
C37   C     C_2   0.675330 0.494200 0.912679 0.332793
H13   H     H_    0.696750 0.550154 0.849221 0.076293
O11   O     O_2   0.725997 0.430163 0.944576 -0.556323
C38   C     C_2   0.326043 0.507483 0.080651 0.310486
H14   H     H_    0.273375 0.509917 0.010607 0.059254
O12   O     O_2   0.308753 0.508105 0.191761 -0.530088
C39   C     C_2   0.220538 0.683219 0.476711 0.451038
H15   H     H_    0.273253 0.704735 0.540424 0.093804
O13   O     O_2   0.188655 0.744228 0.406611 -0.562743
C40   C     C_2   0.767289 0.326641 0.394967 0.366282
H16   H     H_    0.705569 0.332739 0.342949 0.093161
O14   O     O_2   0.800021 0.246795 0.408240 -0.554238
C41   C     C_2   0.778050 0.684996 0.487892 0.430655
H17   H     H_    0.721638 0.700229 0.427441 0.102855
O15   O     O_2   0.813075 0.752432 0.542688 -0.567939
C42   C     C_2   0.230411 0.330062 0.608598 0.325980
H18   H     H_    0.293573 0.336610 0.656020 0.089218
O16   O     O_2   0.195539 0.250861 0.605723 -0.546821
O17   O     O_3   0.588544 0.260688 0.685822 -0.562503
C43   C     C_3   0.676601 0.230411 0.704922 0.067243
H19   H     H_    0.719146 0.294827 0.694856 0.195220
H20   H     H_    0.699844 0.176693 0.635291 0.140161
C44   C     C_3   0.688881 0.190928 0.838380 -0.326666
H21   H     H_    0.669783 0.246984 0.906802 0.270932
H22   H     H_    0.645820 0.127481 0.851886 0.210812
C45   C     C_3   0.783796 0.161108 0.865128 -0.847896
H23   H     H_    0.803398 0.103188 0.799674 0.255011
H24   H     H_    0.790523 0.133413 0.962662 0.263564
H25   H     H_    0.828196 0.223897 0.854696 0.277277
O18   O     O_3   0.385556 0.738494 0.345274 -0.567840
C46   C     C_3   0.390833 0.767489 0.218003 0.099329
H26   H     H_    0.408956 0.703340 0.162589 0.205753
H27   H     H_    0.441573 0.823430 0.199784 0.154759
C47   C     C_3   0.301181 0.802611 0.169638 -0.332006
H28   H     H_    0.253125 0.742678 0.175188 0.270097
H29   H     H_    0.278282 0.862948 0.228830 0.238348
C48   C     C_3   0.305025 0.836951 0.033834 -0.910825
H30   H     H_    0.351951 0.897721 0.025778 0.267689
H31   H     H_    0.239073 0.862100 0.001798 0.269471
H32   H     H_    0.325615 0.777108 0.972152 0.249226
O19   O     O_3   0.408895 0.261246 0.316126 -0.569684
C49   C     C_3   0.317908 0.240370 0.315036 0.076620
H33   H     H_    0.282411 0.307071 0.340829 0.202736
H34   H     H_    0.298052 0.183271 0.382711 0.141008
C50   C     C_3   0.288267 0.211694 0.182482 -0.338133
H35   H     H_    0.302820 0.271473 0.116746 0.245477
H36   H     H_    0.324945 0.146641 0.153017 0.229552
C51   C     C_3   0.190123 0.190510 0.175548 -0.864670
H37   H     H_    0.174148 0.129424 0.238506 0.265844
H38   H     H_    0.170628 0.170855 0.077941 0.265211
H39   H     H_    0.152179 0.255116 0.203318 0.265657
O20   O     O_3   0.617735 0.737211 0.648710 -0.580021
C52   C     C_3   0.627356 0.772526 0.772895 0.053175
H40   H     H_    0.618711 0.710566 0.837106 0.184564
H41   H     H_    0.576913 0.826677 0.799301 0.142033
C53   C     C_3   0.720245 0.812300 0.794238 -0.336161
H42   H     H_    0.768347 0.752499 0.786624 0.248577
H43   H     H_    0.735042 0.866694 0.721320 0.245508
C54   C     C_3   0.731692 0.859175 0.922821 -0.853740
H44   H     H_    0.682131 0.916916 0.935088 0.264617
H45   H     H_    0.798033 0.891768 0.931319 0.255357
H46   H     H_    0.725424 0.804394 0.997972 0.280258

loop_
_geom_bond_atom_site_label_1
_geom_bond_atom_site_label_2
_ccdc_geom_bond_type
C38   O12   D    
C37   O11   D    
C46   H26   S    
Cu1   O5    S    
C15   C35   S    
Cu1   Cu2   S    
C4    C8    A    
C53   H43   S    
C49   H34   S    
O20   C52   S    
C44   H21   S    
C15   C19   S    
C3    H7    S    
C16   C21   S    
C14   C21   S    
C36   O10   D    
C19   C21   S    
C5    C11   A    
C29   C32   A    
C3    C7    A    
C6    C12   A    
C30   C31   A    
C42   O16   D    
C35   O9    D    
C52   H40   S    
C47   C48   S    
C1    C31   S    
C17   C20   S    
Cu2   N1    S    
C2    C32   S    
C18   C19   S    
C16   C36   S    
C39   O13   D    
C51   H37   S    
C54   H46   S    
C19   H1    S    
C53   H42   S    
C15   C22   S    
C52   H41   S    
C47   H29   S    
Cu1   O1    S    
C50   H35   S    
C8    O18   S    
C23   C27   A    
C4    C12   A    
C2    O2    A    
C27   C39   S    
C16   C20   S    
C25   C34   A    
C13   O8    A    
C14   O7    A    
C46   H27   S    
C50   H36   S    
C28   C40   S    
Cu1   N2    S    
C49   H33   S    
O17   C43   S    
C13   O5    A    
C44   H22   S    
C25   C29   A    
Cu1   O7    S    
C28   C32   A    
C3    C11   A    
C40   O14   D    
C25   H5    S    
C42   H18   S    
C4    H8    S    
C23   C33   A    
C27   C31   A    
C24   C34   A    
C36   H12   S    
C53   C54   S    
C7    N1    A    
C41   H17   S    
C8    N2    A    
C5    C9    A    
Cu2   O8    S    
C20   H2    S    
C26   C33   A    
C48   H30   S    
C45   H25   S    
C9    O19   S    
C52   C53   S    
C47   H28   S    
C33   C34   S    
C41   O15   D    
C51   H39   S    
C54   H44   S    
C7    O17   S    
C45   H24   S    
C9    N1    A    
C46   C47   S    
C43   H20   S    
C10   N2    A    
C50   C51   S    
C14   O6    A    
Cu2   O2    S    
C26   H6    S    
C44   C45   S    
C15   C17   S    
C6    H10   S    
C48   H31   S    
C18   C22   S    
C24   C28   A    
C20   C22   S    
C40   H16   S    
C10   O20   S    
C6    C10   A    
C11   C12   S    
C26   C30   A    
C29   C41   S    
C18   C38   S    
C43   C44   S    
Cu2   O4    S    
C17   C37   S    
Cu1   O3    S    
C35   H11   S    
C5    H9    S    
C23   H3    S    
O18   C46   S    
C24   H4    S    
C13   C22   S    
C38   H14   S    
C39   H15   S    
C1    O4    A    
C51   H38   S    
C54   H45   S    
Cu2   O6    S    
C2    O3    A    
C37   H13   S    
C30   C42   S    
C48   H32   S    
C45   H23   S    
C16   C18   S    
C43   H19   S    
O19   C49   S    
C1    O1    A    
C49   C50   S    
C17   C21   S    
