data_mof_unit_59969.cif
_audit_creation_date              2012-12-10T19:00:47-0500
_audit_creation_method            fapswitch 2.2
_symmetry_space_group_name_H-M    P1
_symmetry_Int_Tables_number       1
_space_group_crystal_system       triclinic
_cell_length_a                    15.000343
_cell_length_b                    10.847164
_cell_length_c                    9.566957
_cell_angle_alpha                 90.232754
_cell_angle_beta                  90.49237
_cell_angle_gamma                 90.644429
_cell_volume                      1556.48146985

loop_
_atom_site_label
_atom_site_type_symbol
_atom_type_description
_atom_site_fract_x
_atom_site_fract_y
_atom_site_fract_z
_atom_type_partial_charge
C1    C     C_R   0.500698 0.262799 0.499767 0.794889
C2    C     C_R   0.905047 0.610632 0.462764 0.044693
C3    C     C_R   0.955449 0.288217 0.571952 -0.165839
C4    C     C_R   0.047901 0.291349 0.572639 -0.218406
C5    C     C_R   0.093790 0.399253 0.536385 0.142723
C6    C     C_R   0.046898 0.506817 0.498776 -0.032215
C7    C     C_R   0.093873 0.616218 0.460944 0.059411
C8    C     C_R   0.044766 0.722878 0.424842 0.172789
C9    C     C_R   0.951091 0.719855 0.425896 0.081146
C10   C     C_R   0.186229 0.400142 0.536957 -0.266115
C11   C     C_R   0.232883 0.505673 0.498390 -0.108044
C12   C     C_R   0.329166 0.501195 0.499497 0.805668
C13   C     C_R   0.188445 0.614383 0.460613 0.128722
C14   C     C_R   0.497176 0.062592 0.620988 0.071381
C15   C     C_R   0.503386 0.130215 0.498507 -0.101253
C16   C     C_R   0.512329 0.064295 0.372019 -0.197568
C17   C     C_R   0.512167 0.935041 0.372139 -0.206559
C18   C     C_R   0.503157 0.869844 0.498802 -0.097224
C19   C     C_R   0.496484 0.938209 0.620990 0.062696
C20   C     C_3   0.482886 0.929388 0.775051 -0.258375
C21   C     C_3   0.482168 0.072014 0.774824 -0.264593
C22   C     C_R   0.538853 0.595003 0.074997 0.199671
C23   C     C_R   0.500737 0.737205 0.500049 0.784098
C24   C     C_R   0.450593 0.416054 0.072941 0.252042
C25   C     C_R   0.450631 0.416729 0.923839 -0.098090
C26   C     C_R   0.541999 0.592133 0.928414 0.205954
C27   C     C_3   0.638491 0.631409 0.930242 -0.288247
C28   C     C_3   0.632291 0.641351 0.088765 -0.530227
C29   C     C_R   0.670778 0.498722 0.500383 0.794053
C30   C     C_R   0.811840 0.605740 0.464149 -0.275110
C31   C     C_R   0.767000 0.497810 0.500851 -0.082068
C32   C     C_R   0.813442 0.390364 0.535041 0.106285
C33   C     C_R   0.906977 0.393485 0.535786 0.149075
C34   C     C_R   0.952993 0.503932 0.499279 -0.010831
Cu1   Cu    Cu3+1 0.500000 0.499980 0.640670 0.961499
Cu2   Cu    Cu3+1 0.500000 0.500020 0.359330 0.964757
H1    H     H_    0.772605 0.685592 0.437347 0.137827
H2    H     H_    0.518502 0.886943 0.273342 0.163166
H3    H     H_    0.539991 0.886502 0.830637 0.142434
H4    H     H_    0.417322 0.114834 0.800916 0.138143
H5    H     H_    0.411867 0.348394 0.866481 0.132713
H6    H     H_    0.650989 0.720946 0.877573 0.143563
H7    H     H_    0.676265 0.577720 0.147618 0.228757
H8    H     H_    0.634851 0.738225 0.127097 0.181027
H9    H     H_    0.922270 0.202868 0.600383 0.181676
H10   H     H_    0.083700 0.208789 0.601228 0.147209
H11   H     H_    0.222476 0.317883 0.565961 0.137811
H12   H     H_    0.518868 0.111783 0.273242 0.172015
N1    N     N_R   0.500570 0.500930 0.147930 -0.176167
N2    N     N_R   0.500570 0.500890 0.852020 -0.194355
O1    O     O_R   0.500000 0.319640 0.618810 -0.587726
O2    O     O_R   0.500010 0.319680 0.381230 -0.553811
O3    O     O_R   0.370250 0.499950 0.618800 -0.573813
O4    O     O_R   0.370260 0.499990 0.381220 -0.561880
O5    O     O_R   0.499990 0.680320 0.618770 -0.582177
O6    O     O_R   0.500000 0.680360 0.381190 -0.590007
O7    O     O_R   0.629740 0.500010 0.618780 -0.574824
O8    O     O_R   0.629750 0.500050 0.381200 -0.585434
C35   C     C_1   0.395939 0.873618 0.808918 0.277156
N3    N     N_1   0.327599 0.829470 0.835476 -0.286366
C36   C     C_1   0.559038 0.127963 0.848665 0.269000
N4    N     N_1   0.619401 0.172231 0.906806 -0.281285
N5    N     N_3   0.397983 0.326221 0.144615 -0.522069
H13   H     H_    0.331512 0.337344 0.113926 0.198324
H14   H     H_    0.417869 0.238906 0.111284 0.188364
C37   C     C_1   0.701009 0.533860 0.890565 0.372369
N6    N     N_1   0.750807 0.457415 0.861485 -0.281256
N7    N     N_3   0.766292 0.277464 0.564866 -0.605080
H15   H     H_    0.724852 0.291592 0.650512 0.258314
H16   H     H_    0.726208 0.254470 0.478457 0.212058
N8    N     N_3   0.239604 0.722364 0.424853 -0.545813
H17   H     H_    0.281935 0.745226 0.508676 0.218066
H18   H     H_    0.278396 0.702615 0.337506 0.232377
N9    N     N_3   0.089343 0.835468 0.386741 -0.531356
H19   H     H_    0.070231 0.905033 0.455923 0.236092
H20   H     H_    0.068912 0.859676 0.285840 0.241466
N10   N     N_3   0.904252 0.829909 0.388579 -0.610173
H21   H     H_    0.864811 0.856836 0.472691 0.225938
H22   H     H_    0.863472 0.811144 0.301727 0.226942

loop_
_geom_bond_atom_site_label_1
_geom_bond_atom_site_label_2
_ccdc_geom_bond_type
N5    H14   S    
Cu1   O3    S    
C19   C20   S    
C16   H12   S    
C7    C8    A    
C4    H10   S    
N10   H21   S    
C26   C27   S    
N9    H20   S    
C14   C21   S    
Cu2   O8    S    
C26   N2    A    
C5    C6    A    
C16   C17   A    
C3    C33   A    
C15   C16   A    
C18   C19   A    
C25   N2    A    
Cu1   Cu2   S    
C8    C9    A    
C1    C15   S    
C21   C36   S    
C12   O3    A    
Cu2   O2    S    
C32   N7    S    
C2    C34   A    
C37   N6    T    
C35   N3    T    
C22   C28   S    
C5    C10   A    
C17   C18   A    
N10   H22   S    
N9    H19   S    
Cu1   O5    S    
C18   C23   S    
C23   O6    A    
C24   C25   A    
C25   H5    S    
N8    H18   S    
C20   H3    S    
N7    H15   S    
C13   N8    S    
C3    H9    S    
C6    C34   A    
C30   H1    S    
Cu2   O6    S    
C31   C32   A    
Cu1   N2    S    
C8    N9    S    
C33   C34   A    
C9    N10   S    
C29   O8    A    
C20   C35   S    
C1    O1    A    
C22   N1    A    
C29   O7    A    
C24   N5    S    
Cu1   O1    S    
C3    C4    A    
C10   H11   S    
C24   N1    A    
C14   C19   A    
C4    C5    A    
C11   C12   S    
C23   O5    A    
C6    C7    A    
C28   H7    S    
C2    C30   A    
Cu1   O7    S    
C32   C33   A    
N8    H17   S    
C29   C31   S    
C27   C37   S    
C11   C13   A    
C27   H6    S    
C30   C31   A    
C21   H4    S    
C28   H8    S    
C17   H2    S    
C36   N4    T    
C1    O2    A    
Cu2   O4    S    
C10   C11   A    
N5    H13   S    
C7    C13   A    
C20   C21   S    
N7    H16   S    
C22   C26   A    
C27   C28   S    
C14   C15   A    
C2    C9    A    
C12   O4    A    
Cu2   N1    S    
