data_mof_unit_36079.cif
_audit_creation_date              2012-12-11T16:45:48-0500
_audit_creation_method            fapswitch 2.2
_symmetry_space_group_name_H-M    P1
_symmetry_Int_Tables_number       1
_space_group_crystal_system       triclinic
_cell_length_a                    19.899491
_cell_length_b                    17.006568
_cell_length_c                    15.424006
_cell_angle_alpha                 90.000126
_cell_angle_beta                  52.623174
_cell_angle_gamma                 90.000052
_cell_volume                      4147.9862159

loop_
_atom_site_label
_atom_site_type_symbol
_atom_type_description
_atom_site_fract_x
_atom_site_fract_y
_atom_site_fract_z
_atom_type_partial_charge
Br1   Br    Br    0.855492 0.788866 0.057713 -0.466091
Br2   Br    Br    0.144521 0.788861 0.942263 -0.466072
Br3   Br    Br    0.355491 0.288865 0.057718 -0.466142
Br4   Br    Br    0.644510 0.288864 0.942280 -0.466148
C1    C     C_R   0.846652 0.680191 0.032172 0.318543
C2    C     C_R   0.146907 0.308533 0.071932 0.160732
C3    C     C_R   0.353094 0.808532 0.928067 0.160762
C4    C     C_R   0.646907 0.808533 0.071932 0.160763
C5    C     C_R   0.892931 0.685061 0.303414 0.098490
C6    C     C_R   0.107069 0.685056 0.696583 0.098542
C7    C     C_R   0.392930 0.185056 0.303417 0.098534
C8    C     C_R   0.607071 0.185055 0.696582 0.098559
C9    C     C_R   0.839982 0.705456 0.492011 0.112724
C10   C     C_R   0.160046 0.705439 0.507977 0.112689
C11   C     C_R   0.339959 0.205443 0.492021 0.112693
C12   C     C_R   0.153352 0.680188 0.967822 0.318502
C13   C     C_R   0.660049 0.205438 0.507976 0.112762
C14   C     C_R   0.872769 0.739049 0.390503 -0.157649
C15   C     C_R   0.127238 0.739037 0.609488 -0.157628
C16   C     C_R   0.372763 0.239039 0.390511 -0.157626
C17   C     C_R   0.627240 0.239037 0.609487 -0.157665
C18   C     C_R   0.370697 0.322533 0.385433 0.521664
C19   C     C_R   0.629303 0.322530 0.614566 0.521661
C20   C     C_R   0.870687 0.822543 0.385429 0.521733
C21   C     C_R   0.129302 0.822531 0.614566 0.521662
C22   C     C_R   0.314493 0.364676 0.482643 -0.301074
C23   C     C_R   0.346652 0.180191 0.032172 0.318517
C24   C     C_R   0.685506 0.364674 0.517357 -0.301091
C25   C     C_R   0.814486 0.864683 0.482642 -0.301112
C26   C     C_R   0.185506 0.864674 0.517356 -0.301045
C27   C     C_R   0.266050 0.324833 0.582735 -0.035318
C28   C     C_R   0.733953 0.324831 0.417264 -0.035357
C29   C     C_R   0.766056 0.824840 0.582734 -0.035264
C30   C     C_R   0.233953 0.824831 0.417264 -0.035302
C31   C     C_R   0.788202 0.747769 0.586421 0.154572
C32   C     C_R   0.211826 0.747753 0.413570 0.154581
C33   C     C_R   0.288179 0.247757 0.586428 0.154568
C34   C     C_R   0.653349 0.180191 0.967827 0.318539
C35   C     C_R   0.711828 0.247753 0.413569 0.154711
C36   C     C_3   0.733734 0.677883 0.648570 -0.464221
C37   C     C_3   0.266313 0.677875 0.351430 -0.464210
C38   C     C_3   0.233697 0.177877 0.648571 -0.464216
C39   C     C_3   0.766317 0.177874 0.351429 -0.464483
C40   C     C_R   0.851437 0.328200 0.217680 -0.129096
C41   C     C_R   0.148564 0.328201 0.782320 -0.129060
C42   C     C_R   0.351437 0.828200 0.217680 -0.129012
C43   C     C_R   0.648564 0.828201 0.782320 -0.129066
C44   C     C_3   0.790381 0.631274 0.544886 -0.451730
C45   C     C_R   0.810573 0.358408 0.321261 0.116115
C46   C     C_3   0.209665 0.631264 0.455111 -0.451720
C47   C     C_3   0.290344 0.131266 0.544889 -0.451718
C48   C     C_3   0.709669 0.131263 0.455110 -0.451822
C49   C     C_2   0.774251 0.189641 0.978684 -0.138424
C50   C     C_2   0.225749 0.189641 0.021315 -0.138310
C51   C     C_2   0.274255 0.689638 0.978678 -0.138402
C52   C     C_2   0.725749 0.689641 0.021316 -0.138416
C53   C     C_2   0.315654 0.747341 0.905232 -0.156805
C54   C     C_2   0.684351 0.747343 0.094763 -0.156813
C55   C     C_2   0.815649 0.247343 0.905237 -0.156814
C56   C     C_R   0.189428 0.358409 0.678738 0.116087
C57   C     C_2   0.184351 0.247344 0.094762 -0.156849
C58   C     C_R   0.868739 0.386279 0.893990 -0.096014
C59   C     C_R   0.131261 0.386279 0.106010 -0.096002
C60   C     C_R   0.368740 0.886278 0.893989 -0.095890
C61   C     C_R   0.631261 0.886279 0.106010 -0.096011
C62   C     C_R   0.910612 0.607038 0.301161 -0.149791
C63   C     C_R   0.089390 0.607033 0.698836 -0.149800
C64   C     C_R   0.410610 0.107034 0.301163 -0.149794
C65   C     C_R   0.589391 0.107033 0.698836 -0.149815
C66   C     C_R   0.879722 0.297724 0.990309 -0.143422
C67   C     C_R   0.310573 0.858408 0.321262 0.116097
C68   C     C_R   0.120278 0.297724 0.009691 -0.143452
C69   C     C_R   0.379722 0.797724 0.990309 -0.143404
C70   C     C_R   0.620278 0.797724 0.009691 -0.143434
C71   C     C_R   0.900289 0.698724 0.209502 -0.034820
C72   C     C_R   0.099708 0.698724 0.790497 -0.034796
C73   C     C_R   0.400290 0.198723 0.209504 -0.034776
C74   C     C_R   0.599710 0.198723 0.790496 -0.034799
C75   C     C_R   0.859388 0.419746 0.316060 -0.135972
C76   C     C_R   0.140612 0.419746 0.683940 -0.135963
C77   C     C_R   0.359388 0.919746 0.316060 -0.135962
C78   C     C_R   0.689429 0.858409 0.678738 0.116082
C79   C     C_R   0.640612 0.919746 0.683941 -0.135964
C80   C     C_R   0.833783 0.582836 0.944197 -0.172427
C81   C     C_R   0.166219 0.582835 0.055800 -0.172445
C82   C     C_R   0.333783 0.082837 0.944197 -0.172314
C83   C     C_R   0.666217 0.082837 0.055802 -0.172434
C84   C     C_R   0.795535 0.649787 0.007107 0.053179
C85   C     C_R   0.204468 0.649784 0.992887 0.053178
C86   C     C_R   0.295536 0.149787 0.007107 0.053234
C87   C     C_R   0.704465 0.149786 0.992892 0.053189
C88   C     C_R   0.853093 0.308533 0.928068 0.160765
H1    H     H_    0.305293 0.427074 0.479347 0.185118
H2    H     H_    0.331893 0.683800 0.325345 0.205206
H3    H     H_    0.168115 0.183800 0.674659 0.205206
H4    H     H_    0.831896 0.183801 0.325345 0.205130
H5    H     H_    0.827445 0.585631 0.550778 0.189929
H6    H     H_    0.172616 0.585610 0.449208 0.189936
H7    H     H_    0.327396 0.085614 0.550790 0.189931
H8    H     H_    0.672622 0.085608 0.449207 0.189954
H9    H     H_    0.757142 0.610412 0.511653 0.205619
H10   H     H_    0.242895 0.610418 0.488361 0.205617
H11   H     H_    0.257111 0.110416 0.511643 0.205620
H12   H     H_    0.694703 0.427073 0.520653 0.185129
H13   H     H_    0.742900 0.110418 0.488361 0.205587
H14   H     H_    0.781849 0.178786 0.041611 0.129326
H15   H     H_    0.218151 0.178786 0.958388 0.129306
H16   H     H_    0.281851 0.678784 0.041608 0.129336
H17   H     H_    0.718151 0.678786 0.958388 0.129335
H18   H     H_    0.309958 0.756387 0.840362 0.164370
H19   H     H_    0.690049 0.756391 0.159630 0.164376
H20   H     H_    0.809951 0.256391 0.840369 0.164373
H21   H     H_    0.190050 0.256392 0.159630 0.164386
H22   H     H_    0.829933 0.281941 0.192298 0.111126
H23   H     H_    0.805272 0.927078 0.479350 0.185021
H24   H     H_    0.170068 0.281942 0.807701 0.111124
H25   H     H_    0.329933 0.781941 0.192298 0.111121
H26   H     H_    0.670069 0.781944 0.807702 0.111126
H27   H     H_    0.864575 0.411957 0.833240 0.105802
H28   H     H_    0.135425 0.411958 0.166760 0.105800
H29   H     H_    0.364577 0.911956 0.833238 0.105780
H30   H     H_    0.635425 0.911958 0.166760 0.105803
H31   H     H_    0.924497 0.578127 0.351056 0.111206
H32   H     H_    0.075511 0.578120 0.648938 0.111205
H33   H     H_    0.424490 0.078122 0.351061 0.111203
H34   H     H_    0.194704 0.927073 0.520652 0.185117
H35   H     H_    0.575511 0.078121 0.648937 0.111207
H36   H     H_    0.890225 0.242366 0.014874 0.096954
H37   H     H_    0.109775 0.242366 0.985126 0.096952
H38   H     H_    0.390226 0.742366 0.014874 0.096975
H39   H     H_    0.609774 0.742366 0.985126 0.096986
H40   H     H_    0.904055 0.755446 0.177555 0.222789
H41   H     H_    0.095934 0.755448 0.822444 0.222754
H42   H     H_    0.404058 0.255448 0.177559 0.222751
H43   H     H_    0.595941 0.255448 0.822441 0.222753
H44   H     H_    0.845968 0.456019 0.382422 0.103854
H45   H     H_    0.738632 0.659037 0.713584 0.192490
H46   H     H_    0.154032 0.456018 0.617578 0.103850
H47   H     H_    0.345968 0.956018 0.382423 0.103849
H48   H     H_    0.654033 0.956019 0.617579 0.103842
H49   H     H_    0.814371 0.548480 0.903872 0.133233
H50   H     H_    0.185631 0.548478 0.096124 0.133235
H51   H     H_    0.314371 0.048480 0.903872 0.133240
H52   H     H_    0.685630 0.048480 0.096127 0.133229
H53   H     H_    0.502836 0.489198 0.224206 0.381485
H54   H     H_    0.497125 0.489177 0.775798 0.381487
H55   H     H_    0.001997 0.989649 0.224362 0.381302
H56   H     H_    0.261432 0.659018 0.286404 0.192496
H57   H     H_    0.997169 0.989203 0.775784 0.381471
H58   H     H_    0.238581 0.159023 0.713594 0.192488
H59   H     H_    0.761436 0.159017 0.286403 0.192510
H60   H     H_    0.668148 0.683792 0.674670 0.205214
N1    N     N_R   0.908660 0.628630 0.995840 -0.074832
N2    N     N_R   0.096530 0.421430 0.063580 -0.047216
N3    N     N_R   0.403470 0.921430 0.936420 -0.047220
N4    N     N_R   0.596530 0.921430 0.063580 -0.047221
N5    N     N_R   0.927500 0.575670 0.211370 -0.050199
N6    N     N_R   0.072500 0.575670 0.788630 -0.050202
N7    N     N_R   0.427500 0.075670 0.211370 -0.050198
N8    N     N_R   0.572500 0.075670 0.788630 -0.050207
N9    N     N_R   0.908660 0.365680 0.995820 -0.044846
N10   N     N_R   0.091340 0.365680 0.004180 -0.044843
N11   N     N_R   0.408660 0.865680 0.995820 -0.044846
N12   N     N_R   0.091340 0.628630 0.004160 -0.074833
N13   N     N_R   0.591340 0.865680 0.004180 -0.044851
N14   N     N_R   0.922310 0.631420 0.151980 -0.061842
N15   N     N_R   0.077690 0.631420 0.848020 -0.061840
N16   N     N_R   0.422310 0.131420 0.151980 -0.061834
N17   N     N_R   0.577690 0.131420 0.848020 -0.061841
N18   N     N_R   0.927500 0.426330 0.211360 -0.045658
N19   N     N_R   0.072500 0.426330 0.788640 -0.045658
N20   N     N_R   0.427500 0.926330 0.211360 -0.045661
N21   N     N_R   0.572500 0.926330 0.788640 -0.045667
N22   N     N_R   0.903470 0.570760 0.936440 -0.061332
N23   N     N_R   0.408660 0.128630 0.995840 -0.074830
N24   N     N_R   0.096530 0.570760 0.063560 -0.061333
N25   N     N_R   0.403470 0.070760 0.936440 -0.061352
N26   N     N_R   0.596530 0.070760 0.063560 -0.061335
N27   N     N_R   0.591340 0.128630 0.004160 -0.074831
N28   N     N_R   0.922310 0.368460 0.151950 -0.045990
N29   N     N_R   0.077690 0.368460 0.848050 -0.045986
N30   N     N_R   0.422310 0.868460 0.151950 -0.045993
N31   N     N_R   0.577690 0.868460 0.848050 -0.045991
N32   N     N_R   0.903470 0.421430 0.936420 -0.047218
Ni1   Ni    Ni4+2 0.000000 0.630300 0.000000 0.306809
Ni2   Ni    Ni4+2 0.500000 0.130300 0.000000 0.306827
Ni3   Ni    Ni4+2 0.000000 0.369700 0.000000 0.213185
Ni4   Ni    Ni4+2 0.500000 0.869700 0.000000 0.213224
Ni5   Ni    Ni4+2 0.988090 0.497570 0.863760 0.210972
Ni6   Ni    Ni4+2 0.011910 0.497570 0.136240 0.210962
Ni7   Ni    Ni4+2 0.488090 0.997570 0.863760 0.210976
Ni8   Ni    Ni4+2 0.511910 0.997570 0.136240 0.210975
O1    O     O_2   0.517213 0.330908 0.184845 -0.255516
O2    O     O_2   0.982780 0.830905 0.815149 -0.255510
O3    O     O_2   0.105882 0.897575 0.783501 -0.268141
O4    O     O_3   0.034747 0.961282 0.705208 -0.530621
O5    O     O_2   0.394106 0.397574 0.216503 -0.268122
O6    O     O_3   0.465246 0.461285 0.294787 -0.530639
O7    O     O_2   0.482781 0.330901 0.815148 -0.255543
O8    O     O_2   0.605881 0.397574 0.783502 -0.268095
O9    O     O_3   0.534745 0.461280 0.705210 -0.530640
O10   O     O_2   0.017169 0.830962 0.184790 -0.254916
O11   O     O_2   0.893993 0.897569 0.216567 -0.268758
O12   O     O_3   0.965188 0.961319 0.294762 -0.530425
S1    S     S_3+6 0.438584 0.377372 0.264839 -0.026528
S2    S     S_3+6 0.561409 0.377368 0.735159 -0.026526
S3    S     S_3+6 0.938528 0.877394 0.264834 -0.026494
S4    S     S_3+6 0.061410 0.877370 0.735159 -0.026529

loop_
_geom_bond_atom_site_label_1
_geom_bond_atom_site_label_2
_ccdc_geom_bond_type
C40   C45   A    
C2    C59   A    
C8    C65   A    
C26   H34   S    
C41   C56   A    
N25   Ni7   S    
C83   C87   A    
N14   Ni1   S    
C37   C46   S    
O5    S1    D    
C63   H32   S    
C65   N8    A    
N26   N27   A    
N29   Ni3   S    
C41   N29   A    
C68   H37   S    
C3    C69   A    
N27   Ni2   S    
C6    C63   A    
C12   N12   A    
C73   N16   A    
C2    C68   A    
C44   H5    S    
C60   N3    A    
N19   Ni5   S    
C50   H15   S    
C72   N15   A    
Br1   C1    S    
C80   H49   S    
C75   N18   A    
H55   O12   S    
N17   Ni2   S    
C9    C31   A    
H54   O9    S    
H57   O4    S    
C10   C32   A    
N10   Ni3   S    
C76   H46   S    
C39   C48   S    
C52   C84   S    
C47   H11   S    
C60   H29   S    
N15   Ni1   S    
C25   C29   A    
C81   N24   A    
N7    N16   A    
C36   H60   S    
C23   C86   A    
C77   H47   S    
C13   C35   A    
C28   C35   A    
C33   C38   S    
C20   C25   A    
C11   C33   A    
C7    C73   A    
C4    C54   S    
N5    Ni6   S    
C1    C84   A    
C6    C72   A    
C49   H14   S    
C43   H26   S    
O3    S4    D    
C53   H18   S    
C58   C88   A    
N6    N15   A    
N8    N17   A    
N9    Ni3   S    
C11   C47   S    
C83   H52   S    
C63   N6    A    
C21   S4    S    
Br2   C12   S    
C29   C78   S    
C49   C55   D    
C38   C47   S    
C22   H1    S    
N2    Ni6   S    
C40   H22   S    
C12   C85   A    
C70   H39   S    
O6    S1    S    
C40   N28   A    
C32   C37   S    
C70   N13   A    
C80   N22   A    
N7    Ni8   S    
C13   C48   S    
C79   H48   S    
C64   H33   S    
N19   N29   A    
C82   H51   S    
C39   H4    S    
N5    N14   A    
N1    N22   A    
C17   C19   A    
C47   H7    S    
C11   C16   A    
C28   C45   S    
C7    C16   S    
C46   H6    S    
N13   Ni4   S    
N16   Ni2   S    
C26   C30   A    
C54   H19   S    
N23   Ni2   S    
C24   C28   A    
O1    S1    D    
C59   N2    A    
N23   N25   A    
N12   Ni1   S    
C82   C86   A    
N6    Ni5   S    
C23   N23   A    
C81   C85   A    
C7    C64   A    
C35   C39   S    
N3    N11   A    
C61   H30   S    
O11   S3    D    
C34   C87   A    
N21   Ni7   S    
O7    S2    D    
N20   Ni8   S    
C45   C75   A    
C18   S1    S    
C8    C74   A    
N11   Ni4   S    
C27   C56   S    
O4    S4    S    
C49   C87   S    
C75   H44   S    
N28   Ni3   S    
N26   Ni8   S    
C24   H12   S    
N24   Ni6   S    
C37   H2    S    
O12   S3    S    
C6    C15   S    
O9    S2    S    
C65   H35   S    
C36   H45   S    
C4    C70   A    
C55   H20   S    
C58   H27   S    
N30   Ni4   S    
C19   C24   A    
N21   N31   A    
C42   C67   A    
N3    Ni7   S    
C77   N20   A    
C9    C14   A    
C43   N31   A    
C16   C18   A    
C48   H13   S    
C46   H10   S    
O10   S3    D    
C51   C53   D    
C19   S2    S    
C57   H21   S    
C82   N25   A    
C14   C20   A    
C73   H42   S    
C64   N7    A    
C66   N9    A    
N4    Ni8   S    
C52   H17   S    
C39   H59   S    
C71   H40   S    
C2    C57   S    
C74   H43   S    
C66   H36   S    
C21   C26   A    
C36   C44   S    
C69   H38   S    
C56   C76   A    
O8    S2    D    
C34   N27   A    
C62   H31   S    
C22   C27   A    
C10   C15   A    
C43   C78   A    
C66   C88   A    
C80   C84   A    
N8    Ni7   S    
Br4   C34   S    
C81   H50   S    
C9    C44   S    
C72   H41   S    
C27   C33   A    
C50   C86   S    
C50   C57   D    
C61   N4    A    
O2    S4    D    
N18   Ni6   S    
C20   S3    S    
C48   H8    S    
C51   H16   S    
C42   N30   A    
N9    N32   A    
C79   N21   A    
C31   C36   S    
H53   O6    S    
C69   N11   A    
N31   Ni4   S    
C5    C62   A    
C83   N26   A    
C59   H28   S    
C41   H24   S    
C10   C46   S    
C37   H56   S    
N1    Ni1   S    
N4    N13   A    
C1    N1    A    
C44   H9    S    
C8    C17   S    
Br3   C23   S    
C29   C31   A    
C52   C54   D    
N12   N24   A    
C71   N14   A    
C30   C32   A    
C55   C88   S    
C74   N17   A    
C25   H23   S    
C38   H58   S    
C13   C17   A    
C3    C60   A    
C38   H3    S    
N22   Ni5   S    
C58   N32   A    
N20   N30   A    
C5    C14   S    
C4    C61   A    
C42   H25   S    
C51   C85   S    
C78   C79   A    
C18   C22   A    
N18   N28   A    
C68   N10   A    
N32   Ni5   S    
C15   C21   A    
C5    C71   A    
C76   N19   A    
C30   C67   S    
C3    C53   S    
C62   N5    A    
N2    N10   A    
C67   C77   A    
