data_mof_unit_21894.cif
_audit_creation_date              2012-10-26T19:45:29-0400
_audit_creation_method            fapswitch 2.2
_symmetry_space_group_name_H-M    P1
_symmetry_Int_Tables_number       1
_space_group_crystal_system       triclinic
_cell_length_a                    10.886382
_cell_length_b                    9.500085
_cell_length_c                    10.761723
_cell_angle_alpha                 89.621124
_cell_angle_beta                  90.78287
_cell_angle_gamma                 89.803691
_cell_volume                      1112.85901195

loop_
_atom_site_label
_atom_site_type_symbol
_atom_type_description
_atom_site_fract_x
_atom_site_fract_y
_atom_site_fract_z
_atom_type_partial_charge
C1    C     C_R   0.261486 0.500308 0.500818 0.544006
C2    C     C_R   0.437051 0.926492 0.410590 -0.004880
C3    C     C_R   0.563725 0.924635 0.589066 0.008863
C4    C     C_R   0.563821 0.073589 0.588995 0.007579
C5    C     C_R   0.503791 0.500370 0.259659 0.541184
C6    C     C_R   0.737251 0.499777 0.500726 0.539724
C7    C     C_R   0.501753 0.499442 0.740139 0.535533
C8    C     C_3   0.396137 0.584422 0.069060 -0.247943
C9    C     C_3   0.493665 0.347779 0.072003 -0.239423
C10   C     C_3   0.397799 0.588902 0.926494 -0.238444
C11   C     C_3   0.495329 0.346525 0.929782 -0.241584
C12   C     C_3   0.628185 0.562525 0.924614 -0.186533
C13   C     C_3   0.633437 0.566406 0.070254 0.035620
C14   C     C_3   0.508893 0.501122 0.121296 0.084967
C15   C     C_3   0.505404 0.498821 0.877673 0.031978
C16   C     C_3   0.653817 0.721232 0.111509 -0.383501
C17   C     C_3   0.747169 0.481481 0.117471 -0.393215
C18   C     C_3   0.121253 0.258192 0.620192 -0.255290
C19   C     C_3   0.179156 0.299052 0.744678 -0.421824
C20   C     C_3   0.114413 0.747684 0.391102 -0.260798
C21   C     C_3   0.166505 0.712250 0.264466 -0.437424
C22   C     C_R   0.061392 0.384281 0.555013 -0.010491
C23   C     C_R   0.058558 0.618416 0.452322 -0.006467
C24   C     C_R   0.933610 0.385543 0.551212 -0.135556
C25   C     C_R   0.931109 0.614960 0.453808 -0.138344
C26   C     C_R   0.869648 0.499673 0.501563 -0.016890
C27   C     C_R   0.126340 0.501104 0.502784 0.034736
C28   C     C_R   0.436512 0.075373 0.410905 0.000620
Cu1   Cu    Cu3+1 0.500020 0.640660 0.500000 0.900947
Cu2   Cu    Cu3+1 0.500020 0.359340 0.500000 0.905173
H1    H     H_    0.392271 0.693100 0.106117 0.115696
H2    H     H_    0.574461 0.281822 0.898543 0.116552
H3    H     H_    0.638428 0.669952 0.883988 0.112510
H4    H     H_    0.705730 0.499967 0.886727 0.099121
H5    H     H_    0.882826 0.298348 0.590583 0.119372
H6    H     H_    0.878483 0.701774 0.414070 0.124087
H7    H     H_    0.385299 0.132208 0.339729 0.102345
H8    H     H_    0.387205 0.871136 0.338687 0.104503
H9    H     H_    0.576027 0.790583 0.083698 0.116403
H10   H     H_    0.669843 0.729206 0.213185 0.166692
H11   H     H_    0.737130 0.764819 0.066909 0.104967
H12   H     H_    0.566056 0.276130 0.109795 0.125628
H13   H     H_    0.833468 0.533177 0.087648 0.117646
H14   H     H_    0.749372 0.474506 0.220494 0.142661
H15   H     H_    0.748867 0.373379 0.079316 0.115038
H16   H     H_    0.220120 0.204293 0.789976 0.123751
H17   H     H_    0.252158 0.378341 0.732102 0.172088
H18   H     H_    0.108142 0.343100 0.806706 0.131685
H19   H     H_    0.052063 0.175552 0.640397 0.114804
H20   H     H_    0.187936 0.204071 0.559979 0.174464
H21   H     H_    0.201123 0.809325 0.219106 0.111425
H22   H     H_    0.243053 0.636344 0.275118 0.171864
H23   H     H_    0.615067 0.867757 0.660124 0.103151
H24   H     H_    0.094064 0.665823 0.203812 0.138983
H25   H     H_    0.043866 0.831098 0.375201 0.118373
H26   H     H_    0.183297 0.798999 0.452170 0.170651
H27   H     H_    0.615214 0.129077 0.659976 0.098924
H28   H     H_    0.310116 0.531387 0.098080 0.098652
H29   H     H_    0.404745 0.303156 0.103527 0.111636
H30   H     H_    0.308749 0.549477 0.888938 0.103979
H31   H     H_    0.410035 0.295745 0.894452 0.121530
H32   H     H_    0.407300 0.700125 0.894946 0.128388
N1    N     N_R   0.500030 0.852070 0.500030 -0.223510
N2    N     N_R   0.500030 0.147930 0.500030 -0.221649
O1    O     O_R   0.319660 0.618740 0.499990 -0.505975
O2    O     O_R   0.319660 0.381260 0.499990 -0.509016
O3    O     O_R   0.499990 0.618790 0.317690 -0.518904
O4    O     O_R   0.499990 0.381210 0.317690 -0.512813
O5    O     O_R   0.680370 0.618830 0.500010 -0.508926
O6    O     O_R   0.680370 0.381170 0.500010 -0.503792
O7    O     O_R   0.500030 0.618780 0.682310 -0.510658
O8    O     O_R   0.500030 0.381220 0.682310 -0.514649

loop_
_geom_bond_atom_site_label_1
_geom_bond_atom_site_label_2
_ccdc_geom_bond_type
C4    H27   S    
C6    O5    A    
C10   H30   S    
C9    C14   S    
Cu1   N1    S    
C6    O6    A    
Cu1   Cu2   S    
Cu2   N2    S    
C9    C11   S    
C4    N2    A    
C9    H29   S    
C1    O1    A    
C12   C15   S    
C13   C17   S    
C20   H26   S    
C13   C16   S    
C17   H13   S    
C1    O2    A    
C9    H12   S    
C19   H16   S    
C25   C26   A    
C6    C26   S    
C13   C14   S    
C20   C21   S    
C12   C13   S    
C3    H23   S    
C23   C27   A    
C5    C14   S    
C10   H32   S    
C25   H6    S    
C28   H7    S    
C16   H10   S    
C5    O4    A    
Cu1   O1    S    
Cu2   O2    S    
C7    C15   S    
Cu2   O6    S    
C24   C26   A    
C11   H2    S    
C3    N1    A    
C22   C27   A    
C23   C25   A    
C11   H31   S    
C7    O7    A    
C21   H24   S    
C22   C24   A    
C17   H14   S    
C24   H5    S    
C20   H25   S    
C16   H9    S    
C12   H4    S    
C3    C4    A    
Cu1   O3    S    
C28   N2    A    
C21   H21   S    
C10   C15   S    
C2    N1    A    
C18   H20   S    
C8    C10   S    
C18   C19   S    
C19   H17   S    
C7    O8    A    
C1    C27   S    
Cu1   O5    S    
C2    H8    S    
C19   H18   S    
C2    C28   A    
C8    C14   S    
C8    H28   S    
C12   H3    S    
C18   C22   S    
C20   C23   S    
C11   C15   S    
C16   H11   S    
C21   H22   S    
Cu2   O4    S    
C8    H1    S    
C18   H19   S    
C17   H15   S    
Cu2   O8    S    
Cu1   O7    S    
C5    O3    A    
