data_mof_unit_12332.cif
_audit_creation_date              2012-12-10T19:04:46-0500
_audit_creation_method            fapswitch 2.2
_symmetry_space_group_name_H-M    P1
_symmetry_Int_Tables_number       1
_space_group_crystal_system       triclinic
_cell_length_a                    15.845981
_cell_length_b                    10.854758
_cell_length_c                    9.559656
_cell_angle_alpha                 90.745416
_cell_angle_beta                  90.091254
_cell_angle_gamma                 90.702357
_cell_volume                      1644.03662245

loop_
_atom_site_label
_atom_site_type_symbol
_atom_type_description
_atom_site_fract_x
_atom_site_fract_y
_atom_site_fract_z
_atom_type_partial_charge
C1    C     C_R   0.497561 0.262516 0.499055 0.786052
C2    C     C_3   0.082498 0.500058 0.499917 0.171910
C3    C     C_3   0.972324 0.607946 0.550052 -0.129095
C4    C     C_3   0.917178 0.498807 0.499989 0.173155
C5    C     C_3   0.028244 0.590999 0.418634 -0.161717
C6    C     C_3   0.971518 0.481864 0.368582 -0.163797
C7    C     C_1   0.174293 0.500280 0.499789 -0.070184
C8    C     C_1   0.825480 0.498129 0.499982 -0.037370
C9    C     C_R   0.473166 0.066107 0.619897 0.110894
C10   C     C_R   0.487614 0.129753 0.496474 -0.087583
C11   C     C_R   0.489715 0.062900 0.369761 -0.205679
C12   C     C_R   0.339806 0.499980 0.499889 0.810733
C13   C     C_R   0.490571 0.934397 0.371173 -0.188760
C14   C     C_R   0.489857 0.871385 0.499202 -0.078409
C15   C     C_R   0.474469 0.939222 0.621664 0.103269
C16   C     C_3   0.517364 0.940103 0.760917 -0.455230
C17   C     C_3   0.514898 0.079454 0.758983 -0.436582
C18   C     C_R   0.568625 0.542656 0.074939 0.159363
C19   C     C_R   0.436341 0.445661 0.073302 -0.068876
C20   C     C_R   0.436283 0.445753 0.924653 -0.088805
C21   C     C_R   0.569245 0.542435 0.927114 0.233397
C22   C     C_3   0.605520 0.670979 0.927404 0.165703
C23   C     C_R   0.498494 0.737941 0.500496 0.845850
C24   C     C_3   0.606066 0.668486 0.087477 -0.389140
C25   C     C_R   0.660119 0.498667 0.499997 0.887565
C26   C     C_3   0.971398 0.407911 0.581286 -0.135629
C27   C     C_3   0.027287 0.390950 0.449873 -0.160284
C28   C     C_1   0.249958 0.500191 0.499741 -0.178724
C29   C     C_1   0.749875 0.497977 0.499928 -0.088696
C30   C     C_3   0.028123 0.517039 0.631341 -0.143261
Cu1   Cu    Cu3+1 0.500000 0.499980 0.640670 0.985698
Cu2   Cu    Cu3+1 0.500000 0.500020 0.359330 0.960545
H1    H     H_    0.051202 0.301887 0.408743 0.138839
H2    H     H_    0.582793 0.905088 0.755138 0.256618
H3    H     H_    0.472116 0.119421 0.839207 0.193803
H4    H     H_    0.578540 0.123448 0.753053 0.219036
H5    H     H_    0.384064 0.403260 0.127920 0.141181
H6    H     H_    0.383982 0.403393 0.868534 0.145184
H7    H     H_    0.558683 0.735680 0.887309 0.084503
H8    H     H_    0.561325 0.735747 0.133152 0.128987
H9    H     H_    0.946646 0.332795 0.648040 0.148186
H10   H     H_    0.946915 0.467373 0.260747 0.150165
H11   H     H_    0.052922 0.666159 0.351876 0.142485
H12   H     H_    0.948223 0.696898 0.591214 0.152459
H13   H     H_    0.052702 0.531510 0.739193 0.141280
H14   H     H_    0.495487 0.109178 0.270469 0.170158
H15   H     H_    0.496037 0.885523 0.272443 0.160765
H16   H     H_    0.476389 0.900722 0.843768 0.182402
N1    N     N_R   0.500530 0.500930 0.147930 -0.193040
N2    N     N_R   0.500530 0.500890 0.852020 -0.215085
O1    O     O_R   0.500000 0.319640 0.618810 -0.585278
O2    O     O_R   0.500010 0.319680 0.381230 -0.585398
O3    O     O_R   0.379070 0.499970 0.618770 -0.588797
O4    O     O_R   0.379080 0.500010 0.381190 -0.585800
O5    O     O_R   0.499990 0.680320 0.618770 -0.565038
O6    O     O_R   0.500000 0.680360 0.381190 -0.596621
O7    O     O_R   0.620920 0.499990 0.618810 -0.514083
O8    O     O_R   0.620930 0.500030 0.381230 -0.583208
S1    S     S_3+6 0.706187 0.687118 0.841391 0.015233
O9    O     O_2   0.759297 0.783041 0.916141 -0.286190
O10   O     O_2   0.751760 0.566446 0.839142 -0.260929
O11   O     O_3   0.690470 0.734067 0.676654 -0.557026
H17   H     H_    0.747632 0.751943 0.639726 0.365927
C31   C     C_2   0.690150 0.668374 0.161849 1.044634
O12   O     O_2   0.708206 0.752906 0.242607 -0.598750
O13   O     O_R   0.746446 0.571550 0.141101 -0.712186
H18   H     H_    0.800541 0.583228 0.196697 0.319269

loop_
_geom_bond_atom_site_label_1
_geom_bond_atom_site_label_2
_ccdc_geom_bond_type
C14   C23   S    
C15   C16   S    
C3    C30   S    
C4    C26   S    
C23   O5    A    
O11   H17   S    
C17   H4    S    
C13   C14   A    
C18   C21   A    
C11   C13   A    
C9    C10   A    
C19   N1    A    
C30   H13   S    
C19   C20   A    
Cu2   O8    S    
C4    C8    S    
Cu1   O5    S    
C31   O12   D    
C16   H16   S    
O13   H18   S    
C5    H11   S    
S1    O9    D    
C24   C31   S    
C12   O4    A    
C21   C22   S    
Cu1   O3    S    
C1    O1    A    
Cu1   O7    S    
C26   C27   S    
C2    C27   S    
C12   O3    A    
C25   O7    A    
C12   C28   S    
C18   C24   S    
C22   H7    S    
Cu2   O4    S    
C21   N2    A    
C24   H8    S    
C26   C30   S    
C25   C29   S    
C5    C6    S    
C3    H12   S    
C1    O2    A    
C22   C24   S    
Cu2   N1    S    
S1    O10   D    
C2    C5    S    
C2    C30   S    
C8    C29   T    
Cu1   N2    S    
C3    C4    S    
C3    C5    S    
C23   O6    A    
C17   H3    S    
C20   H6    S    
C18   N1    A    
C4    C6    S    
C25   O8    A    
C10   C11   A    
C9    C17   S    
C22   S1    S    
C13   H15   S    
C14   C15   A    
Cu2   O2    S    
C11   H14   S    
C20   N2    A    
C19   H5    S    
C2    C7    S    
C16   H2    S    
C9    C15   A    
C6    H10   S    
C1    C10   S    
Cu2   O6    S    
Cu1   Cu2   S    
C27   H1    S    
C7    C28   T    
C6    C27   S    
C26   H9    S    
Cu1   O1    S    
C16   C17   S    
S1    O11   S    
C31   O13   S    
