data_mof_unit_60446.cif
_audit_creation_date              2012-12-10T17:49:57-0500
_audit_creation_method            fapswitch 2.2
_symmetry_space_group_name_H-M    P1
_symmetry_Int_Tables_number       1
_space_group_crystal_system       triclinic
_cell_length_a                    28.633022
_cell_length_b                    37.138566
_cell_length_c                    28.676514
_cell_angle_alpha                 90.98467
_cell_angle_beta                  90.002247
_cell_angle_gamma                 90.005761
_cell_volume                      30489.7970603

loop_
_atom_site_label
_atom_site_type_symbol
_atom_type_description
_atom_site_fract_x
_atom_site_fract_y
_atom_site_fract_z
_atom_type_partial_charge
C1    C     C_R   0.497175 0.650909 0.252965 0.805150
C2    C     C_R   0.499416 0.650696 0.749238 0.806620
C3    C     C_R   0.497155 0.349096 0.747012 0.804884
C4    C     C_R   0.499404 0.349311 0.250777 0.806531
C5    C     C_R   0.497175 0.150909 0.752965 0.805150
C6    C     C_R   0.499416 0.150696 0.249238 0.806620
C7    C     C_R   0.497155 0.849096 0.247012 0.804884
C8    C     C_R   0.499404 0.849311 0.750777 0.806531
C9    C     C_R   0.997175 0.650909 0.752965 0.805150
C10   C     C_R   0.999416 0.650696 0.249238 0.806620
C11   C     C_R   0.997155 0.349096 0.247012 0.804884
C12   C     C_R   0.999405 0.349311 0.750777 0.806531
C13   C     C_R   0.997175 0.150909 0.252965 0.805150
C14   C     C_R   0.999416 0.150696 0.749238 0.806620
C15   C     C_R   0.997155 0.849096 0.747012 0.804884
C16   C     C_R   0.999405 0.849311 0.250777 0.806531
C17   C     C_3   0.486023 0.974635 0.297993 0.658367
C18   C     C_3   0.489443 0.981664 0.696373 0.645706
C19   C     C_3   0.486032 0.025380 0.702012 0.658296
C20   C     C_3   0.489439 0.018351 0.303639 0.645674
C21   C     C_3   0.486023 0.474635 0.797993 0.658367
C22   C     C_3   0.489443 0.481664 0.196373 0.645706
C23   C     C_3   0.486032 0.525380 0.202012 0.658296
C24   C     C_3   0.489439 0.518351 0.803639 0.645674
C25   C     C_3   0.986023 0.974635 0.797993 0.658367
C26   C     C_3   0.989443 0.981664 0.196373 0.645706
C27   C     C_3   0.986032 0.025380 0.202012 0.658296
C28   C     C_3   0.989439 0.018351 0.803639 0.645674
C29   C     C_3   0.986023 0.474635 0.297993 0.658367
C30   C     C_3   0.989443 0.481664 0.696373 0.645706
C31   C     C_3   0.986032 0.525380 0.702012 0.658296
C32   C     C_3   0.989439 0.518351 0.303639 0.645674
C33   C     C_1   0.999098 0.611128 0.250105 -0.202009
C34   C     C_1   0.996157 0.611350 0.756633 -0.208182
C35   C     C_1   0.999092 0.388887 0.749911 -0.202226
C36   C     C_1   0.996142 0.388666 0.243346 -0.208408
C37   C     C_1   0.999098 0.111128 0.750105 -0.202009
C38   C     C_1   0.996157 0.111350 0.256633 -0.208182
C39   C     C_1   0.999092 0.888887 0.249911 -0.202226
C40   C     C_1   0.996142 0.888666 0.743346 -0.208408
C41   C     C_1   0.499098 0.611128 0.750105 -0.202009
C42   C     C_1   0.496157 0.611350 0.256633 -0.208182
C43   C     C_1   0.499092 0.388887 0.249911 -0.202226
C44   C     C_1   0.496142 0.388666 0.743346 -0.208408
C45   C     C_1   0.499098 0.111128 0.250105 -0.202009
C46   C     C_1   0.496157 0.111350 0.756633 -0.208182
C47   C     C_1   0.499092 0.888887 0.749911 -0.202226
C48   C     C_1   0.496142 0.888666 0.243346 -0.208408
C49   C     C_3   0.502645 0.963012 0.246828 -0.272356
C50   C     C_3   0.503662 0.963303 0.746100 -0.272200
C51   C     C_3   0.502653 0.037006 0.753172 -0.272178
C52   C     C_3   0.503658 0.036714 0.253914 -0.272192
C53   C     C_3   0.502645 0.463012 0.746828 -0.272356
C54   C     C_3   0.503662 0.463303 0.246100 -0.272200
C55   C     C_3   0.502653 0.537006 0.253172 -0.272178
C56   C     C_3   0.503658 0.536714 0.753914 -0.272192
C57   C     C_3   0.002645 0.963012 0.746828 -0.272356
C58   C     C_3   0.003662 0.963303 0.246100 -0.272200
C59   C     C_3   0.002653 0.037006 0.253172 -0.272178
C60   C     C_3   0.003658 0.036714 0.753914 -0.272192
C61   C     C_3   0.002645 0.463012 0.246828 -0.272356
C62   C     C_3   0.003662 0.463303 0.746100 -0.272200
C63   C     C_3   0.002653 0.537006 0.753172 -0.272178
C64   C     C_3   0.003658 0.536714 0.253914 -0.272192
C65   C     C_3   0.967314 0.523164 0.214826 0.696164
C66   C     C_3   0.967396 0.519681 0.790407 0.671446
C67   C     C_3   0.967324 0.476852 0.785191 0.696037
C68   C     C_3   0.967384 0.480337 0.209599 0.671327
C69   C     C_3   0.967314 0.023164 0.714826 0.696164
C70   C     C_3   0.967396 0.019681 0.290407 0.671446
C71   C     C_3   0.967324 0.976852 0.285191 0.696037
C72   C     C_3   0.967384 0.980337 0.709599 0.671327
C73   C     C_3   0.467314 0.523164 0.714826 0.696164
C74   C     C_3   0.467396 0.519681 0.290407 0.671446
C75   C     C_3   0.467324 0.476852 0.285191 0.696037
C76   C     C_3   0.467384 0.480337 0.709599 0.671327
C77   C     C_3   0.467314 0.023164 0.214826 0.696164
C78   C     C_3   0.467396 0.019681 0.790407 0.671446
C79   C     C_3   0.467324 0.976852 0.785191 0.696037
C80   C     C_3   0.467384 0.980337 0.209599 0.671327
C81   C     C_1   0.999845 0.578052 0.252208 0.193342
C82   C     C_1   0.998182 0.578215 0.758276 0.188977
C83   C     C_1   0.999844 0.421965 0.747809 0.193359
C84   C     C_1   0.998171 0.421803 0.241712 0.188795
C85   C     C_1   0.999845 0.078051 0.752208 0.193342
C86   C     C_1   0.998182 0.078215 0.258276 0.188977
C87   C     C_1   0.999844 0.921965 0.247809 0.193359
C88   C     C_1   0.998171 0.921803 0.741712 0.188795
C89   C     C_1   0.499845 0.578052 0.752208 0.193342
C90   C     C_1   0.498182 0.578215 0.258276 0.188977
C91   C     C_1   0.499844 0.421965 0.247809 0.193359
C92   C     C_1   0.498171 0.421803 0.741712 0.188795
C93   C     C_1   0.499845 0.078051 0.252208 0.193342
C94   C     C_1   0.498182 0.078215 0.758276 0.188977
C95   C     C_1   0.499844 0.921965 0.747809 0.193359
C96   C     C_1   0.498171 0.921803 0.241712 0.188795
C97   C     C_1   0.499545 0.750351 0.430758 -0.137199
C98   C     C_1   0.500448 0.749681 0.569241 -0.138727
C99   C     C_1   0.499545 0.249648 0.569242 -0.137207
C100  C     C_1   0.500448 0.250320 0.430759 -0.138751
C101  C     C_1   0.499545 0.250351 0.930758 -0.137200
C102  C     C_1   0.500448 0.249681 0.069241 -0.138727
C103  C     C_1   0.499545 0.749648 0.069242 -0.137207
C104  C     C_1   0.500448 0.750320 0.930759 -0.138752
C105  C     C_1   0.999545 0.750351 0.930758 -0.137199
C106  C     C_1   0.000448 0.749681 0.069241 -0.138727
C107  C     C_1   0.999544 0.249648 0.069242 -0.137207
C108  C     C_1   0.000448 0.250320 0.930759 -0.138751
C109  C     C_1   0.999545 0.250351 0.430758 -0.137200
C110  C     C_1   0.000448 0.249681 0.569241 -0.138727
C111  C     C_1   0.999544 0.749648 0.569242 -0.137207
C112  C     C_1   0.000448 0.750320 0.430759 -0.138752
C113  C     C_1   0.499784 0.750178 0.474142 0.009633
C114  C     C_1   0.500215 0.749861 0.525856 0.010223
C115  C     C_1   0.499784 0.249822 0.525857 0.009626
C116  C     C_1   0.500215 0.250139 0.474144 0.010221
C117  C     C_1   0.499784 0.250178 0.974142 0.009633
C118  C     C_1   0.500215 0.249861 0.025856 0.010223
C119  C     C_1   0.499784 0.749822 0.025857 0.009626
C120  C     C_1   0.500215 0.750139 0.974144 0.010221
C121  C     C_1   0.999784 0.750178 0.974142 0.009633
C122  C     C_1   0.000215 0.749861 0.025856 0.010223
C123  C     C_1   0.999784 0.249821 0.025857 0.009626
C124  C     C_1   0.000215 0.250139 0.974144 0.010221
C125  C     C_1   0.999784 0.250178 0.474142 0.009633
C126  C     C_1   0.000215 0.249861 0.525856 0.010223
C127  C     C_1   0.999784 0.749822 0.525857 0.009626
C128  C     C_1   0.000215 0.750139 0.474144 0.010221
C129  C     C_R   0.499781 0.749821 0.121071 0.801008
C130  C     C_R   0.500206 0.750171 0.878930 0.809901
C131  C     C_R   0.499782 0.250179 0.878928 0.800967
C132  C     C_R   0.500205 0.249829 0.121071 0.809859
C133  C     C_R   0.499781 0.249821 0.621071 0.801007
C134  C     C_R   0.500206 0.250171 0.378929 0.809900
C135  C     C_R   0.499782 0.750178 0.378928 0.800966
C136  C     C_R   0.500205 0.749829 0.621071 0.809858
C137  C     C_R   0.999782 0.749821 0.621071 0.801008
C138  C     C_R   0.000206 0.750171 0.378929 0.809901
C139  C     C_R   0.999782 0.250179 0.378928 0.800967
C140  C     C_R   0.000206 0.249829 0.621071 0.809859
C141  C     C_R   0.999782 0.249821 0.121071 0.801007
C142  C     C_R   0.000206 0.250171 0.878930 0.809900
C143  C     C_R   0.999782 0.750179 0.878928 0.800966
C144  C     C_R   0.000206 0.749829 0.121071 0.809858
C145  C     C_R   0.370947 0.750006 0.249990 0.811768
C146  C     C_R   0.371266 0.750005 0.750007 0.802033
C147  C     C_R   0.370947 0.250006 0.749990 0.811768
C148  C     C_R   0.371266 0.250005 0.250007 0.802033
C149  C     C_R   0.870947 0.750006 0.749990 0.811768
C150  C     C_R   0.871266 0.750005 0.250007 0.802033
C151  C     C_R   0.870947 0.250006 0.249990 0.811768
C152  C     C_R   0.871266 0.250005 0.750007 0.802033
C153  C     C_R   0.628724 0.749995 0.249993 0.803919
C154  C     C_R   0.629042 0.749994 0.750010 0.803671
C155  C     C_R   0.628724 0.249995 0.749993 0.803919
C156  C     C_R   0.629042 0.249994 0.250010 0.803671
C157  C     C_R   0.128724 0.749995 0.749993 0.803919
C158  C     C_R   0.129042 0.749994 0.250010 0.803671
C159  C     C_R   0.128724 0.249995 0.249993 0.803919
C160  C     C_R   0.129042 0.249994 0.750010 0.803671
C161  C     C_1   0.680650 0.749997 0.249994 -0.136995
C162  C     C_1   0.680771 0.749997 0.750008 -0.142463
C163  C     C_1   0.680650 0.249997 0.749994 -0.136995
C164  C     C_1   0.680771 0.249997 0.250008 -0.142463
C165  C     C_1   0.180650 0.749997 0.749994 -0.136995
C166  C     C_1   0.180772 0.749997 0.250008 -0.142463
C167  C     C_1   0.180650 0.249997 0.249994 -0.136995
C168  C     C_1   0.180772 0.249997 0.750008 -0.142463
C169  C     C_1   0.724118 0.749999 0.249997 0.008233
C170  C     C_1   0.724150 0.749999 0.750003 0.007156
C171  C     C_1   0.724119 0.249999 0.749997 0.008233
C172  C     C_1   0.724150 0.249999 0.250003 0.007156
C173  C     C_1   0.224118 0.749999 0.749997 0.008233
C174  C     C_1   0.224150 0.749999 0.250003 0.007156
C175  C     C_1   0.224118 0.249999 0.249997 0.008233
C176  C     C_1   0.224150 0.249999 0.750003 0.007156
C177  C     C_1   0.775869 0.750001 0.250003 0.008665
C178  C     C_1   0.775831 0.750001 0.749996 0.006161
C179  C     C_1   0.775869 0.250001 0.750003 0.008665
C180  C     C_1   0.775831 0.250001 0.249996 0.006161
C181  C     C_1   0.275869 0.750001 0.750003 0.008665
C182  C     C_1   0.275831 0.750001 0.249996 0.006161
C183  C     C_1   0.275869 0.250001 0.250003 0.008665
C184  C     C_1   0.275831 0.250001 0.749996 0.006161
C185  C     C_1   0.819338 0.750003 0.250007 -0.135584
C186  C     C_1   0.819210 0.750003 0.749992 -0.145516
C187  C     C_1   0.819338 0.250003 0.750007 -0.135584
C188  C     C_1   0.819210 0.250003 0.249992 -0.145516
C189  C     C_1   0.319338 0.750003 0.750007 -0.135584
C190  C     C_1   0.319210 0.750003 0.249992 -0.145516
C191  C     C_1   0.319338 0.250003 0.250007 -0.135584
C192  C     C_1   0.319210 0.250003 0.749992 -0.145516
C193  C     C_3   0.555008 0.979027 0.238482 0.627935
C194  C     C_3   0.555411 0.976540 0.758729 0.644717
C195  C     C_3   0.555014 0.020996 0.761518 0.627853
C196  C     C_3   0.555404 0.023482 0.241276 0.644595
C197  C     C_3   0.555008 0.479027 0.738482 0.627935
C198  C     C_3   0.555411 0.476540 0.258729 0.644717
C199  C     C_3   0.555014 0.520996 0.261518 0.627854
C200  C     C_3   0.555404 0.523482 0.741276 0.644595
C201  C     C_3   0.055008 0.979027 0.738482 0.627935
C202  C     C_3   0.055411 0.976540 0.258729 0.644717
C203  C     C_3   0.055014 0.020996 0.261518 0.627854
C204  C     C_3   0.055404 0.023482 0.741276 0.644595
C205  C     C_3   0.055008 0.479027 0.238482 0.627935
C206  C     C_3   0.055411 0.476540 0.758729 0.644717
C207  C     C_3   0.055014 0.520996 0.761518 0.627853
C208  C     C_3   0.055404 0.523482 0.241276 0.644595
O1    O     O_3   0.499990 0.750000 0.250000 -0.503537
O2    O     O_3   0.499990 0.750000 0.750000 -0.504301
O3    O     O_3   0.499990 0.250000 0.750000 -0.503537
O4    O     O_3   0.499990 0.250000 0.250000 -0.504301
O5    O     O_3   0.999990 0.750000 0.750000 -0.503537
O6    O     O_3   0.999990 0.750000 0.250000 -0.504301
O7    O     O_3   0.999990 0.250000 0.250000 -0.503537
O8    O     O_3   0.999990 0.250000 0.750000 -0.504301
O9    O     O_R   0.527870 0.668020 0.277880 -0.624829
O10   O     O_R   0.527870 0.668020 0.722120 -0.626609
O11   O     O_R   0.527870 0.331980 0.722120 -0.624762
O12   O     O_R   0.527870 0.331980 0.277880 -0.626576
O13   O     O_R   0.527870 0.168020 0.777880 -0.624830
O14   O     O_R   0.527870 0.168020 0.222120 -0.626609
O15   O     O_R   0.527870 0.831980 0.222120 -0.624762
O16   O     O_R   0.527870 0.831980 0.777880 -0.626577
O17   O     O_R   0.027870 0.668020 0.777880 -0.624829
O18   O     O_R   0.027870 0.668020 0.222120 -0.626609
O19   O     O_R   0.027870 0.331980 0.222120 -0.624762
O20   O     O_R   0.027870 0.331980 0.777880 -0.626576
O21   O     O_R   0.027870 0.168020 0.277880 -0.624830
O22   O     O_R   0.027870 0.168020 0.722120 -0.626609
O23   O     O_R   0.027870 0.831980 0.722120 -0.624762
O24   O     O_R   0.027870 0.831980 0.277880 -0.626577
O25   O     O_R   0.472130 0.728510 0.143730 -0.638356
O26   O     O_R   0.472130 0.728510 0.856270 -0.629902
O27   O     O_R   0.472130 0.271490 0.856270 -0.638345
O28   O     O_R   0.472130 0.271490 0.143730 -0.629889
O29   O     O_R   0.472130 0.228510 0.643730 -0.638356
O30   O     O_R   0.472130 0.228510 0.356270 -0.629903
O31   O     O_R   0.472130 0.771490 0.356270 -0.638345
O32   O     O_R   0.472130 0.771490 0.643730 -0.629889
O33   O     O_R   0.972130 0.728510 0.643730 -0.638356
O34   O     O_R   0.972130 0.728510 0.356270 -0.629902
O35   O     O_R   0.972130 0.271490 0.356270 -0.638345
O36   O     O_R   0.972130 0.271490 0.643730 -0.629889
O37   O     O_R   0.972130 0.228510 0.143730 -0.638356
O38   O     O_R   0.972130 0.228510 0.856270 -0.629903
O39   O     O_R   0.972130 0.771490 0.856270 -0.638345
O40   O     O_R   0.972130 0.771490 0.143730 -0.629889
O41   O     O_R   0.393720 0.728520 0.222140 -0.632806
O42   O     O_R   0.393720 0.728520 0.777860 -0.631208
O43   O     O_R   0.393720 0.271480 0.777860 -0.632793
O44   O     O_R   0.393720 0.271480 0.222140 -0.631196
O45   O     O_R   0.393720 0.228520 0.722140 -0.632806
O46   O     O_R   0.393720 0.228520 0.277860 -0.631208
O47   O     O_R   0.393720 0.771480 0.277860 -0.632793
O48   O     O_R   0.393720 0.771480 0.722140 -0.631196
O49   O     O_R   0.893720 0.728520 0.722140 -0.632806
O50   O     O_R   0.893720 0.728520 0.277860 -0.631208
O51   O     O_R   0.893720 0.271480 0.277860 -0.632793
O52   O     O_R   0.893720 0.271480 0.722140 -0.631196
O53   O     O_R   0.893720 0.228520 0.222140 -0.632806
O54   O     O_R   0.893720 0.228520 0.777860 -0.631208
O55   O     O_R   0.893720 0.771480 0.777860 -0.632793
O56   O     O_R   0.893720 0.771480 0.222140 -0.631196
O57   O     O_R   0.606280 0.728500 0.277860 -0.629696
O58   O     O_R   0.606280 0.728500 0.722140 -0.635314
O59   O     O_R   0.606280 0.271500 0.722140 -0.629699
O60   O     O_R   0.606280 0.271500 0.277860 -0.635326
O61   O     O_R   0.606280 0.228500 0.777860 -0.629697
O62   O     O_R   0.606280 0.228500 0.222140 -0.635314
O63   O     O_R   0.606280 0.771500 0.222140 -0.629700
O64   O     O_R   0.606280 0.771500 0.777860 -0.635327
O65   O     O_R   0.106280 0.728500 0.777860 -0.629696
O66   O     O_R   0.106280 0.728500 0.222140 -0.635314
O67   O     O_R   0.106280 0.271500 0.222140 -0.629699
O68   O     O_R   0.106280 0.271500 0.777860 -0.635326
O69   O     O_R   0.106280 0.228500 0.277860 -0.629697
O70   O     O_R   0.106280 0.228500 0.722140 -0.635314
O71   O     O_R   0.106280 0.771500 0.722140 -0.629700
O72   O     O_R   0.106280 0.771500 0.277860 -0.635327
O73   O     O_R   0.527850 0.771500 0.143710 -0.626502
O74   O     O_R   0.527850 0.771500 0.856290 -0.630516
O75   O     O_R   0.527850 0.228500 0.856290 -0.626472
O76   O     O_R   0.527850 0.228500 0.143710 -0.630485
O77   O     O_R   0.527850 0.271500 0.643710 -0.626501
O78   O     O_R   0.527850 0.271500 0.356290 -0.630515
O79   O     O_R   0.527850 0.728500 0.356290 -0.626471
O80   O     O_R   0.527850 0.728500 0.643710 -0.630485
O81   O     O_R   0.027850 0.771500 0.643710 -0.626502
O82   O     O_R   0.027850 0.771500 0.356290 -0.630516
O83   O     O_R   0.027850 0.228500 0.356290 -0.626472
O84   O     O_R   0.027850 0.228500 0.643710 -0.630485
O85   O     O_R   0.027850 0.271500 0.143710 -0.626501
O86   O     O_R   0.027850 0.271500 0.856290 -0.630515
O87   O     O_R   0.027850 0.728500 0.856290 -0.626471
O88   O     O_R   0.027850 0.728500 0.143710 -0.630485
O89   O     O_R   0.472140 0.668020 0.222150 -0.634366
O90   O     O_R   0.472140 0.668020 0.777850 -0.631971
O91   O     O_R   0.472140 0.331980 0.777850 -0.634288
O92   O     O_R   0.472140 0.331980 0.222150 -0.631911
O93   O     O_R   0.472140 0.168020 0.722150 -0.634366
O94   O     O_R   0.472140 0.168020 0.277850 -0.631971
O95   O     O_R   0.472140 0.831980 0.277850 -0.634288
O96   O     O_R   0.472140 0.831980 0.722150 -0.631911
O97   O     O_R   0.972140 0.668020 0.722150 -0.634366
O98   O     O_R   0.972140 0.668020 0.277850 -0.631971
O99   O     O_R   0.972140 0.331980 0.277850 -0.634288
O100  O     O_R   0.972140 0.331980 0.722150 -0.631911
O101  O     O_R   0.972140 0.168020 0.222150 -0.634366
O102  O     O_R   0.972140 0.168020 0.777850 -0.631971
O103  O     O_R   0.972140 0.831980 0.777850 -0.634288
O104  O     O_R   0.972140 0.831980 0.222150 -0.631911
Zn1   Zn    Zn3+2 0.539790 0.780710 0.210180 0.983490
Zn2   Zn    Zn3+2 0.539790 0.780710 0.789820 0.979259
Zn3   Zn    Zn3+2 0.539790 0.219290 0.789820 0.983505
Zn4   Zn    Zn3+2 0.539790 0.219290 0.210180 0.979264
Zn5   Zn    Zn3+2 0.539790 0.280710 0.710180 0.983490
Zn6   Zn    Zn3+2 0.539790 0.280710 0.289820 0.979259
Zn7   Zn    Zn3+2 0.539790 0.719290 0.289820 0.983506
Zn8   Zn    Zn3+2 0.539790 0.719290 0.710180 0.979264
Zn9   Zn    Zn3+2 0.039790 0.780710 0.710180 0.983490
Zn10  Zn    Zn3+2 0.039790 0.780710 0.289820 0.979259
Zn11  Zn    Zn3+2 0.039790 0.219290 0.289820 0.983505
Zn12  Zn    Zn3+2 0.039790 0.219290 0.710180 0.979264
Zn13  Zn    Zn3+2 0.039790 0.280710 0.210180 0.983490
Zn14  Zn    Zn3+2 0.039790 0.280710 0.789820 0.979259
Zn15  Zn    Zn3+2 0.039790 0.719290 0.789820 0.983506
Zn16  Zn    Zn3+2 0.039790 0.719290 0.210180 0.979264
Zn17  Zn    Zn3+2 0.460190 0.719300 0.210200 0.969311
Zn18  Zn    Zn3+2 0.460190 0.719300 0.789800 0.981701
Zn19  Zn    Zn3+2 0.460190 0.280700 0.789800 0.969301
Zn20  Zn    Zn3+2 0.460190 0.280700 0.210200 0.981726
Zn21  Zn    Zn3+2 0.460190 0.219300 0.710200 0.969311
Zn22  Zn    Zn3+2 0.460190 0.219300 0.289800 0.981701
Zn23  Zn    Zn3+2 0.460190 0.780700 0.289800 0.969301
Zn24  Zn    Zn3+2 0.460190 0.780700 0.710200 0.981726
Zn25  Zn    Zn3+2 0.960190 0.719300 0.710200 0.969311
Zn26  Zn    Zn3+2 0.960190 0.719300 0.289800 0.981701
Zn27  Zn    Zn3+2 0.960190 0.280700 0.289800 0.969301
Zn28  Zn    Zn3+2 0.960190 0.280700 0.710200 0.981726
Zn29  Zn    Zn3+2 0.960190 0.219300 0.210200 0.969311
Zn30  Zn    Zn3+2 0.960190 0.219300 0.789800 0.981701
Zn31  Zn    Zn3+2 0.960190 0.780700 0.789800 0.969301
Zn32  Zn    Zn3+2 0.960190 0.780700 0.210200 0.981726
O105  O     O_3   0.091026 0.539237 0.269319 -0.689231
C209  C     C_3   0.086627 0.570326 0.297080 0.072196
H1    H     H_    0.108595 0.567868 0.328556 0.142543
H2    H     H_    0.052969 0.575767 0.312244 0.219295
C210  C     C_3   0.101655 0.602588 0.270019 -0.375594
H3    H     H_    0.139072 0.600443 0.261946 0.223120
H4    H     H_    0.084126 0.603617 0.235878 0.241382
C211  C     C_3   0.092448 0.637436 0.297750 -0.907622
H5    H     H_    0.055842 0.639435 0.310647 0.242689
H6    H     H_    0.101622 0.660970 0.277532 0.280237
H7    H     H_    0.113222 0.637902 0.330213 0.245360
O106  O     O_3   0.086025 0.538532 0.730391 -0.723819
C212  C     C_3   0.119615 0.519735 0.704774 0.103127
H8    H     H_    0.133153 0.536440 0.675252 0.090151
H9    H     H_    0.107906 0.498169 0.684149 0.184300
C213  C     C_3   0.158615 0.507891 0.736203 -0.214750
H10   H     H_    0.179307 0.531680 0.745664 0.186480
H11   H     H_    0.145597 0.498239 0.770263 0.263072
C214  C     C_3   0.190455 0.479501 0.713875 -0.937497
H12   H     H_    0.172407 0.453973 0.704910 0.280471
H13   H     H_    0.217765 0.472993 0.739548 0.261817
H14   H     H_    0.206922 0.489365 0.682082 0.247598
O107  O     O_3   0.091021 0.460789 0.730675 -0.689165
C215  C     C_3   0.086615 0.429692 0.702923 0.072244
H15   H     H_    0.108577 0.432151 0.671445 0.142613
H16   H     H_    0.052954 0.424243 0.687764 0.219307
C216  C     C_3   0.101649 0.397433 0.729983 -0.375875
H17   H     H_    0.139065 0.399586 0.738062 0.223122
H18   H     H_    0.084117 0.396393 0.764120 0.241337
C217  C     C_3   0.092447 0.362584 0.702250 -0.907501
H19   H     H_    0.055832 0.360568 0.689376 0.242731
H20   H     H_    0.101646 0.339055 0.722461 0.280252
H21   H     H_    0.113198 0.362131 0.669773 0.245351
O108  O     O_3   0.086020 0.461490 0.269606 -0.723776
C218  C     C_3   0.119607 0.480292 0.295229 0.103109
H22   H     H_    0.133136 0.463591 0.324759 0.090204
H23   H     H_    0.107894 0.501857 0.315847 0.184253
C219  C     C_3   0.158614 0.492146 0.263812 -0.214743
H24   H     H_    0.179287 0.468357 0.254325 0.186537
H25   H     H_    0.145612 0.501822 0.229759 0.262994
C220  C     C_3   0.190473 0.520507 0.286183 -0.937690
H26   H     H_    0.172427 0.546028 0.295188 0.280412
H27   H     H_    0.217790 0.527034 0.260530 0.261893
H28   H     H_    0.206922 0.510610 0.317964 0.247657
O109  O     O_3   0.091026 0.039237 0.769319 -0.689231
C221  C     C_3   0.086627 0.070326 0.797080 0.072196
H29   H     H_    0.108595 0.067868 0.828556 0.142543
H30   H     H_    0.052969 0.075767 0.812244 0.219295
C222  C     C_3   0.101655 0.102588 0.770019 -0.375594
H31   H     H_    0.139072 0.100443 0.761946 0.223120
H32   H     H_    0.084126 0.103617 0.735878 0.241382
C223  C     C_3   0.092448 0.137436 0.797750 -0.907622
H33   H     H_    0.055842 0.139435 0.810647 0.242689
H34   H     H_    0.101622 0.160970 0.777532 0.280237
H35   H     H_    0.113222 0.137902 0.830213 0.245360
O110  O     O_3   0.086025 0.038532 0.230391 -0.723819
C224  C     C_3   0.119615 0.019735 0.204774 0.103127
H36   H     H_    0.133153 0.036440 0.175252 0.090151
H37   H     H_    0.107906 0.998169 0.184149 0.184300
C225  C     C_3   0.158615 0.007891 0.236203 -0.214750
H38   H     H_    0.179307 0.031680 0.245664 0.186480
H39   H     H_    0.145597 0.998239 0.270263 0.263072
C226  C     C_3   0.190455 0.979501 0.213875 -0.937497
H40   H     H_    0.172407 0.953973 0.204910 0.280471
H41   H     H_    0.217765 0.972993 0.239548 0.261817
H42   H     H_    0.206922 0.989365 0.182082 0.247598
O111  O     O_3   0.091021 0.960789 0.230675 -0.689165
C227  C     C_3   0.086615 0.929692 0.202923 0.072244
H43   H     H_    0.108577 0.932151 0.171445 0.142613
H44   H     H_    0.052954 0.924243 0.187764 0.219307
C228  C     C_3   0.101649 0.897433 0.229983 -0.375875
H45   H     H_    0.139065 0.899586 0.238062 0.223122
H46   H     H_    0.084117 0.896393 0.264120 0.241337
C229  C     C_3   0.092447 0.862584 0.202250 -0.907502
H47   H     H_    0.055832 0.860568 0.189377 0.242731
H48   H     H_    0.101646 0.839055 0.222461 0.280252
H49   H     H_    0.113198 0.862131 0.169773 0.245351
O112  O     O_3   0.086020 0.961490 0.769606 -0.723776
C230  C     C_3   0.119607 0.980292 0.795229 0.103109
H50   H     H_    0.133136 0.963592 0.824759 0.090204
H51   H     H_    0.107894 0.001857 0.815847 0.184253
C231  C     C_3   0.158614 0.992146 0.763812 -0.214743
H52   H     H_    0.179287 0.968357 0.754325 0.186537
H53   H     H_    0.145612 0.001822 0.729759 0.262994
C232  C     C_3   0.190473 0.020507 0.786183 -0.937690
H54   H     H_    0.172427 0.046028 0.795188 0.280412
H55   H     H_    0.217790 0.027034 0.760530 0.261893
H56   H     H_    0.206922 0.010610 0.817964 0.247657
O113  O     O_3   0.591026 0.539237 0.769319 -0.689231
C233  C     C_3   0.586627 0.570326 0.797080 0.072196
H57   H     H_    0.608595 0.567868 0.828556 0.142543
H58   H     H_    0.552969 0.575767 0.812244 0.219295
C234  C     C_3   0.601655 0.602588 0.770019 -0.375594
H59   H     H_    0.639072 0.600443 0.761946 0.223120
H60   H     H_    0.584126 0.603617 0.735878 0.241382
C235  C     C_3   0.592448 0.637436 0.797750 -0.907622
H61   H     H_    0.555842 0.639435 0.810647 0.242689
H62   H     H_    0.601622 0.660970 0.777532 0.280237
H63   H     H_    0.613222 0.637902 0.830213 0.245360
O114  O     O_3   0.586025 0.538532 0.230391 -0.723819
C236  C     C_3   0.619615 0.519735 0.204774 0.103127
H64   H     H_    0.633153 0.536440 0.175252 0.090151
H65   H     H_    0.607906 0.498169 0.184149 0.184300
C237  C     C_3   0.658616 0.507891 0.236203 -0.214750
H66   H     H_    0.679307 0.531680 0.245664 0.186480
H67   H     H_    0.645597 0.498239 0.270263 0.263072
C238  C     C_3   0.690455 0.479501 0.213875 -0.937497
H68   H     H_    0.672407 0.453973 0.204910 0.280471
H69   H     H_    0.717765 0.472993 0.239548 0.261817
H70   H     H_    0.706922 0.489365 0.182082 0.247598
O115  O     O_3   0.591021 0.460789 0.230675 -0.689165
C239  C     C_3   0.586615 0.429692 0.202923 0.072244
H71   H     H_    0.608577 0.432151 0.171445 0.142613
H72   H     H_    0.552954 0.424243 0.187764 0.219307
C240  C     C_3   0.601649 0.397433 0.229983 -0.375875
H73   H     H_    0.639065 0.399586 0.238062 0.223122
H74   H     H_    0.584117 0.396393 0.264120 0.241337
C241  C     C_3   0.592447 0.362584 0.202250 -0.907501
H75   H     H_    0.555832 0.360568 0.189377 0.242731
H76   H     H_    0.601646 0.339055 0.222461 0.280252
H77   H     H_    0.613198 0.362131 0.169773 0.245351
O116  O     O_3   0.586020 0.461490 0.769606 -0.723776
C242  C     C_3   0.619606 0.480292 0.795229 0.103109
H78   H     H_    0.633136 0.463591 0.824759 0.090204
H79   H     H_    0.607894 0.501857 0.815847 0.184253
C243  C     C_3   0.658614 0.492146 0.763812 -0.214743
H80   H     H_    0.679288 0.468357 0.754325 0.186537
H81   H     H_    0.645612 0.501822 0.729759 0.262994
C244  C     C_3   0.690473 0.520507 0.786183 -0.937690
H82   H     H_    0.672427 0.546028 0.795188 0.280412
H83   H     H_    0.717790 0.527034 0.760530 0.261893
H84   H     H_    0.706922 0.510610 0.817964 0.247657
O117  O     O_3   0.591026 0.039237 0.269319 -0.689231
C245  C     C_3   0.586627 0.070326 0.297080 0.072196
H85   H     H_    0.608595 0.067868 0.328556 0.142543
H86   H     H_    0.552969 0.075767 0.312244 0.219295
C246  C     C_3   0.601655 0.102588 0.270019 -0.375594
H87   H     H_    0.639072 0.100443 0.261946 0.223120
H88   H     H_    0.584126 0.103617 0.235878 0.241382
C247  C     C_3   0.592448 0.137436 0.297750 -0.907622
H89   H     H_    0.555842 0.139435 0.310647 0.242689
H90   H     H_    0.601622 0.160970 0.277532 0.280237
H91   H     H_    0.613222 0.137902 0.330213 0.245361
O118  O     O_3   0.586025 0.038532 0.730391 -0.723819
C248  C     C_3   0.619615 0.019735 0.704774 0.103127
H92   H     H_    0.633153 0.036440 0.675252 0.090151
H93   H     H_    0.607906 0.998169 0.684149 0.184300
C249  C     C_3   0.658615 0.007891 0.736203 -0.214750
H94   H     H_    0.679307 0.031680 0.745664 0.186480
H95   H     H_    0.645597 0.998239 0.770263 0.263072
C250  C     C_3   0.690455 0.979501 0.713875 -0.937497
H96   H     H_    0.672407 0.953973 0.704910 0.280471
H97   H     H_    0.717765 0.972993 0.739548 0.261817
H98   H     H_    0.706922 0.989365 0.682082 0.247598
O119  O     O_3   0.591021 0.960789 0.730675 -0.689165
C251  C     C_3   0.586615 0.929692 0.702923 0.072244
H99   H     H_    0.608577 0.932151 0.671445 0.142613
H100  H     H_    0.552954 0.924243 0.687764 0.219307
C252  C     C_3   0.601649 0.897433 0.729983 -0.375875
H101  H     H_    0.639065 0.899586 0.738062 0.223122
H102  H     H_    0.584117 0.896393 0.764120 0.241337
C253  C     C_3   0.592447 0.862584 0.702250 -0.907502
H103  H     H_    0.555832 0.860568 0.689376 0.242731
H104  H     H_    0.601646 0.839055 0.722461 0.280252
H105  H     H_    0.613198 0.862131 0.669773 0.245351
O120  O     O_3   0.586020 0.961490 0.269606 -0.723776
C254  C     C_3   0.619606 0.980292 0.295229 0.103109
H106  H     H_    0.633136 0.963592 0.324759 0.090204
H107  H     H_    0.607894 0.001857 0.315847 0.184253
C255  C     C_3   0.658614 0.992146 0.263812 -0.214743
H108  H     H_    0.679288 0.968357 0.254325 0.186537
H109  H     H_    0.645612 0.001822 0.229759 0.262994
C256  C     C_3   0.690473 0.020507 0.286183 -0.937690
H110  H     H_    0.672427 0.046028 0.295188 0.280412
H111  H     H_    0.717790 0.027034 0.260530 0.261893
H112  H     H_    0.706922 0.010610 0.317964 0.247657
O121  O     O_3   0.438110 0.966470 0.300957 -0.686145
H113  H     H_    0.430285 0.953450 0.328292 0.372399
O122  O     O_3   0.444333 0.967792 0.684872 -0.684678
H114  H     H_    0.445321 0.953841 0.656615 0.365364
O123  O     O_3   0.438120 0.033539 0.699049 -0.686157
H115  H     H_    0.430296 0.046558 0.671713 0.372397
O124  O     O_3   0.444327 0.032214 0.315134 -0.684655
H116  H     H_    0.445312 0.046170 0.343387 0.365380
O125  O     O_3   0.438110 0.466470 0.800957 -0.686145
H117  H     H_    0.430285 0.453450 0.828292 0.372399
O126  O     O_3   0.444333 0.467792 0.184872 -0.684678
H118  H     H_    0.445321 0.453841 0.156615 0.365364
O127  O     O_3   0.438120 0.533539 0.199049 -0.686157
H119  H     H_    0.430296 0.546558 0.171713 0.372397
O128  O     O_3   0.444327 0.532214 0.815134 -0.684655
H120  H     H_    0.445312 0.546170 0.843387 0.365380
O129  O     O_3   0.938110 0.966470 0.800957 -0.686145
H121  H     H_    0.930285 0.953450 0.828292 0.372399
O130  O     O_3   0.944333 0.967792 0.184872 -0.684678
H122  H     H_    0.945321 0.953841 0.156615 0.365364
O131  O     O_3   0.938120 0.033539 0.199049 -0.686157
H123  H     H_    0.930296 0.046558 0.171713 0.372397
O132  O     O_3   0.944327 0.032214 0.815134 -0.684655
H124  H     H_    0.945312 0.046170 0.843387 0.365380
O133  O     O_3   0.938110 0.466470 0.300957 -0.686145
H125  H     H_    0.930285 0.453450 0.328292 0.372399
O134  O     O_3   0.944333 0.467792 0.684872 -0.684678
H126  H     H_    0.945321 0.453841 0.656615 0.365364
O135  O     O_3   0.938120 0.533539 0.699049 -0.686157
H127  H     H_    0.930296 0.546558 0.671713 0.372397
O136  O     O_3   0.944327 0.532214 0.315134 -0.684655
H128  H     H_    0.945312 0.546170 0.343387 0.365380
O137  O     O_3   0.503681 0.953315 0.335457 -0.693749
C257  C     C_3   0.537703 0.925765 0.332648 0.061521
H129  H     H_    0.569327 0.931349 0.354310 0.128253
H130  H     H_    0.552280 0.918946 0.299804 0.229137
C258  C     C_3   0.515594 0.890996 0.347152 -0.338169
H131  H     H_    0.507927 0.891939 0.384722 0.214401
H132  H     H_    0.480786 0.887836 0.330457 0.248524
C259  C     C_3   0.549056 0.858983 0.335644 -0.874891
H133  H     H_    0.561462 0.858594 0.298978 0.241101
H134  H     H_    0.534367 0.832155 0.344091 0.268485
H135  H     H_    0.582493 0.862574 0.354511 0.233277
O138  O     O_3   0.519919 0.969402 0.659224 -0.731603
C260  C     C_3   0.541631 0.993475 0.629153 0.112617
H136  H     H_    0.572865 0.980107 0.612508 0.100043
H137  H     H_    0.558591 0.013925 0.646835 0.169178
C261  C     C_3   0.507734 0.007080 0.591234 -0.196953
H138  H     H_    0.498682 0.983842 0.569098 0.180891
H139  H     H_    0.472419 0.015424 0.604470 0.245284
C262  C     C_3   0.527742 0.036199 0.559775 -0.940481
H140  H     H_    0.537101 0.061858 0.577360 0.267357
H141  H     H_    0.500381 0.042835 0.534071 0.253886
H142  H     H_    0.559138 0.026111 0.541036 0.245765
O139  O     O_3   0.503693 0.046705 0.664548 -0.693724
C263  C     C_3   0.537737 0.074249 0.667347 0.061567
H143  H     H_    0.569362 0.068659 0.645692 0.128237
H144  H     H_    0.552303 0.081075 0.700194 0.229152
C264  C     C_3   0.515657 0.109025 0.652834 -0.338263
H145  H     H_    0.508017 0.108094 0.615257 0.214344
H146  H     H_    0.480839 0.112185 0.669503 0.248535
C265  C     C_3   0.549132 0.141034 0.664381 -0.875037
H147  H     H_    0.561550 0.141390 0.701048 0.241033
H148  H     H_    0.534448 0.167875 0.655986 0.268402
H149  H     H_    0.582555 0.137465 0.645494 0.233369
O140  O     O_3   0.519908 0.030619 0.340795 -0.731603
C266  C     C_3   0.541632 0.006546 0.370851 0.112507
H150  H     H_    0.572870 0.019917 0.387493 0.100075
H151  H     H_    0.558580 0.986100 0.353155 0.169210
C267  C     C_3   0.507748 0.992934 0.408774 -0.196842
H152  H     H_    0.498720 0.016170 0.430921 0.180911
H153  H     H_    0.472422 0.984592 0.395552 0.245256
C268  C     C_3   0.527772 0.963818 0.440222 -0.940587
H154  H     H_    0.537134 0.938165 0.422629 0.267360
H155  H     H_    0.500412 0.957165 0.465917 0.253908
H156  H     H_    0.559168 0.973913 0.458962 0.245779
O141  O     O_3   0.503681 0.453315 0.835457 -0.693749
C269  C     C_3   0.537703 0.425765 0.832648 0.061521
H157  H     H_    0.569327 0.431349 0.854310 0.128253
H158  H     H_    0.552280 0.418946 0.799804 0.229137
C270  C     C_3   0.515594 0.390996 0.847151 -0.338169
H159  H     H_    0.507927 0.391939 0.884722 0.214401
H160  H     H_    0.480786 0.387836 0.830457 0.248524
C271  C     C_3   0.549056 0.358983 0.835644 -0.874891
H161  H     H_    0.561462 0.358594 0.798978 0.241101
H162  H     H_    0.534367 0.332155 0.844091 0.268485
H163  H     H_    0.582493 0.362574 0.854511 0.233277
O142  O     O_3   0.519919 0.469402 0.159224 -0.731603
C272  C     C_3   0.541631 0.493476 0.129153 0.112617
H164  H     H_    0.572865 0.480107 0.112508 0.100043
H165  H     H_    0.558591 0.513926 0.146835 0.169178
C273  C     C_3   0.507734 0.507080 0.091234 -0.196953
H166  H     H_    0.498682 0.483842 0.069098 0.180891
H167  H     H_    0.472419 0.515424 0.104470 0.245284
C274  C     C_3   0.527742 0.536199 0.059775 -0.940481
H168  H     H_    0.537101 0.561858 0.077359 0.267357
H169  H     H_    0.500381 0.542835 0.034071 0.253886
H170  H     H_    0.559138 0.526111 0.041036 0.245765
O143  O     O_3   0.503693 0.546705 0.164548 -0.693724
C275  C     C_3   0.537737 0.574249 0.167347 0.061567
H171  H     H_    0.569362 0.568659 0.145692 0.128237
H172  H     H_    0.552303 0.581075 0.200194 0.229152
C276  C     C_3   0.515657 0.609025 0.152834 -0.338263
H173  H     H_    0.508017 0.608094 0.115257 0.214344
H174  H     H_    0.480839 0.612185 0.169503 0.248535
C277  C     C_3   0.549132 0.641034 0.164381 -0.875037
H175  H     H_    0.561550 0.641390 0.201048 0.241033
H176  H     H_    0.534448 0.667875 0.155986 0.268402
H177  H     H_    0.582555 0.637465 0.145494 0.233369
O144  O     O_3   0.519908 0.530619 0.840795 -0.731603
C278  C     C_3   0.541632 0.506546 0.870851 0.112507
H178  H     H_    0.572870 0.519917 0.887493 0.100075
H179  H     H_    0.558580 0.486100 0.853155 0.169210
C279  C     C_3   0.507748 0.492934 0.908774 -0.196842
H180  H     H_    0.498720 0.516170 0.930921 0.180911
H181  H     H_    0.472422 0.484592 0.895551 0.245256
C280  C     C_3   0.527772 0.463818 0.940222 -0.940587
H182  H     H_    0.537134 0.438165 0.922629 0.267360
H183  H     H_    0.500412 0.457165 0.965917 0.253908
H184  H     H_    0.559169 0.473913 0.958962 0.245779
O145  O     O_3   0.003681 0.953315 0.835457 -0.693749
C281  C     C_3   0.037703 0.925765 0.832648 0.061521
H185  H     H_    0.069327 0.931349 0.854310 0.128253
H186  H     H_    0.052280 0.918946 0.799804 0.229137
C282  C     C_3   0.015593 0.890996 0.847151 -0.338169
H187  H     H_    0.007927 0.891939 0.884722 0.214401
H188  H     H_    0.980786 0.887836 0.830457 0.248524
C283  C     C_3   0.049056 0.858983 0.835644 -0.874891
H189  H     H_    0.061462 0.858594 0.798978 0.241101
H190  H     H_    0.034367 0.832155 0.844091 0.268485
H191  H     H_    0.082493 0.862574 0.854511 0.233277
O146  O     O_3   0.019919 0.969402 0.159224 -0.731603
C284  C     C_3   0.041631 0.993475 0.129153 0.112617
H192  H     H_    0.072865 0.980107 0.112508 0.100043
H193  H     H_    0.058591 0.013926 0.146835 0.169178
C285  C     C_3   0.007734 0.007080 0.091234 -0.196953
H194  H     H_    0.998681 0.983842 0.069098 0.180891
H195  H     H_    0.972419 0.015424 0.104470 0.245284
C286  C     C_3   0.027742 0.036199 0.059775 -0.940481
H196  H     H_    0.037101 0.061858 0.077359 0.267357
H197  H     H_    0.000381 0.042835 0.034071 0.253886
H198  H     H_    0.059138 0.026111 0.041036 0.245765
O147  O     O_3   0.003693 0.046705 0.164548 -0.693724
C287  C     C_3   0.037737 0.074249 0.167347 0.061567
H199  H     H_    0.069362 0.068659 0.145692 0.128237
H200  H     H_    0.052304 0.081075 0.200194 0.229152
C288  C     C_3   0.015658 0.109025 0.152834 -0.338263
H201  H     H_    0.008017 0.108094 0.115257 0.214344
H202  H     H_    0.980839 0.112185 0.169503 0.248535
C289  C     C_3   0.049132 0.141034 0.164381 -0.875037
H203  H     H_    0.061550 0.141390 0.201048 0.241033
H204  H     H_    0.034448 0.167875 0.155986 0.268402
H205  H     H_    0.082555 0.137464 0.145494 0.233369
O148  O     O_3   0.019908 0.030619 0.840795 -0.731603
C290  C     C_3   0.041632 0.006546 0.870851 0.112507
H206  H     H_    0.072870 0.019917 0.887493 0.100075
H207  H     H_    0.058580 0.986100 0.853155 0.169210
C291  C     C_3   0.007748 0.992934 0.908774 -0.196842
H208  H     H_    0.998720 0.016170 0.930921 0.180911
H209  H     H_    0.972422 0.984592 0.895551 0.245256
C292  C     C_3   0.027772 0.963818 0.940222 -0.940587
H210  H     H_    0.037134 0.938165 0.922629 0.267360
H211  H     H_    0.000412 0.957165 0.965917 0.253908
H212  H     H_    0.059169 0.973913 0.958962 0.245779
O149  O     O_3   0.003681 0.453315 0.335457 -0.693749
C293  C     C_3   0.037703 0.425765 0.332648 0.061521
H213  H     H_    0.069327 0.431349 0.354310 0.128253
H214  H     H_    0.052280 0.418946 0.299804 0.229137
C294  C     C_3   0.015593 0.390996 0.347152 -0.338169
H215  H     H_    0.007927 0.391939 0.384722 0.214401
H216  H     H_    0.980786 0.387836 0.330457 0.248524
C295  C     C_3   0.049056 0.358983 0.335644 -0.874891
H217  H     H_    0.061462 0.358594 0.298978 0.241101
H218  H     H_    0.034367 0.332155 0.344091 0.268485
H219  H     H_    0.082493 0.362574 0.354511 0.233277
O150  O     O_3   0.019919 0.469402 0.659224 -0.731603
C296  C     C_3   0.041631 0.493476 0.629153 0.112617
H220  H     H_    0.072865 0.480107 0.612508 0.100043
H221  H     H_    0.058591 0.513926 0.646835 0.169178
C297  C     C_3   0.007734 0.507080 0.591234 -0.196953
H222  H     H_    0.998681 0.483842 0.569098 0.180891
H223  H     H_    0.972419 0.515424 0.604470 0.245284
C298  C     C_3   0.027742 0.536199 0.559775 -0.940481
H224  H     H_    0.037101 0.561858 0.577360 0.267357
H225  H     H_    0.000381 0.542835 0.534071 0.253886
H226  H     H_    0.059138 0.526111 0.541036 0.245765
O151  O     O_3   0.003693 0.546705 0.664548 -0.693723
C299  C     C_3   0.037737 0.574249 0.667347 0.061567
H227  H     H_    0.069362 0.568659 0.645692 0.128237
H228  H     H_    0.052304 0.581075 0.700194 0.229152
C300  C     C_3   0.015658 0.609025 0.652834 -0.338263
H229  H     H_    0.008017 0.608094 0.615257 0.214344
H230  H     H_    0.980839 0.612185 0.669503 0.248535
C301  C     C_3   0.049132 0.641034 0.664381 -0.875037
H231  H     H_    0.061550 0.641390 0.701048 0.241033
H232  H     H_    0.034448 0.667875 0.655986 0.268402
H233  H     H_    0.082555 0.637465 0.645494 0.233369
O152  O     O_3   0.019908 0.530619 0.340795 -0.731603
C302  C     C_3   0.041632 0.506546 0.370851 0.112507
H234  H     H_    0.072870 0.519917 0.387493 0.100075
H235  H     H_    0.058580 0.486100 0.353155 0.169210
C303  C     C_3   0.007748 0.492934 0.408774 -0.196842
H236  H     H_    0.998720 0.516170 0.430921 0.180911
H237  H     H_    0.972422 0.484592 0.395552 0.245256
C304  C     C_3   0.027772 0.463818 0.440222 -0.940587
H238  H     H_    0.037134 0.438165 0.422629 0.267360
H239  H     H_    0.000412 0.457165 0.465917 0.253908
H240  H     H_    0.059169 0.473913 0.458962 0.245779
O153  O     O_3   0.479389 0.970003 0.163325 -0.802259
H241  H     H_    0.508812 0.979321 0.152802 0.388443
O154  O     O_3   0.477617 0.960051 0.827956 -0.814601
H242  H     H_    0.506216 0.967721 0.843476 0.385876
O155  O     O_3   0.479411 0.030037 0.836674 -0.802260
H243  H     H_    0.508821 0.020704 0.847209 0.388425
O156  O     O_3   0.477600 0.039975 0.172065 -0.814502
H244  H     H_    0.506188 0.032306 0.156527 0.385919
O157  O     O_3   0.479389 0.470003 0.663325 -0.802259
H245  H     H_    0.508812 0.479321 0.652801 0.388443
O158  O     O_3   0.477617 0.460052 0.327956 -0.814601
H246  H     H_    0.506216 0.467721 0.343476 0.385876
O159  O     O_3   0.479411 0.530037 0.336674 -0.802260
H247  H     H_    0.508821 0.520704 0.347209 0.388425
O160  O     O_3   0.477600 0.539975 0.672065 -0.814502
H248  H     H_    0.506188 0.532306 0.656527 0.385919
O161  O     O_3   0.979389 0.970003 0.663325 -0.802259
H249  H     H_    0.008812 0.979321 0.652801 0.388443
O162  O     O_3   0.977617 0.960052 0.327956 -0.814601
H250  H     H_    0.006216 0.967721 0.343476 0.385876
O163  O     O_3   0.979411 0.030037 0.336674 -0.802260
H251  H     H_    0.008821 0.020704 0.347209 0.388425
O164  O     O_3   0.977600 0.039975 0.672065 -0.814502
H252  H     H_    0.006188 0.032306 0.656527 0.385919
O165  O     O_3   0.979389 0.470003 0.163325 -0.802259
H253  H     H_    0.008812 0.479321 0.152802 0.388443
O166  O     O_3   0.977617 0.460052 0.827956 -0.814601
H254  H     H_    0.006216 0.467721 0.843476 0.385876
O167  O     O_3   0.979411 0.530037 0.836674 -0.802260
H255  H     H_    0.008821 0.520704 0.847209 0.388425
O168  O     O_3   0.977600 0.539975 0.172065 -0.814502
H256  H     H_    0.006188 0.532306 0.156527 0.385919
O169  O     O_3   0.420411 0.968270 0.218311 -0.554946
C305  C     C_3   0.402512 0.940631 0.187349 0.237856
H257  H     H_    0.384802 0.920025 0.208773 0.118221
H258  H     H_    0.430718 0.924210 0.171023 0.161491
C306  C     C_3   0.366883 0.954786 0.149360 -0.332332
H259  H     H_    0.337150 0.969781 0.166157 0.201158
H260  H     H_    0.384161 0.975064 0.126828 0.226110
C307  C     C_3   0.346555 0.921434 0.121231 -0.894114
H261  H     H_    0.375162 0.902162 0.112785 0.249072
H262  H     H_    0.327759 0.927075 0.086285 0.255951
H263  H     H_    0.324033 0.906357 0.144934 0.250815
O170  O     O_3   0.421136 0.965208 0.771158 -0.545521
C308  C     C_3   0.392654 0.948934 0.805952 0.262821
H264  H     H_    0.355423 0.952788 0.796179 0.124461
H265  H     H_    0.396639 0.962116 0.840850 0.152251
C309  C     C_3   0.402254 0.908274 0.807828 -0.352466
H266  H     H_    0.396144 0.896071 0.772686 0.229545
H267  H     H_    0.439182 0.903505 0.817281 0.264417
C310  C     C_3   0.372063 0.888653 0.843103 -0.968666
H268  H     H_    0.378501 0.899358 0.879047 0.275274
H269  H     H_    0.380945 0.859551 0.841947 0.267865
H270  H     H_    0.334519 0.891622 0.834515 0.265551
O171  O     O_3   0.420428 0.031730 0.781690 -0.555007
C311  C     C_3   0.402486 0.059310 0.812697 0.237614
H271  H     H_    0.384636 0.079845 0.791310 0.118602
H272  H     H_    0.430651 0.075794 0.828997 0.161553
C312  C     C_3   0.367009 0.045047 0.850706 -0.333003
H273  H     H_    0.337307 0.030001 0.833936 0.201318
H274  H     H_    0.384418 0.024836 0.873192 0.226702
C313  C     C_3   0.346655 0.078306 0.878941 -0.895184
H275  H     H_    0.375256 0.097572 0.887467 0.249421
H276  H     H_    0.327879 0.072557 0.913844 0.256117
H277  H     H_    0.324081 0.093401 0.855337 0.251087
O172  O     O_3   0.421125 0.034791 0.228866 -0.545555
C314  C     C_3   0.392624 0.051037 0.194068 0.262881
H278  H     H_    0.355396 0.047172 0.203852 0.124443
H279  H     H_    0.396607 0.037844 0.159177 0.152317
C315  C     C_3   0.402212 0.091701 0.192178 -0.352405
H280  H     H_    0.396091 0.103905 0.227316 0.229529
H281  H     H_    0.439142 0.096487 0.182740 0.264449
C316  C     C_3   0.372021 0.111312 0.156896 -0.968641
H282  H     H_    0.378488 0.100617 0.120954 0.275298
H283  H     H_    0.380878 0.140421 0.158066 0.267872
H284  H     H_    0.334474 0.108315 0.165457 0.265527
O173  O     O_3   0.420411 0.468270 0.718311 -0.554946
C317  C     C_3   0.402512 0.440631 0.687349 0.237856
H285  H     H_    0.384802 0.420025 0.708773 0.118221
H286  H     H_    0.430718 0.424210 0.671023 0.161491
C318  C     C_3   0.366883 0.454786 0.649360 -0.332332
H287  H     H_    0.337150 0.469781 0.666157 0.201158
H288  H     H_    0.384161 0.475064 0.626828 0.226110
C319  C     C_3   0.346555 0.421434 0.621231 -0.894114
H289  H     H_    0.375162 0.402162 0.612785 0.249072
H290  H     H_    0.327759 0.427075 0.586285 0.255951
H291  H     H_    0.324033 0.406357 0.644934 0.250815
O174  O     O_3   0.421136 0.465208 0.271158 -0.545521
C320  C     C_3   0.392654 0.448934 0.305953 0.262821
H292  H     H_    0.355423 0.452788 0.296179 0.124461
H293  H     H_    0.396639 0.462116 0.340850 0.152251
C321  C     C_3   0.402254 0.408274 0.307828 -0.352466
H294  H     H_    0.396144 0.396071 0.272686 0.229545
H295  H     H_    0.439182 0.403505 0.317281 0.264417
C322  C     C_3   0.372063 0.388653 0.343103 -0.968666
H296  H     H_    0.378501 0.399358 0.379047 0.275274
H297  H     H_    0.380945 0.359550 0.341947 0.267865
H298  H     H_    0.334519 0.391622 0.334515 0.265551
O175  O     O_3   0.420428 0.531730 0.281690 -0.555007
C323  C     C_3   0.402486 0.559310 0.312697 0.237614
H299  H     H_    0.384636 0.579846 0.291310 0.118602
H300  H     H_    0.430650 0.575794 0.328997 0.161553
C324  C     C_3   0.367009 0.545047 0.350706 -0.333003
H301  H     H_    0.337307 0.530001 0.333936 0.201318
H302  H     H_    0.384418 0.524836 0.373192 0.226702
C325  C     C_3   0.346655 0.578306 0.378941 -0.895184
H303  H     H_    0.375256 0.597572 0.387467 0.249421
H304  H     H_    0.327879 0.572557 0.413844 0.256117
H305  H     H_    0.324081 0.593401 0.355337 0.251087
O176  O     O_3   0.421125 0.534791 0.728866 -0.545555
C326  C     C_3   0.392624 0.551037 0.694068 0.262881
H306  H     H_    0.355396 0.547172 0.703852 0.124443
H307  H     H_    0.396607 0.537844 0.659177 0.152317
C327  C     C_3   0.402212 0.591701 0.692178 -0.352405
H308  H     H_    0.396091 0.603905 0.727316 0.229529
H309  H     H_    0.439142 0.596487 0.682740 0.264449
C328  C     C_3   0.372021 0.611312 0.656896 -0.968641
H310  H     H_    0.378488 0.600617 0.620954 0.275298
H311  H     H_    0.380878 0.640420 0.658066 0.267872
H312  H     H_    0.334474 0.608315 0.665457 0.265527
O177  O     O_3   0.920411 0.968270 0.718311 -0.554946
C329  C     C_3   0.902512 0.940631 0.687349 0.237856
H313  H     H_    0.884802 0.920025 0.708773 0.118221
H314  H     H_    0.930718 0.924210 0.671023 0.161491
C330  C     C_3   0.866883 0.954786 0.649360 -0.332332
H315  H     H_    0.837150 0.969781 0.666157 0.201158
H316  H     H_    0.884161 0.975064 0.626828 0.226110
C331  C     C_3   0.846555 0.921434 0.621231 -0.894114
H317  H     H_    0.875162 0.902162 0.612785 0.249072
H318  H     H_    0.827759 0.927075 0.586285 0.255951
H319  H     H_    0.824033 0.906357 0.644934 0.250815
O178  O     O_3   0.921136 0.965208 0.271158 -0.545521
C332  C     C_3   0.892654 0.948934 0.305953 0.262821
H320  H     H_    0.855423 0.952788 0.296179 0.124461
H321  H     H_    0.896639 0.962116 0.340850 0.152251
C333  C     C_3   0.902254 0.908274 0.307828 -0.352466
H322  H     H_    0.896144 0.896071 0.272686 0.229545
H323  H     H_    0.939182 0.903505 0.317281 0.264417
C334  C     C_3   0.872064 0.888653 0.343103 -0.968666
H324  H     H_    0.878501 0.899358 0.379047 0.275274
H325  H     H_    0.880946 0.859550 0.341947 0.267865
H326  H     H_    0.834519 0.891622 0.334515 0.265551
O179  O     O_3   0.920428 0.031730 0.281690 -0.555007
C335  C     C_3   0.902486 0.059310 0.312697 0.237614
H327  H     H_    0.884636 0.079845 0.291310 0.118602
H328  H     H_    0.930651 0.075794 0.328997 0.161553
C336  C     C_3   0.867009 0.045047 0.350706 -0.333003
H329  H     H_    0.837307 0.030001 0.333936 0.201318
H330  H     H_    0.884418 0.024836 0.373192 0.226702
C337  C     C_3   0.846655 0.078306 0.378941 -0.895184
H331  H     H_    0.875257 0.097572 0.387467 0.249421
H332  H     H_    0.827879 0.072557 0.413844 0.256117
H333  H     H_    0.824081 0.093401 0.355337 0.251087
O180  O     O_3   0.921125 0.034791 0.728866 -0.545555
C338  C     C_3   0.892624 0.051037 0.694068 0.262881
H334  H     H_    0.855396 0.047172 0.703852 0.124443
H335  H     H_    0.896607 0.037844 0.659177 0.152317
C339  C     C_3   0.902212 0.091701 0.692178 -0.352405
H336  H     H_    0.896091 0.103905 0.727316 0.229529
H337  H     H_    0.939142 0.096487 0.682740 0.264449
C340  C     C_3   0.872021 0.111312 0.656896 -0.968641
H338  H     H_    0.878488 0.100617 0.620954 0.275298
H339  H     H_    0.880878 0.140421 0.658066 0.267872
H340  H     H_    0.834474 0.108315 0.665457 0.265527
O181  O     O_3   0.920411 0.468270 0.218311 -0.554946
C341  C     C_3   0.902512 0.440631 0.187349 0.237856
H341  H     H_    0.884802 0.420025 0.208773 0.118221
H342  H     H_    0.930718 0.424210 0.171023 0.161491
C342  C     C_3   0.866883 0.454786 0.149360 -0.332332
H343  H     H_    0.837150 0.469781 0.166157 0.201158
H344  H     H_    0.884161 0.475064 0.126828 0.226110
C343  C     C_3   0.846555 0.421434 0.121231 -0.894114
H345  H     H_    0.875162 0.402162 0.112785 0.249072
H346  H     H_    0.827759 0.427075 0.086285 0.255951
H347  H     H_    0.824033 0.406357 0.144934 0.250815
O182  O     O_3   0.921136 0.465208 0.771158 -0.545521
C344  C     C_3   0.892654 0.448934 0.805952 0.262821
H348  H     H_    0.855423 0.452788 0.796179 0.124461
H349  H     H_    0.896639 0.462116 0.840850 0.152251
C345  C     C_3   0.902254 0.408274 0.807828 -0.352466
H350  H     H_    0.896144 0.396071 0.772686 0.229545
H351  H     H_    0.939182 0.403505 0.817281 0.264417
C346  C     C_3   0.872064 0.388653 0.843103 -0.968666
H352  H     H_    0.878501 0.399358 0.879047 0.275274
H353  H     H_    0.880946 0.359550 0.841947 0.267865
H354  H     H_    0.834519 0.391622 0.834515 0.265551
O183  O     O_3   0.920428 0.531730 0.781690 -0.555007
C347  C     C_3   0.902486 0.559310 0.812697 0.237614
H355  H     H_    0.884636 0.579846 0.791310 0.118602
H356  H     H_    0.930651 0.575794 0.828997 0.161553
C348  C     C_3   0.867008 0.545047 0.850706 -0.333003
H357  H     H_    0.837307 0.530001 0.833936 0.201318
H358  H     H_    0.884418 0.524836 0.873192 0.226702
C349  C     C_3   0.846655 0.578306 0.878941 -0.895184
H359  H     H_    0.875257 0.597572 0.887467 0.249421
H360  H     H_    0.827879 0.572557 0.913844 0.256117
H361  H     H_    0.824081 0.593401 0.855337 0.251087
O184  O     O_3   0.921125 0.534791 0.228866 -0.545555
C350  C     C_3   0.892624 0.551037 0.194068 0.262881
H362  H     H_    0.855396 0.547172 0.203852 0.124443
H363  H     H_    0.896607 0.537844 0.159177 0.152317
C351  C     C_3   0.902212 0.591701 0.192178 -0.352405
H364  H     H_    0.896091 0.603905 0.227316 0.229529
H365  H     H_    0.939142 0.596487 0.182740 0.264449
C352  C     C_3   0.872021 0.611312 0.156896 -0.968641
H366  H     H_    0.878488 0.600617 0.120954 0.275298
H367  H     H_    0.880878 0.640421 0.158066 0.267872
H368  H     H_    0.834474 0.608315 0.165457 0.265527
O185  O     O_3   0.569665 0.966964 0.193443 -0.768679
H369  H     H_    0.596723 0.952309 0.194208 0.383250
O186  O     O_3   0.567719 0.965202 0.803054 -0.781791
H370  H     H_    0.594097 0.947332 0.802257 0.367572
O187  O     O_3   0.569672 0.033064 0.806555 -0.768653
H371  H     H_    0.596727 0.047725 0.805788 0.383239
O188  O     O_3   0.567697 0.034825 0.196948 -0.781844
H372  H     H_    0.594114 0.052659 0.197729 0.367631
O189  O     O_3   0.569665 0.466964 0.693443 -0.768679
H373  H     H_    0.596723 0.452309 0.694208 0.383250
O190  O     O_3   0.567719 0.465202 0.303054 -0.781791
H374  H     H_    0.594097 0.447332 0.302258 0.367572
O191  O     O_3   0.569672 0.533064 0.306555 -0.768653
H375  H     H_    0.596727 0.547725 0.305788 0.383239
O192  O     O_3   0.567697 0.534825 0.696948 -0.781844
H376  H     H_    0.594114 0.552659 0.697729 0.367631
O193  O     O_3   0.069665 0.966964 0.693443 -0.768679
H377  H     H_    0.096723 0.952309 0.694208 0.383250
O194  O     O_3   0.067719 0.965202 0.303054 -0.781791
H378  H     H_    0.094097 0.947332 0.302258 0.367572
O195  O     O_3   0.069672 0.033064 0.306555 -0.768653
H379  H     H_    0.096727 0.047725 0.305788 0.383239
O196  O     O_3   0.067697 0.034825 0.696948 -0.781844
H380  H     H_    0.094114 0.052659 0.697729 0.367631
O197  O     O_3   0.069665 0.466964 0.193443 -0.768679
H381  H     H_    0.096723 0.452309 0.194208 0.383250
O198  O     O_3   0.067719 0.465202 0.803054 -0.781791
H382  H     H_    0.094097 0.447332 0.802257 0.367572
O199  O     O_3   0.069672 0.533064 0.806555 -0.768653
H383  H     H_    0.096727 0.547725 0.805788 0.383239
O200  O     O_3   0.067697 0.534825 0.196948 -0.781844
H384  H     H_    0.094114 0.552659 0.197729 0.367631

loop_
_geom_bond_atom_site_label_1
_geom_bond_atom_site_label_2
_ccdc_geom_bond_type
C325  H304  S    
C62   C83   S    
C8    O96   A    
C212  H8    S    
C27   O131  S    
C292  H211  S    
O137  C257  S    
O8    Zn12  S    
C250  H96   S    
C52   C196  S    
O95   Zn23  S    
C240  H73   S    
O2    Zn18  S    
C50   C79   S    
C150  C185  S    
C139  O83   A    
C28   O148  S    
C304  H238  S    
C244  H84   S    
C20   O124  S    
C111  C137  S    
O172  C314  S    
C341  H341  S    
C301  H232  S    
C200  O113  S    
C170  C178  S    
C79   O170  S    
C286  H197  S    
C223  H34   S    
C342  H343  S    
C299  C300  S    
C260  H136  S    
C317  H285  S    
C241  H76   S    
C324  H302  S    
C304  H240  S    
C325  H305  S    
C2    C41   S    
C305  H258  S    
O166  H254  S    
C10   O98   A    
C224  H37   S    
O31   Zn23  S    
C275  H171  S    
C176  C184  S    
C226  H42   S    
C213  H10   S    
C340  H340  S    
C2    O10   A    
C289  H205  S    
C155  O61   A    
C55   C74   S    
C55   C199  S    
O156  H244  S    
C193  O185  S    
C65   O184  S    
C142  O38   A    
C301  H233  S    
C302  C303  S    
C225  C226  S    
O4    Zn6   S    
C265  H147  S    
C71   O162  S    
C313  H277  S    
C229  H48   S    
C44   C92   T    
O72   Zn10  S    
O1    Zn23  S    
C137  O33   A    
C305  C306  S    
C278  H179  S    
C65   O168  S    
O175  C323  S    
O69   Zn11  S    
C288  C289  S    
C289  H204  S    
O63   Zn1   S    
C153  O63   A    
C257  H130  S    
C108  C124  T    
C283  H191  S    
C154  O64   A    
C108  C142  S    
C215  H15   S    
C240  C241  S    
C295  H218  S    
C195  O118  S    
C277  H175  S    
C230  C231  S    
C21   O141  S    
C328  H311  S    
O66   Zn16  S    
C151  C188  S    
C311  H272  S    
C166  C174  T    
C202  C203  S    
C298  H224  S    
C112  C138  S    
C290  C291  S    
C160  O70   A    
C345  H350  S    
C317  C318  S    
O140  C266  S    
C284  C285  S    
C29   O149  S    
C80   O153  S    
C256  H111  S    
C206  C207  S    
C285  H194  S    
C221  H30   S    
C131  O27   A    
C253  H103  S    
C258  H131  S    
C269  C270  S    
C273  C274  S    
O46   Zn22  S    
C200  O192  S    
C153  C161  S    
C323  H299  S    
C140  O36   A    
C257  C258  S    
O192  H376  S    
C237  C238  S    
C206  O107  S    
C7    O15   A    
C287  C288  S    
C68   O165  S    
C60   C85   S    
C65   C68   S    
C238  H69   S    
C333  H322  S    
C265  H149  S    
C271  H162  S    
C66   O183  S    
O30   Zn22  S    
C204  O196  S    
O10   Zn8   S    
C225  H38   S    
C132  O28   A    
C3    O91   A    
C327  H309  S    
O13   Zn3   S    
C259  H133  S    
C242  H79   S    
C212  C213  S    
C206  O198  S    
C136  O32   A    
C280  H182  S    
C280  H184  S    
O50   Zn26  S    
C24   C56   S    
C203  O110  S    
C17   C49   S    
C52   C77   S    
C278  C279  S    
C319  H289  S    
O98   Zn26  S    
C57   C88   S    
C175  C183  S    
C5    C46   S    
C234  C235  S    
C346  H353  S    
C56   C73   S    
C48   C96   T    
C315  C316  S    
C14   O102  A    
C78   C79   S    
O133  H125  S    
C102  C132  S    
C299  H227  S    
C61   C84   S    
O54   Zn30  S    
C47   C95   T    
C329  H313  S    
C275  C276  S    
C23   C55   S    
C198  O115  S    
C207  O199  S    
C4    C43   S    
C341  H342  S    
C142  O86   A    
C20   C52   S    
C222  H31   S    
C199  O191  S    
C24   O144  S    
C196  O117  S    
C49   C80   S    
C53   C197  S    
C7    C48   S    
O96   Zn24  S    
C281  H185  S    
O153  H241  S    
C51   C78   S    
O7    Zn11  S    
C51   C195  S    
C237  H66   S    
C315  H281  S    
C310  H269  S    
C40   C88   T    
C30   C31   S    
C144  O88   A    
C59   C86   S    
O178  C332  S    
C12   O100  A    
C159  C167  S    
O109  C221  S    
C276  C277  S    
C13   O101  A    
C160  C168  S    
C249  C250  S    
O195  H379  S    
C293  H214  S    
C16   O104  A    
C8    C47   S    
C98   C114  T    
C78   O155  S    
O41   Zn17  S    
C324  H301  S    
C178  C186  T    
C54   C91   S    
C179  C187  T    
C58   C202  S    
C294  H215  S    
O8    Zn28  S    
C21   C24   S    
C129  O25   A    
O179  C335  S    
C300  H230  S    
C70   O179  S    
C297  H222  S    
C182  C190  T    
O104  Zn32  S    
C264  H146  S    
C270  H159  S    
O49   Zn25  S    
C62   C206  S    
C215  C216  S    
C216  H17   S    
C342  H344  S    
C7    O95   A    
C41   C89   T    
O27   Zn19  S    
C210  H3    S    
O85   Zn13  S    
C145  C190  S    
C314  H279  S    
C255  H109  S    
C290  H206  S    
C345  C346  S    
C45   C93   T    
C174  C182  S    
C335  H328  S    
C272  H164  S    
O81   Zn9   S    
C123  C124  S    
C22   C54   S    
O187  H371  S    
C261  H138  S    
C240  H74   S    
O155  H243  S    
C38   C86   T    
C323  C324  S    
C145  O41   A    
C227  H43   S    
C196  O188  S    
C336  H330  S    
C55   C90   S    
C311  C312  S    
C306  H259  S    
C267  H153  S    
C296  H221  S    
C346  H352  S    
C351  C352  S    
C211  H7    S    
C29   O133  S    
C194  O186  S    
O161  H249  S    
C251  H99   S    
O15   Zn1   S    
C152  C187  S    
O165  H253  S    
C32   O136  S    
O144  C278  S    
O1    Zn7   S    
C203  O195  S    
C208  O200  S    
C209  H2    S    
C60   C204  S    
C259  H135  S    
O188  H372  S    
C19   O139  S    
C309  H266  S    
C338  H335  S    
O52   Zn28  S    
C72   O161  S    
C282  C283  S    
C141  O37   A    
C348  H357  S    
C228  H46   S    
C109  C125  T    
C107  C141  S    
C6    O94   A    
C250  H97   S    
C319  H291  S    
O35   Zn27  S    
C238  H70   S    
C161  C169  T    
C193  O120  S    
O4    Zn20  S    
C66   C67   S    
C324  C325  S    
C352  H367  S    
O123  H115  S    
C307  H261  S    
C291  H209  S    
C318  H288  S    
C171  C179  S    
C236  H64   S    
C133  O29   A    
C285  C286  S    
C169  C177  S    
C247  H89   S    
C268  H155  S    
C100  C134  S    
C246  H87   S    
C339  H337  S    
O11   Zn5   S    
C330  H316  S    
O7    Zn29  S    
C222  C223  S    
C29   C61   S    
C3    C44   S    
C228  C229  S    
C14   O22   A    
C63   C82   S    
C20   O140  S    
C263  C264  S    
C31   C63   S    
C312  C313  S    
C347  H355  S    
C32   C64   S    
C11   O99   A    
C283  H190  S    
C157  C165  S    
C208  O105  S    
C326  H307  S    
C234  H60   S    
C243  H80   S    
C218  C219  S    
O23   Zn9   S    
C155  C163  S    
O89   Zn17  S    
C147  O45   A    
C31   O135  S    
C333  H323  S    
O114  C236  S    
C42   C90   T    
C217  H21   S    
C69   C72   S    
C201  O193  S    
O39   Zn31  S    
O131  H123  S    
C282  H188  S    
C157  O71   A    
C229  H49   S    
O60   Zn6   S    
O25   Zn17  S    
O132  H124  S    
C156  O60   A    
O169  C305  S    
C336  H329  S    
C320  C321  S    
O142  C272  S    
C106  C122  T    
C273  H167  S    
O125  H117  S    
C13   C38   S    
C143  O87   A    
C52   C93   S    
C274  H169  S    
C78   O171  S    
C270  C271  S    
O37   Zn29  S    
C69   O164  S    
C337  H333  S    
C149  O49   A    
C349  H359  S    
C70   C71   S    
C110  C126  T    
C352  H368  S    
O135  H127  S    
C309  H267  S    
C56   C89   S    
C73   O160  S    
C287  H200  S    
C202  O111  S    
O116  C242  S    
C210  C211  S    
C303  H237  S    
C322  H297  S    
O6    Zn32  S    
C294  H216  S    
O112  C230  S    
C159  O69   A    
C214  H14   S    
C313  H276  S    
C164  C172  T    
C298  H226  S    
C97   C135  S    
C279  H181  S    
C254  H106  S    
O2    Zn2   S    
C207  O106  S    
C288  H201  S    
C272  C273  S    
O28   Zn20  S    
C321  H294  S    
C209  C210  S    
C167  C175  T    
C351  H364  S    
C260  C261  S    
C152  O54   A    
C168  C176  T    
C262  H142  S    
C27   O147  S    
C15   O23   A    
C22   C23   S    
C22   O142  S    
C154  C162  S    
C227  C228  S    
C331  H318  S    
O110  C224  S    
C243  C244  S    
O113  C233  S    
C306  C307  S    
O101  Zn29  S    
O122  H114  S    
O43   Zn19  S    
C277  H176  S    
C244  H83   S    
C303  C304  S    
C4    O92   A    
C329  H314  S    
C72   O177  S    
C251  C252  S    
C264  C265  S    
C320  H292  S    
C279  C280  S    
C144  O40   A    
C255  H108  S    
O108  C218  S    
C158  O66   A    
O33   Zn25  S    
C76   O173  S    
O75   Zn3   S    
C117  C118  S    
C31   O151  S    
C318  C319  S    
C77   C80   S    
C241  H77   S    
O193  H377  S    
C291  H208  S    
C5    O93   A    
C60   C69   S    
C148  C191  S    
C343  H347  S    
O45   Zn21  S    
C336  C337  S    
C328  H312  S    
C149  O55   A    
C325  H303  S    
C250  H98   S    
C226  H41   S    
C313  H275  S    
C245  H85   S    
C129  O73   A    
C266  C267  S    
C69   O180  S    
C340  H339  S    
O67   Zn13  S    
C59   C70   S    
C306  H260  S    
O139  C263  S    
O4    Zn22  S    
C149  C186  S    
C334  H326  S    
C135  O79   A    
O3    Zn19  S    
O197  H381  S    
C57   C201  S    
O130  H122  S    
C302  H235  S    
O24   Zn10  S    
O12   Zn6   S    
C9    O17   A    
C34   C82   T    
C220  H27   S    
C75   O174  S    
O127  H119  S    
C32   O152  S    
C213  C214  S    
O6    Zn10  S    
C150  O56   A    
C312  H273  S    
O20   Zn14  S    
O186  H370  S    
C219  H24   S    
C330  C331  S    
C6    C45   S    
C288  H202  S    
C134  O30   A    
O185  H369  S    
O17   Zn15  S    
C5    O13   A    
O134  H126  S    
C100  C116  T    
C347  C348  S    
C107  C123  T    
C263  H143  S    
C25   O145  S    
C224  C225  S    
C215  H16   S    
C233  H57   S    
C183  C191  T    
C218  H22   S    
C230  H51   S    
C328  H310  S    
C25   C28   S    
C148  O46   A    
C147  O43   A    
C26   C27   S    
C352  H366  S    
C30   O134  S    
O136  H128  S    
C297  C298  S    
C1    O89   A    
C290  H207  S    
C345  H351  S    
O145  C281  S    
C29   C32   S    
C284  H193  S    
C99   C115  T    
C256  H110  S    
C269  H158  S    
C58   C71   S    
C12   O20   A    
C156  O62   A    
C231  H52   S    
C253  H104  S    
O171  C311  S    
C307  H263  S    
O191  H375  S    
C316  H284  S    
C177  C185  T    
C235  H61   S    
C323  H300  S    
C18   C19   S    
C292  H210  S    
C348  C349  S    
O8    Zn14  S    
O100  Zn28  S    
C337  H331  S    
C180  C188  T    
O2    Zn8   S    
C181  C189  T    
O3    Zn5   S    
O180  C338  S    
C244  H82   S    
O183  C347  S    
C319  H290  S    
C311  H271  S    
C4    O12   A    
C21   O125  S    
C219  H25   S    
C214  H12   S    
C184  C192  T    
C146  C189  S    
O176  C326  S    
C160  O68   A    
C24   O128  S    
O40   Zn32  S    
C163  C171  T    
C8    O16   A    
C321  C322  S    
O18   Zn16  S    
O53   Zn29  S    
C73   O176  S    
C172  C180  S    
C253  H105  S    
C259  H134  S    
C194  C195  S    
C63   C66   S    
C173  C181  S    
C262  H140  S    
O36   Zn28  S    
C63   C207  S    
O167  H255  S    
O164  H252  S    
O68   Zn14  S    
C249  H94   S    
O7    Zn27  S    
C74   O159  S    
C277  H177  S    
C247  H91   S    
C131  O75   A    
O5    Zn15  S    
C224  H36   S    
C304  H239  S    
O91   Zn19  S    
O77   Zn5   S    
C17   O137  S    
C286  H196  S    
O90   Zn18  S    
C327  H308  S    
O76   Zn4   S    
C151  O51   A    
C302  H234  S    
C211  H5    S    
O79   Zn7   S    
C286  H198  S    
C223  H33   S    
O80   Zn8   S    
C299  H228  S    
C202  O194  S    
C301  H231  S    
O154  H242  S    
O102  Zn30  S    
C35   C83   T    
C241  H75   S    
O170  C308  S    
O1    Zn17  S    
C341  C342  S    
C154  O58   A    
C305  H257  S    
C232  H54   S    
C68   O181  S    
C130  O26   A    
C264  H145  S    
O6    Zn16  S    
C201  O112  S    
C237  H67   S    
O184  C350  S    
C197  C200  S    
C281  H186  S    
C266  H150  S    
C298  H225  S    
O159  H247  S    
O16   Zn2   S    
O86   Zn14  S    
C140  O84   A    
C344  H349  S    
C134  O78   A    
C141  O85   A    
O158  H246  S    
C162  C170  T    
C300  H229  S    
O168  H256  S    
C232  H56   S    
C276  H174  S    
O64   Zn2   S    
C289  H203  S    
O146  C284  S    
C56   C200  S    
O29   Zn21  S    
C103  C129  S    
C293  C294  S    
C121  C122  S    
O3    Zn21  S    
O44   Zn20  S    
O34   Zn26  S    
C101  C131  S    
C285  H195  S    
C132  O76   A    
C308  H265  S    
C193  C196  S    
C133  O77   A    
C80   O169  S    
O5    Zn31  S    
O51   Zn27  S    
C125  C126  S    
C73   C76   S    
C327  C328  S    
C53   C76   S    
C257  H129  S    
O7    Zn13  S    
C127  C128  S    
C329  C330  S    
O99   Zn27  S    
C295  H217  S    
C18   C50   S    
O148  C290  S    
C252  C253  S    
O115  C239  S    
O47   Zn23  S    
C11   C36   S    
C17   O121  S    
O88   Zn16  S    
C76   O157  S    
C269  H157  S    
C30   O150  S    
C309  C310  S    
C71   O178  S    
C347  H356  S    
O182  C344  S    
C256  H112  S    
O198  H382  S    
C278  H178  S    
O84   Zn12  S    
C221  H29   S    
O61   Zn3   S    
O62   Zn4   S    
C344  H348  S    
C199  O114  S    
C219  C220  S    
C235  H63   S    
C101  C117  T    
C64   C65   S    
O42   Zn18  S    
C227  H44   S    
C258  C259  S    
C326  H306  S    
C138  O82   A    
C14   C37   S    
C50   C194  S    
C267  C268  S    
O3    Zn3   S    
C296  H220  S    
C308  H264  S    
O162  H250  S    
C110  C140  S    
C271  H161  S    
C231  H53   S    
C251  H100  S    
C9    C34   S    
O200  H384  S    
O196  H380  S    
O189  H373  S    
C57   C72   S    
O103  Zn31  S    
C217  H20   S    
C15   C40   S    
C112  C128  T    
C143  O39   A    
C151  O53   A    
C16   C39   S    
C13   O21   A    
O151  C299  S    
C59   C203  S    
C1    C42   S    
O194  H378  S    
C242  C243  S    
C9    O97   A    
C308  C309  S    
C3    O11   A    
C338  H334  S    
C274  H168  S    
C280  H183  S    
C205  O197  S    
C145  O47   A    
C1    O9    A    
C197  O189  S    
C39   C87   T    
C115  C116  S    
C263  H144  S    
C104  C120  T    
C346  H354  S    
C317  H286  S    
C322  H296  S    
C333  C334  S    
C332  H320  S    
C254  H107  S    
C234  H59   S    
C318  H287  S    
C153  O57   A    
C276  H173  S    
C223  H35   S    
C79   O154  S    
C204  O109  S    
C236  C237  S    
C58   C87   S    
O82   Zn10  S    
C221  C222  S    
C247  H90   S    
C268  H154  S    
C343  H345  S    
C75   O158  S    
C248  H93   S    
C330  H315  S    
O150  C296  S    
C64   C208  S    
C26   O130  S    
O117  C245  S    
O128  H120  S    
O8    Zn30  S    
C62   C67   S    
C146  O42   A    
C37   C85   T    
C6    O14   A    
C312  H274  S    
C225  H39   S    
C26   O146  S    
C239  C240  S    
C315  H280  S    
C217  H19   S    
C310  H270  S    
C211  H6    S    
C50   C95   S    
C218  H23   S    
C165  C173  T    
O119  C251  S    
C213  H11   S    
C98   C136  S    
C22   O126  S    
C99   C133  S    
O126  H118  S    
C297  H223  S    
O97   Zn25  S    
O92   Zn20  S    
C293  H213  S    
C273  H166  S    
O111  C227  S    
C246  H88   S    
C113  C114  S    
C26   C58   S    
O55   Zn31  S    
C334  H324  S    
C261  H139  S    
C216  H18   S    
O5    Zn25  S    
C300  C301  S    
C226  H40   S    
C331  H319  S    
C198  C199  S    
C70   O163  S    
C77   O172  S    
C10   C33   S    
O177  C329  S    
O121  H113  S    
C148  O44   A    
C349  H360  S    
C102  C118  T    
C295  H219  S    
O71   Zn9   S    
C342  C343  S    
O181  C341  S    
C210  H4    S    
C339  H336  S    
C294  C295  S    
C292  H212  S    
C214  H13   S    
O199  H383  S    
O73   Zn1   S    
C2    O90   A    
O1    Zn1   S    
C335  H327  S    
C272  H165  S    
C77   O156  S    
C235  H62   S    
C258  H132  S    
C351  H365  S    
C232  H55   S    
C23   O127  S    
C64   C81   S    
C344  C345  S    
C12   C35   S    
C262  H141  S    
C74   C75   S    
C260  H137  S    
C321  H295  S    
C25   C57   S    
C350  H362  S    
O6    Zn26  S    
O173  C317  S    
O19   Zn13  S    
O152  C302  S    
C349  H361  S    
C19   O123  S    
C74   O175  S    
O32   Zn24  S    
C230  H50   S    
O94   Zn22  S    
C67   O166  S    
C267  H152  S    
C239  H71   S    
C296  C297  S    
C205  O108  S    
O48   Zn24  S    
C245  C246  S    
C320  H293  S    
O129  H121  S    
C246  C247  S    
C16   O24   A    
C271  H163  S    
C43   C91   T    
C238  H68   S    
C157  O65   A    
C307  H262  S    
O56   Zn32  S    
C339  C340  S    
C212  H9    S    
C137  O81   A    
O141  C269  S    
O120  C254  S    
O26   Zn18  S    
O107  C215  S    
O74   Zn2   S    
C152  O52   A    
C228  H45   S    
O83   Zn11  S    
C147  C192  S    
O143  C275  S    
C338  C339  S    
C23   O143  S    
C53   C92   S    
C350  H363  S    
O157  H245  S    
O9    Zn7   S    
C350  C351  S    
C105  C121  T    
O38   Zn30  S    
C261  C262  S    
C287  H199  S    
C119  C120  S    
C245  H86   S    
C266  H151  S    
O70   Zn12  S    
C340  H338  S    
C18   O138  S    
C28   C60   S    
C103  C119  T    
C195  O187  S    
C11   O19   A    
O174  C320  S    
C334  H325  S    
O14   Zn4   S    
O65   Zn15  S    
C332  C333  S    
O78   Zn6   S    
C111  C127  T    
C18   O122  S    
C201  C204  S    
O4    Zn4   S    
C255  C256  S    
C270  H160  S    
C97   C113  T    
C136  O80   A    
C222  H32   S    
C158  O72   A    
C25   O129  S    
C268  H156  S    
C139  O35   A    
O138  C260  S    
C104  C130  S    
C10   O18   A    
C229  H47   S    
C248  H92   S    
C205  C208  S    
O118  C248  S    
O149  C293  S    
O87   Zn15  S    
C197  O116  S    
C46   C94   T    
C146  O48   A    
O57   Zn7   S    
C17   C20   S    
C28   O132  S    
O58   Zn8   S    
C283  H189  S    
O59   Zn5   S    
C138  O34   A    
C105  C143  S    
C326  C327  S    
C233  H58   S    
C310  H268  S    
C106  C144  S    
O22   Zn12  S    
O2    Zn24  S    
C216  C217  S    
C236  H65   S    
O124  H116  S    
C54   C198  S    
C343  H346  S    
C275  H172  S    
C109  C139  S    
C252  H101  S    
C159  O67   A    
C220  H28   S    
C30   C62   S    
C279  H180  S    
C252  H102  S    
C130  O74   A    
C27   C59   S    
C284  H192  S    
C150  O50   A    
C21   C53   S    
O5    Zn9   S    
C61   C68   S    
C209  H1    S    
C282  H187  S    
C49   C193  S    
C36   C84   T    
O160  H248  S    
O106  C212  S    
C316  H283  S    
C265  H148  S    
C135  O31   A    
C67   O182  S    
C274  H170  S    
C348  H358  S    
C49   C96   S    
C242  H78   S    
C248  C249  S    
C337  H332  S    
C198  O190  S    
C254  C255  S    
C316  H282  S    
C194  O119  S    
C51   C94   S    
O190  H374  S    
C281  C282  S    
C158  C166  S    
C19   C51   S    
O147  C287  S    
C331  H317  S    
C156  C164  S    
C291  C292  S    
C332  H321  S    
C303  H236  S    
C322  H298  S    
C61   C205  S    
C314  H278  S    
C220  H26   S    
C249  H95   S    
C233  C234  S    
C239  H72   S    
O93   Zn21  S    
C243  H81   S    
O105  C209  S    
O163  H251  S    
C33   C81   T    
C66   O167  S    
C335  C336  S    
C155  O59   A    
O21   Zn11  S    
C54   C75   S    
C314  C315  S    
C231  C232  S    
C15   O103  A    
