data_mof_unit_18412.cif
_audit_creation_date              2013-03-05T15:48:51-0500
_audit_creation_method            fapswitch 2.2
_symmetry_space_group_name_H-M    P1
_symmetry_Int_Tables_number       1
_space_group_crystal_system       triclinic
_cell_length_a                    17.560749
_cell_length_b                    24.317489
_cell_length_c                    15.047146
_cell_angle_alpha                 90.169815
_cell_angle_beta                  126.155992
_cell_angle_gamma                 89.879304
_cell_volume                      5188.1206531

loop_
_atom_site_label
_atom_site_type_symbol
_atom_site_description
_atom_site_fract_x
_atom_site_fract_y
_atom_site_fract_z
_atom_type_partial_charge
C1    C     C_R   0.905545 0.871478 0.091826 -0.147105
C2    C     C_R   0.903295 0.126085 0.091639 -0.157452
C3    C     C_R   0.403987 0.373304 0.091705 -0.158371
C4    C     C_R   0.404419 0.627132 0.091940 -0.164364
H1    H     H_    0.936404 0.861620 0.176655 0.086896
H2    H     H_    0.933213 0.135321 0.176515 0.090268
H3    H     H_    0.434275 0.364062 0.176609 0.089340
H4    H     H_    0.434920 0.636116 0.176970 0.094596
N1    N     N_R   0.950530 0.896220 0.057200 -0.033073
N2    N     N_R   0.950530 0.103780 0.057200 -0.035841
N3    N     N_R   0.450530 0.396220 0.057200 -0.035694
N4    N     N_R   0.450530 0.603780 0.057200 -0.037271
C5    C     C_R   0.809756 0.123888 0.906737 -0.124236
C6    C     C_R   0.811202 0.874134 0.906421 -0.154853
C7    C     C_R   0.309882 0.624388 0.907110 -0.104881
C8    C     C_R   0.310246 0.375358 0.906687 -0.124580
H5    H     H_    0.752698 0.129273 0.821163 0.084256
H6    H     H_    0.755494 0.867143 0.820694 0.093795
H7    H     H_    0.252628 0.630572 0.821721 0.090861
H8    H     H_    0.253319 0.369640 0.821103 0.083843
N5    N     N_R   0.893330 0.103780 0.942800 -0.038705
N6    N     N_R   0.893330 0.896220 0.942800 -0.035379
N7    N     N_R   0.393330 0.603780 0.942800 -0.039403
N8    N     N_R   0.393330 0.396220 0.942800 -0.038511
C9    C     C_R   0.744837 0.954157 0.694625 -0.148248
C10   C     C_R   0.745000 0.045598 0.694436 -0.150623
C11   C     C_R   0.244738 0.454237 0.694825 -0.150450
C12   C     C_R   0.244832 0.545749 0.694961 -0.151731
H9    H     H_    0.732055 0.911666 0.668653 0.084637
H10   H     H_    0.732657 0.088004 0.668314 0.084112
H11   H     H_    0.231998 0.411762 0.668765 0.083644
H12   H     H_    0.232345 0.588202 0.669138 0.083327
N9    N     N_R   0.818150 0.971400 0.792440 -0.031220
N10   N     N_R   0.818150 0.028600 0.792440 -0.031901
N11   N     N_R   0.318150 0.471400 0.792440 -0.032085
N12   N     N_R   0.318150 0.528600 0.792440 -0.032189
C13   C     C_R   0.052101 0.046336 0.304828 -0.156851
C14   C     C_R   0.051784 0.954966 0.305659 -0.160279
C15   C     C_R   0.548408 0.546181 0.303591 -0.151480
C16   C     C_R   0.550747 0.454738 0.304993 -0.144635
H13   H     H_    0.065903 0.089032 0.329585 0.084990
H14   H     H_    0.060577 0.912536 0.330179 0.110432
H15   H     H_    0.558573 0.588729 0.326514 0.094085
H16   H     H_    0.565786 0.412343 0.331340 0.086513
N13   N     N_R   0.025710 0.028600 0.207560 -0.027713
N14   N     N_R   0.025710 0.971400 0.207560 -0.030803
N15   N     N_R   0.525710 0.528600 0.207560 -0.030699
N16   N     N_R   0.525710 0.471400 0.207560 -0.030572
C17   C     C_R   0.817708 0.856757 0.998316 0.001766
C18   C     C_R   0.814474 0.139752 0.998322 -0.004139
C19   C     C_R   0.315394 0.359277 0.998372 -0.002184
C20   C     C_R   0.315573 0.640960 0.998991 -0.006443
C21   C     C_R   0.698490 0.999802 0.630709 -0.009533
C22   C     C_R   0.198234 0.499991 0.631448 -0.006671
C23   C     C_R   0.069125 0.001125 0.368970 -0.014675
C24   C     C_R   0.564413 0.500862 0.367045 -0.012335
C25   C     C_R   0.267445 0.953803 0.244706 -0.140731
C26   C     C_R   0.267517 0.045904 0.244701 -0.139226
C27   C     C_R   0.767765 0.453872 0.246599 -0.139312
C28   C     C_R   0.767653 0.546118 0.246517 -0.140142
H17   H     H_    0.288707 0.911246 0.259975 0.090473
H18   H     H_    0.288605 0.088467 0.259320 0.089948
H19   H     H_    0.788917 0.411300 0.262034 0.088544
H20   H     H_    0.788533 0.588725 0.261607 0.088861
N17   N     N_R   0.181850 0.971400 0.207560 -0.036921
N18   N     N_R   0.181850 0.028600 0.207560 -0.036808
N19   N     N_R   0.681850 0.471400 0.207560 -0.036556
N20   N     N_R   0.681850 0.528600 0.207560 -0.036289
C29   C     C_R   0.015045 0.046680 0.747795 -0.147058
C30   C     C_R   0.015529 0.954001 0.746825 -0.143937
C31   C     C_R   0.520269 0.545497 0.752284 -0.140729
C32   C     C_R   0.518886 0.453081 0.752012 -0.142728
H21   H     H_    0.022011 0.089564 0.735766 0.091931
H22   H     H_    0.022540 0.911486 0.731655 0.087044
H23   H     H_    0.528040 0.587856 0.737527 0.088372
H24   H     H_    0.526501 0.410197 0.740346 0.091905
N21   N     N_R   0.974290 0.028600 0.792440 -0.034915
N22   N     N_R   0.974290 0.971400 0.792440 -0.034598
N23   N     N_R   0.474290 0.528600 0.792440 -0.034994
N24   N     N_R   0.474290 0.471400 0.792440 -0.036051
C33   C     C_R   0.055092 0.846959 0.909046 -0.158008
C34   C     C_R   0.054869 0.152568 0.908383 -0.156765
C35   C     C_R   0.554556 0.347250 0.908199 -0.157732
C36   C     C_R   0.555234 0.652285 0.908240 -0.146851
H25   H     H_    0.013008 0.833962 0.823952 0.087517
H26   H     H_    0.010417 0.165384 0.823367 0.087477
H27   H     H_    0.510011 0.334320 0.823134 0.088028
H28   H     H_    0.512888 0.664126 0.822790 0.094374
N25   N     N_R   0.049470 0.896220 0.942800 -0.032463
N26   N     N_R   0.049470 0.103780 0.942800 -0.031879
N27   N     N_R   0.549470 0.396220 0.942800 -0.031943
N28   N     N_R   0.549470 0.603780 0.942800 -0.031847
C37   C     C_R   0.147281 0.152846 0.091362 -0.154512
C38   C     C_R   0.146536 0.847218 0.091966 -0.149631
C39   C     C_R   0.646568 0.652985 0.091232 -0.157005
C40   C     C_R   0.646975 0.347107 0.091137 -0.153037
H29   H     H_    0.190970 0.165963 0.176368 0.083729
H30   H     H_    0.188978 0.834764 0.177182 0.084026
H31   H     H_    0.690234 0.666148 0.176219 0.084882
H32   H     H_    0.690603 0.334086 0.176090 0.082638
N29   N     N_R   0.106670 0.103780 0.057200 -0.031494
N30   N     N_R   0.106670 0.896220 0.057200 -0.032040
N31   N     N_R   0.606670 0.603780 0.057200 -0.031785
N32   N     N_R   0.606670 0.396220 0.057200 -0.031423
Ni1   Ni    Ni4+2 0.065600 0.934400 0.131190 0.204178
Ni2   Ni    Ni4+2 0.065600 0.065600 0.131190 0.202859
Ni3   Ni    Ni4+2 0.565600 0.434400 0.131190 0.203258
Ni4   Ni    Ni4+2 0.565600 0.565600 0.131190 0.203373
Ni5   Ni    Ni4+2 0.934400 0.065600 0.868810 0.206536
Ni6   Ni    Ni4+2 0.934400 0.934400 0.868810 0.206194
Ni7   Ni    Ni4+2 0.434400 0.565600 0.868810 0.208884
Ni8   Ni    Ni4+2 0.434400 0.434400 0.868810 0.206424
C41   C     C_R   0.323709 0.999735 0.269423 -0.011587
C42   C     C_R   0.823917 0.499996 0.272387 -0.009759
C43   C     C_R   0.038715 0.000702 0.714552 0.018615
C44   C     C_R   0.545940 0.498711 0.722340 0.014410
C45   C     C_R   0.114444 0.815080 0.000967 0.007368
C46   C     C_R   0.115473 0.184396 0.999684 0.005531
C47   C     C_R   0.614898 0.315418 0.999348 0.005660
C48   C     C_R   0.614984 0.684371 0.999472 -0.002357
C49   C     C_3   0.056944 0.061569 0.493836 -0.457447
C50   C     C_3   0.982081 0.970002 0.435996 -0.415461
C51   C     C_3   0.474653 0.525721 0.435523 -0.409390
C52   C     C_3   0.568973 0.440442 0.502741 -0.454050
H33   H     H_    0.111744 0.090880 0.508887 0.160503
H34   H     H_    0.978255 0.927621 0.407108 0.146447
H35   H     H_    0.459981 0.567155 0.399429 0.145838
H36   H     H_    0.628692 0.415595 0.518067 0.148703
H37   H     H_    0.988815 0.078257 0.421570 0.166735
H38   H     H_    0.918526 0.990420 0.363634 0.168195
H39   H     H_    0.415177 0.500275 0.368764 0.164779
H40   H     H_    0.504354 0.418863 0.434305 0.166869
C53   C     C_3   0.053333 0.061207 0.592268 -0.419988
C54   C     C_3   0.971357 0.969375 0.528648 -0.422694
C55   C     C_3   0.470161 0.525938 0.533003 -0.401822
C56   C     C_3   0.567767 0.439115 0.603018 -0.421205
H41   H     H_    0.987236 0.082749 0.566542 0.157627
H42   H     H_    0.902753 0.988435 0.500479 0.164768
H43   H     H_    0.405784 0.503388 0.510417 0.161868
H44   H     H_    0.506180 0.413711 0.580774 0.156806
H45   H     H_    0.113689 0.084830 0.661737 0.153890
H46   H     H_    0.969597 0.925796 0.549664 0.146650
H47   H     H_    0.461823 0.569012 0.550580 0.142568
H48   H     H_    0.632843 0.418889 0.673185 0.159326
H49   H     H_    0.205387 0.988658 0.749656 0.143761
H50   H     H_    0.142097 0.928228 0.684681 0.148217
H51   H     H_    0.648686 0.572038 0.699846 0.146972
H52   H     H_    0.711243 0.509868 0.743260 0.153308
C57   C     C_3   0.168409 0.978048 0.579901 0.321901
C58   C     C_3   0.659738 0.533062 0.572601 0.320725
C59   C     C_3   0.073011 0.001846 0.469764 0.345424
C60   C     C_3   0.569966 0.501331 0.469099 0.318475
C61   C     C_3   0.053911 0.001091 0.628547 0.375786
C62   C     C_3   0.559411 0.498502 0.634616 0.361883
C63   C     C_3   0.147424 0.971770 0.667818 -0.495097
C64   C     C_3   0.649502 0.530508 0.669689 -0.472225
C65   C     C_3   0.655909 0.185585 0.888008 -0.390254
C66   C     C_3   0.660632 0.810891 0.886487 -0.406702
C67   C     C_3   0.150935 0.677794 0.904812 -0.404489
C68   C     C_3   0.156756 0.313732 0.888449 -0.392248
H53   H     H_    0.653496 0.186794 0.813139 0.136501
H54   H     H_    0.662206 0.806427 0.814202 0.144732
H55   H     H_    0.134173 0.667263 0.823365 0.134714
H56   H     H_    0.154280 0.312084 0.813522 0.136085
C69   C     C_3   0.099589 0.731098 0.895798 -0.426412
C70   C     C_3   0.103252 0.263997 0.887694 -0.416105
C71   C     C_3   0.602727 0.235718 0.886963 -0.413442
C72   C     C_3   0.605996 0.762192 0.886265 -0.425662
H57   H     H_    0.082036 0.754067 0.822088 0.154214
H58   H     H_    0.085354 0.236884 0.818297 0.141180
H59   H     H_    0.585919 0.262769 0.818169 0.141607
H60   H     H_    0.589673 0.734022 0.818782 0.151289
H61   H     H_    0.229577 0.824608 0.952340 0.152920
H62   H     H_    0.237281 0.179507 0.953995 0.165640
H63   H     H_    0.737424 0.319711 0.954897 0.165311
H64   H     H_    0.740939 0.675693 0.964971 0.171461
C73   C     C_3   0.294754 0.742145 0.984005 0.018253
C74   C     C_3   0.311895 0.258599 0.016367 0.015623
C75   C     C_3   0.811384 0.240448 0.016901 0.016761
C76   C     C_3   0.813037 0.755943 0.014927 0.003250
C77   C     C_3   0.746305 0.177223 0.091259 -0.453406
C78   C     C_3   0.749143 0.820948 0.090702 -0.431739
C79   C     C_3   0.268488 0.686149 0.108146 -0.452410
C80   C     C_3   0.247726 0.322277 0.091838 -0.451992
C81   C     C_3   0.757706 0.184683 0.996633 0.351269
C82   C     C_3   0.760989 0.812131 0.996562 0.334888
C83   C     C_3   0.258118 0.685482 0.997403 0.344254
C84   C     C_3   0.258641 0.314516 0.996782 0.351877
H65   H     H_    0.815906 0.175913 0.173011 0.147206
H66   H     H_    0.818749 0.820709 0.172556 0.147024
H67   H     H_    0.341638 0.697602 0.177719 0.151869
H68   H     H_    0.317475 0.323614 0.173415 0.146808
H69   H     H_    0.710113 0.137678 0.081098 0.168328
H70   H     H_    0.715705 0.861524 0.081354 0.166087
H71   H     H_    0.253230 0.644887 0.126075 0.166681
H72   H     H_    0.211650 0.361900 0.081975 0.169318
C85   C     C_3   0.164059 0.766544 0.001679 0.398957
C86   C     C_3   0.164313 0.233005 0.999220 0.383244
C87   C     C_3   0.663529 0.266608 0.998839 0.382077
C88   C     C_3   0.664760 0.732437 0.999402 0.390969
C89   C     C_3   0.249773 0.788719 0.007761 -0.458842
C90   C     C_3   0.255228 0.211113 0.017135 -0.436685
C91   C     C_3   0.754847 0.288160 0.017633 -0.437040
C92   C     C_3   0.757637 0.710031 0.023148 -0.431578
C93   C     C_3   0.201408 0.728952 0.102803 -0.417755
C94   C     C_3   0.190790 0.274204 0.092263 -0.413857
C95   C     C_3   0.689203 0.225476 0.091346 -0.413397
C96   C     C_3   0.688437 0.774839 0.089146 -0.418553
H73   H     H_    0.241065 0.752124 0.181552 0.147244
H74   H     H_    0.234233 0.254012 0.174171 0.146829
H75   H     H_    0.732262 0.245655 0.173448 0.146596
H76   H     H_    0.728107 0.755541 0.171905 0.147093
H77   H     H_    0.372272 0.744805 0.049143 0.104405
H78   H     H_    0.377956 0.261017 0.101977 0.090702
H79   H     H_    0.877180 0.237977 0.102690 0.090851
H80   H     H_    0.884144 0.758362 0.095300 0.107891
H81   H     H_    0.303181 0.805207 0.092005 0.144791
H82   H     H_    0.299903 0.189540 0.097832 0.135253
H83   H     H_    0.799387 0.309705 0.098559 0.135617
H84   H     H_    0.802625 0.692059 0.107382 0.133602
C97   C     C_3   0.477223 0.948697 0.353835 -0.399631
C98   C     C_3   0.476076 0.051817 0.357270 -0.404801
C99   C     C_3   0.976217 0.448692 0.357376 -0.403702
C100  C     C_3   0.975823 0.551855 0.358757 -0.405508
H85   H     H_    0.444149 0.909694 0.353143 0.143686
H86   H     H_    0.443095 0.089875 0.361076 0.143585
H87   H     H_    0.943638 0.409991 0.358950 0.143392
H88   H     H_    0.942947 0.590284 0.361311 0.143599
C101  C     C_3   0.581145 0.948377 0.455717 -0.402660
C102  C     C_3   0.580248 0.051761 0.457781 -0.405326
C103  C     C_3   0.080357 0.448603 0.457771 -0.406445
C104  C     C_3   0.079871 0.551985 0.459264 -0.405487
H89   H     H_    0.628551 0.948047 0.429432 0.150466
H90   H     H_    0.626757 0.052881 0.430274 0.151345
H91   H     H_    0.126815 0.448300 0.430156 0.151395
H92   H     H_    0.126446 0.553082 0.431843 0.152307
H93   H     H_    0.593788 0.909811 0.502003 0.146285
H94   H     H_    0.593216 0.089869 0.505720 0.144419
H95   H     H_    0.093701 0.410077 0.504409 0.144825
H96   H     H_    0.092634 0.590160 0.506965 0.145555
H97   H     H_    0.399907 0.960319 0.470151 0.151582
H98   H     H_    0.397468 0.034025 0.470342 0.168296
H99   H     H_    0.898811 0.462612 0.474000 0.153128
H100  H     H_    0.898607 0.536354 0.475088 0.157987
C105  C     C_3   0.434204 0.997937 0.466757 -0.398998
C106  C     C_3   0.934075 0.499633 0.470254 -0.396581
C107  C     C_3   0.425865 0.999525 0.358430 0.399861
C108  C     C_3   0.925550 0.500052 0.361536 0.405120
C109  C     C_3   0.601787 0.999700 0.528822 0.401449
C110  C     C_3   0.101428 0.500035 0.530582 0.406160
C111  C     C_3   0.536717 0.998894 0.566253 -0.389105
C112  C     C_3   0.037008 0.499546 0.569070 -0.398262
C113  C     C_3   0.253601 0.020058 0.633000 -0.465335
C114  C     C_3   0.284840 0.038741 0.561546 -0.260612
C115  C     C_3   0.369093 0.077858 0.626724 -0.964865
H101  H     H_    0.353386 0.112006 0.662826 0.271487
H102  H     H_    0.432511 0.055303 0.693852 0.263306
H103  H     H_    0.384614 0.096478 0.571858 0.244055
H104  H     H_    0.304957 0.002755 0.534161 0.194912
H105  H     H_    0.227508 0.061188 0.488282 0.201128
H106  H     H_    0.239595 0.057279 0.663942 0.199841
H107  H     H_    0.316237 0.001369 0.708968 0.187292
C116  C     C_3   0.206197 0.922557 0.563755 -0.423102
C117  C     C_3   0.159092 0.867686 0.557736 -0.264742
C118  C     C_3   0.177510 0.822888 0.501005 -0.985889
H108  H     H_    0.142685 0.832974 0.413147 0.256765
H109  H     H_    0.254437 0.818241 0.542153 0.268866
H110  H     H_    0.148777 0.783106 0.505100 0.253103
H111  H     H_    0.189299 0.853335 0.642570 0.186354
H112  H     H_    0.082591 0.871363 0.514741 0.196399
H113  H     H_    0.208090 0.926453 0.491831 0.186711
H114  H     H_    0.281660 0.917127 0.634005 0.178505
C119  C     C_3   0.673748 0.595073 0.553010 -0.424986
C120  C     C_3   0.597117 0.638505 0.522277 -0.259961
C121  C     C_3   0.638387 0.696597 0.552656 -0.993608
H115  H     H_    0.690387 0.700711 0.643274 0.267272
H116  H     H_    0.673358 0.706039 0.512489 0.267067
H117  H     H_    0.581063 0.726972 0.524458 0.251447
H118  H     H_    0.541354 0.639107 0.432738 0.184399
H119  H     H_    0.564052 0.631061 0.564817 0.200413
H120  H     H_    0.737494 0.610193 0.631786 0.205803
H121  H     H_    0.691997 0.597250 0.493997 0.168096
C122  C     C_3   0.751920 0.500634 0.607588 -0.474046
C123  C     C_3   0.847564 0.527919 0.695299 -0.269650
C124  C     C_3   0.929235 0.487694 0.738594 -0.945537
H122  H     H_    0.923259 0.452936 0.781891 0.259352
H123  H     H_    0.929320 0.471324 0.669697 0.264778
H124  H     H_    0.997159 0.509164 0.797509 0.249713
H125  H     H_    0.859912 0.563320 0.658747 0.197068
H126  H     H_    0.848537 0.542739 0.765818 0.205166
H127  H     H_    0.753145 0.460005 0.641662 0.207443
H128  H     H_    0.750350 0.492849 0.533659 0.184449
H129  H     H_    0.617999 0.147390 0.881420 0.160163
H130  H     H_    0.622859 0.849941 0.875788 0.161681
H131  H     H_    0.123169 0.643016 0.925925 0.169528
H132  H     H_    0.119255 0.352184 0.881997 0.160817
H133  H     H_    0.535096 0.222350 0.870673 0.158847
H134  H     H_    0.538833 0.777394 0.868886 0.165751
H135  H     H_    0.032596 0.721004 0.883989 0.171876
H136  H     H_    0.036179 0.277867 0.872463 0.159565
C125  C     C_3   0.276303 0.751045 0.869421 -0.391816
C126  C     C_3   0.365338 0.745448 0.873039 -0.265382
C127  C     C_3   0.337945 0.734994 0.757399 -0.965072
H137  H     H_    0.301096 0.694899 0.725392 0.256305
H138  H     H_    0.290902 0.768228 0.701635 0.277813
H139  H     H_    0.400834 0.734122 0.757484 0.244381
H140  H     H_    0.407134 0.784025 0.906274 0.183214
H141  H     H_    0.411247 0.711551 0.927820 0.216781
H142  H     H_    0.221061 0.723015 0.806528 0.192071
H143  H     H_    0.247315 0.792505 0.835077 0.171874
C128  C     C_3   0.348396 0.244856 0.945957 -0.411655
C129  C     C_3   0.273008 0.237355 0.821021 -0.194886
C130  C     C_3   0.310997 0.204000 0.768914 -1.010401
H144  H     H_    0.371286 0.225769 0.779463 0.264784
H145  H     H_    0.333850 0.162547 0.806833 0.264481
H146  H     H_    0.254781 0.198887 0.679449 0.252617
H147  H     H_    0.209478 0.216177 0.802757 0.191862
H148  H     H_    0.251574 0.277889 0.779932 0.179046
H149  H     H_    0.400099 0.276316 0.959693 0.187100
H150  H     H_    0.389694 0.206068 0.979812 0.186954
C131  C     C_3   0.848698 0.253897 0.947346 -0.411040
C132  C     C_3   0.774025 0.261340 0.822336 -0.200201
C133  C     C_3   0.814124 0.292540 0.770633 -0.998310
H151  H     H_    0.839497 0.333857 0.808794 0.263967
H152  H     H_    0.873053 0.268920 0.781175 0.262224
H153  H     H_    0.758323 0.297923 0.681170 0.250397
H154  H     H_    0.750795 0.220787 0.781273 0.179915
H155  H     H_    0.711437 0.284036 0.803680 0.191582
H156  H     H_    0.889994 0.292666 0.981548 0.186077
H157  H     H_    0.900532 0.222330 0.961486 0.188664
C134  C     C_3   0.828097 0.740745 0.925576 -0.414033
C135  C     C_3   0.898268 0.692832 0.961880 -0.235978
C136  C     C_3   0.880202 0.661690 0.862900 -1.004939
H158  H     H_    0.812572 0.638882 0.821172 0.262427
H159  H     H_    0.876439 0.690495 0.803303 0.265894
H160  H     H_    0.937985 0.631727 0.890732 0.255176
H161  H     H_    0.971235 0.709479 0.011683 0.182532
H162  H     H_    0.893785 0.662993 0.014361 0.197227
H163  H     H_    0.758982 0.730132 0.847477 0.204344
H164  H     H_    0.857259 0.775672 0.907726 0.186977
H165  H     H_    0.623815 0.209754 0.078302 0.159445
H166  H     H_    0.622304 0.792315 0.071837 0.155848
H167  H     H_    0.141563 0.708042 0.095238 0.161320
H168  H     H_    0.125760 0.290106 0.080075 0.159637
H169  H     H_    0.473366 0.949746 0.277352 0.151859
H170  H     H_    0.470992 0.053303 0.280026 0.152123
H171  H     H_    0.971128 0.448742 0.280077 0.153049
H172  H     H_    0.970846 0.552408 0.281535 0.153027
H173  H     H_    0.551416 0.962036 0.617974 0.154363
H174  H     H_    0.549397 0.035854 0.617289 0.158951
H175  H     H_    0.051264 0.462397 0.619943 0.155537
H176  H     H_    0.051032 0.536211 0.621317 0.159382

loop_
_geom_bond_atom_site_label_1
_geom_bond_atom_site_label_2
_geom_bond_distance
_ccdc_geom_bond_type
C115  H102  1.111171 S    
C53   H41   1.113532 S    
C117  H111  1.111543 S    
C86   C94   1.551003 S    
C74   C128  1.563134 S    
C56   H44   1.112566 S    
C127  H138  1.105870 S    
C136  H158  1.110454 S    
C55   H43   1.114620 S    
N4    N7    1.389921 A    
H97   C105  1.114016 S    
C123  C124  1.527605 S    
C77   C95   1.542382 S    
C67   H131  1.113557 S    
C68   H132  1.113516 S    
C38   C45   1.374142 A    
C39   H31   1.080428 S    
C110  C112  1.545474 S    
N14   Ni1   1.887288 S    
C126  H141  1.107238 S    
C131  H156  1.113185 S    
H61   C89   1.112156 S    
C120  C121  1.529487 S    
C35   C47   1.375164 A    
C17   C82   1.464153 S    
N11   N12   1.390960 A    
C30   H22   1.080452 S    
C26   C41   1.391856 A    
C78   H70   1.113140 S    
C20   C83   1.468938 S    
C68   C70   1.528965 S    
C4    N4    1.321810 A    
C44   C62   1.472001 S    
C74   C84   1.575474 S    
C123  H126  1.110160 S    
C71   H133  1.110819 S    
C43   C61   1.467522 S    
C100  H88   1.109849 S    
N2    N5    1.389921 A    
C69   H57   1.112061 S    
H98   C105  1.108001 S    
C11   H11   1.079703 S    
C133  H151  1.110990 S    
C73   H77   1.115159 S    
C12   H12   1.079694 S    
C37   N29   1.328098 A    
N4    Ni4   1.878405 S    
C12   C22   1.376879 A    
C52   C56   1.521902 S    
C71   H59   1.110889 S    
C97   C107  1.553794 S    
C11   N11   1.325848 A    
C125  C126  1.537787 S    
C70   C86   1.553944 S    
C98   C107  1.554927 S    
C127  H137  1.110610 S    
C96   H76   1.111169 S    
C128  H150  1.113195 S    
N24   Ni8   1.891936 S    
N12   Ni7   1.879110 S    
C5    N5    1.321474 A    
C25   H17   1.077837 S    
C111  H173  1.114357 S    
C40   N32   1.327276 A    
C30   C43   1.389174 A    
C47   C87   1.463406 S    
C34   C46   1.375130 A    
C13   N13   1.318960 A    
C15   N15   1.321775 A    
C136  H160  1.110486 S    
C113  H106  1.108241 S    
C16   N16   1.322525 A    
C51   C60   1.551865 S    
C112  H176  1.114441 S    
C9    C21   1.377791 A    
C73   C83   1.584790 S    
C15   H15   1.071149 S    
N28   Ni7   1.879351 S    
C23   C59   1.477468 S    
C122  H128  1.112062 S    
C35   N27   1.322076 A    
C27   H19   1.077790 S    
C28   H20   1.077701 S    
C57   C63   1.576648 S    
C124  H123  1.110229 S    
C134  H163  1.112315 S    
C114  H104  1.108491 S    
C102  H90   1.112718 S    
C78   C96   1.539363 S    
C58   C122  1.584580 S    
C3    N3    1.323822 A    
C49   C59   1.560689 S    
C38   N30   1.323528 A    
C131  C132  1.543073 S    
C78   H66   1.111166 S    
C57   C116  1.582644 S    
N32   Ni3   1.886851 S    
C101  C109  1.556386 S    
C97   H85   1.110016 S    
C29   N21   1.314221 A    
N8    Ni8   1.891589 S    
C8    C19   1.385715 A    
C31   N23   1.328319 A    
C119  H121  1.109124 S    
C65   C81   1.555634 S    
C57   C59   1.616633 S    
C113  C114  1.537309 S    
C99   H87   1.109922 S    
C130  H145  1.110969 S    
C54   C61   1.543540 S    
C57   C113  1.584711 S    
C104  H92   1.112780 S    
C129  C130  1.526066 S    
C52   H40   1.115311 S    
C9    H9    1.079765 S    
C67   C83   1.557055 S    
C50   C54   1.513029 S    
C19   C84   1.467975 S    
C2    C18   1.389686 A    
C27   N19   1.325156 A    
C132  H155  1.107117 S    
C132  H154  1.105143 S    
C117  C118  1.529338 S    
C86   C90   1.547382 S    
C116  H113  1.106546 S    
C95   H75   1.111082 S    
N17   Ni1   1.879109 S    
C39   N31   1.327174 A    
C119  C120  1.550111 S    
C14   C23   1.383132 A    
C120  H118  1.103461 S    
C121  H117  1.110739 S    
C135  C136  1.526154 S    
C25   C41   1.389488 A    
N6    Ni6   1.891589 S    
C41   C107  1.475443 S    
N25   Ni6   1.878407 S    
C67   C69   1.537349 S    
C51   C55   1.514681 S    
C133  H152  1.109196 S    
C36   H28   1.078053 S    
N27   Ni8   1.878407 S    
C49   H33   1.109131 S    
C94   H74   1.111153 S    
C51   H35   1.101630 S    
C88   C92   1.547382 S    
H99   C106  1.113990 S    
C25   N17   1.327486 A    
C72   H134  1.109469 S    
N21   Ni5   1.887287 S    
C118  H109  1.110804 S    
C28   N20   1.324559 A    
C76   C82   1.574031 S    
C75   C91   1.529711 S    
C125  H143  1.110478 S    
C10   H10   1.079715 S    
C79   C93   1.536571 S    
C129  H148  1.105893 S    
N2    Ni2   1.878405 S    
C24   C60   1.480204 S    
C46   C86   1.464339 S    
C37   H29   1.080339 S    
C98   H170  1.112656 S    
N29   Ni2   1.891587 S    
C29   C43   1.383178 A    
C117  H112  1.097997 S    
C135  H161  1.111158 S    
C69   H135  1.109117 S    
N5    Ni5   1.886851 S    
C70   H136  1.110803 S    
N7    Ni7   1.886851 S    
C5    H5    1.075728 S    
C6    N6    1.318371 A    
C32   N24   1.319425 A    
C40   H32   1.080299 S    
H100  C106  1.114162 S    
C31   C44   1.391095 A    
C73   C89   1.536700 S    
C13   H13   1.080622 S    
C14   N14   1.324185 A    
C5    C18   1.384585 A    
C13   C23   1.376245 A    
C16   H16   1.080501 S    
C98   C102  1.539224 S    
C88   C96   1.546182 S    
N15   Ni4   1.891937 S    
C94   H168  1.112959 S    
C122  C123  1.544970 S    
C71   C87   1.553437 S    
C103  H91   1.112766 S    
N9    Ni6   1.878253 S    
C36   N28   1.318396 A    
N26   Ni5   1.879351 S    
C33   H25   1.080535 S    
N11   Ni8   1.878253 S    
C9    N9    1.327513 A    
C26   H18   1.077465 S    
C35   H27   1.079965 S    
H64   C92   1.115074 S    
C40   C47   1.377039 A    
C85   C93   1.552197 S    
C121  H115  1.110618 S    
C65   C71   1.528601 S    
C66   C72   1.524453 S    
C116  C117  1.545430 S    
N21   N22   1.390960 A    
C7    H7    1.077282 S    
C55   C62   1.553490 S    
C92   H84   1.114423 S    
C1    H1    1.079577 S    
C68   H56   1.102969 S    
C3    H3    1.079333 S    
C38   H30   1.079384 S    
H62   C90   1.111779 S    
C80   C94   1.542336 S    
N30   Ni1   1.886851 S    
C97   H169  1.112605 S    
C78   C82   1.562545 S    
C65   H129  1.113500 S    
C77   H65   1.110895 S    
C100  C108  1.554531 S    
C42   C108  1.469627 S    
H50   C63   1.106452 S    
C16   C24   1.384917 A    
C128  H149  1.110349 S    
C79   H71   1.113292 S    
C80   H68   1.110820 S    
C29   H21   1.078439 S    
C67   H55   1.107679 S    
C61   C63   1.551397 S    
C102  C109  1.554810 S    
C77   H69   1.113135 S    
C62   C64   1.550736 S    
C32   H24   1.078058 S    
C52   H36   1.109443 S    
C33   N25   1.325793 A    
C132  C133  1.526070 S    
C105  C111  1.517383 S    
C115  H103  1.108672 S    
C87   C91   1.547181 S    
C66   C82   1.551047 S    
C99   C103  1.538400 S    
C127  H139  1.103778 S    
C136  H159  1.110328 S    
C74   H78   1.115865 S    
N19   N20   1.390960 A    
C76   H80   1.115016 S    
C1    N1    1.321761 A    
C75   C131  1.563285 S    
C3    C19   1.389364 A    
C122  H127  1.108778 S    
C80   H72   1.113155 S    
C126  H140  1.111669 S    
C131  H157  1.110217 S    
C134  C135  1.542012 S    
C114  C115  1.530990 S    
C69   C85   1.559049 S    
C54   H46   1.112504 S    
C56   C62   1.552570 S    
C114  H105  1.103855 S    
C36   C48   1.375414 A    
C22   C110  1.465949 S    
C7    C20   1.384806 A    
H51   C64   1.109469 S    
C123  H125  1.111265 S    
C105  C107  1.548718 S    
C53   C61   1.559909 S    
C65   H53   1.102575 S    
C72   C88   1.554933 S    
C51   H39   1.115297 S    
C49   H37   1.115332 S    
C76   C92   1.534815 S    
C99   H171  1.112749 S    
C75   C81   1.576128 S    
C91   H83   1.114972 S    
C39   C48   1.377462 A    
C32   C44   1.382654 A    
C53   H45   1.112533 S    
C34   N26   1.321663 A    
C119  H120  1.107607 S    
H63   C91   1.111714 S    
C56   H48   1.113377 S    
C100  H172  1.112770 S    
C34   H26   1.079808 S    
C90   H82   1.114943 S    
C130  H144  1.108993 S    
C27   C42   1.389795 A    
C48   C88   1.461374 S    
C134  H164  1.105088 S    
C111  H174  1.114500 S    
N16   Ni3   1.887288 S    
C72   H60   1.111642 S    
C12   N12   1.325150 A    
C97   C101  1.542558 S    
H52   C64   1.112515 S    
N1    Ni1   1.879352 S    
C113  H107  1.113759 S    
C128  C129  1.543479 S    
N25   N30   1.389921 A    
C30   N22   1.325924 A    
C6    H6    1.077143 S    
C58   C119  1.584658 S    
N27   N32   1.389921 A    
C4    H4    1.077888 S    
C11   C22   1.377608 A    
C106  C112  1.518820 S    
C93   H167  1.112061 S    
C124  H122  1.110937 S    
C4    C20   1.388942 A    
C120  H119  1.104245 S    
C121  H116  1.111095 S    
C14   H14   1.076539 S    
C124  H124  1.110583 S    
C79   C83   1.565881 S    
C100  C104  1.537892 S    
N1    N6    1.389921 A    
C6    C17   1.385814 A    
C98   H86   1.109865 S    
N3    N8    1.389921 A    
C103  H95   1.110877 S    
N28   N31   1.389921 A    
C26   N18   1.327315 A    
C15   C24   1.376008 A    
C85   C89   1.550908 S    
N31   Ni4   1.891587 S    
C118  H108  1.108683 S    
C28   C42   1.389160 A    
C8    H8    1.075905 S    
C76   C134  1.558964 S    
C7    N7    1.325463 A    
C73   C125  1.570767 S    
C52   C60   1.569672 S    
C125  H142  1.103160 S    
C8    N8    1.321882 A    
C58   C64   1.575075 S    
C101  H89   1.112660 S    
C2    H2    1.079171 S    
N18   Ni2   1.878252 S    
C10   N10   1.327322 A    
C112  H175  1.114347 S    
C106  C108  1.552337 S    
C109  C111  1.543658 S    
C66   H130  1.113509 S    
C135  H162  1.110554 S    
C77   C81   1.561541 S    
C130  H146  1.110689 S    
C96   H166  1.113022 S    
C80   C84   1.562023 S    
C50   H34   1.103990 S    
N26   N29   1.389921 A    
N15   N16   1.390960 A    
C93   H73   1.109312 S    
C87   C95   1.551493 S    
N9    N10   1.390960 A    
N22   Ni6   1.891936 S    
C21   C109  1.470433 S    
C33   C45   1.379236 A    
C116  H114  1.112710 S    
C74   C90   1.530474 S    
N3    Ni3   1.879352 S    
C58   C60   1.614651 S    
C102  H94   1.110876 S    
C104  C110  1.554829 S    
C37   C46   1.377992 A    
C68   C84   1.554761 S    
C75   H79   1.115887 S    
C115  H101  1.110824 S    
C2    N2    1.324545 A    
C10   C21   1.378464 A    
C45   C85   1.461845 S    
N13   Ni2   1.891937 S    
C126  C127  1.527751 S    
C101  H93   1.111027 S    
C79   H67   1.112023 S    
C54   H42   1.114511 S    
C99   C108  1.554354 S    
N23   Ni7   1.887287 S    
C133  H153  1.110631 S    
C50   C59   1.566244 S    
C89   H81   1.114886 S    
C31   H23   1.080115 S    
C103  C110  1.554657 S    
N19   Ni3   1.879109 S    
C55   H47   1.109930 S    
C70   H58   1.110591 S    
C118  H110  1.110550 S    
C66   H54   1.109207 S    
N23   N24   1.390960 A    
H49   C63   1.113951 S    
N13   N14   1.390960 A    
C95   H165  1.112963 S    
N17   N18   1.390960 A    
C104  H96   1.110982 S    
N10   Ni5   1.879110 S    
C129  H147  1.106866 S    
N20   Ni4   1.878252 S    
C49   C53   1.519463 S    
C18   C81   1.467618 S    
C1    C17   1.387668 A    
C50   H38   1.115648 S    
