data_mof_unit_62000.cif
_audit_creation_date              2012-12-10T19:30:51-0500
_audit_creation_method            fapswitch 2.2
_symmetry_space_group_name_H-M    P1
_symmetry_Int_Tables_number       1
_space_group_crystal_system       triclinic
_cell_length_a                    17.811434
_cell_length_b                    16.53738
_cell_length_c                    23.572873
_cell_angle_alpha                 89.999932
_cell_angle_beta                  93.417455
_cell_angle_gamma                 90.000074
_cell_volume                      6931.1471792

loop_
_atom_site_label
_atom_site_type_symbol
_atom_type_description
_atom_site_fract_x
_atom_site_fract_y
_atom_site_fract_z
_atom_type_partial_charge
C1    C     C_R   0.355194 0.500010 0.501210 0.888047
C2    C     C_R   0.644806 0.500011 0.498790 0.888044
C3    C     C_R   0.528621 0.566756 0.238939 -0.169118
C4    C     C_R   0.471368 0.566753 0.761060 -0.169109
C5    C     C_R   0.529844 0.568864 0.298146 0.271971
C6    C     C_R   0.470146 0.568860 0.701853 0.271962
C7    C     C_R   0.505513 0.500464 0.328329 -0.157658
C8    C     C_R   0.494487 0.500464 0.671670 -0.157654
C9    C     C_R   0.484220 0.430224 0.297771 -0.244438
C10   C     C_R   0.515790 0.430229 0.702230 -0.244441
C11   C     C_R   0.484011 0.428350 0.238621 0.333796
C12   C     C_R   0.515998 0.428356 0.761380 0.333795
C13   C     C_R   0.505169 0.497412 0.208973 0.208324
C14   C     C_R   0.494830 0.497415 0.791026 0.208322
C15   C     C_R   0.847369 0.573022 0.496999 -0.236574
C16   C     C_R   0.152764 0.427060 0.504489 -0.235378
C17   C     C_R   0.152631 0.573022 0.503003 -0.236574
C18   C     C_R   0.847236 0.427060 0.495510 -0.235378
C19   C     C_R   0.768505 0.574174 0.496110 0.381293
C20   C     C_R   0.231633 0.425970 0.505418 0.376676
C21   C     C_R   0.231495 0.574173 0.503892 0.381296
C22   C     C_R   0.768366 0.425970 0.494581 0.376677
C23   C     C_R   0.728179 0.500050 0.496531 -0.124019
C24   C     C_R   0.271821 0.500050 0.503469 -0.124018
C25   C     C_R   0.886075 0.500015 0.497329 0.044581
C26   C     C_R   0.113924 0.500015 0.502671 0.044581
C27   C     C_R   0.502225 0.500198 0.390858 0.865361
C28   C     C_R   0.497775 0.500198 0.609142 0.865362
C29   C     C_1   0.966319 0.499979 0.499170 0.025813
C30   C     C_1   0.033681 0.499979 0.500830 0.025813
C31   C     C_R   0.552415 0.830486 0.534725 0.236469
C32   C     C_R   0.446670 0.169431 0.466124 0.234746
C33   C     C_R   0.447585 0.830486 0.465275 0.236472
C34   C     C_R   0.553330 0.169431 0.533875 0.234750
C35   C     C_R   0.550127 0.744058 0.535712 0.351418
C36   C     C_R   0.448984 0.255865 0.465060 0.320133
C37   C     C_R   0.449872 0.744058 0.464288 0.351423
C38   C     C_R   0.551016 0.255865 0.534939 0.320130
C39   C     C_R   0.500000 0.873547 0.500000 -0.048248
C40   C     C_R   0.500000 0.126357 0.500000 -0.050618
C41   C     C_1   0.500000 0.962903 0.500000 0.227150
C42   C     C_1   0.500000 0.036999 0.500000 0.223620
C43   C     C_R   0.564237 0.503040 0.882107 0.663350
C44   C     C_R   0.435762 0.503032 0.117893 0.663347
C45   C     C_R   0.430308 0.496886 0.878135 0.605615
C46   C     C_R   0.569691 0.496885 0.121865 0.605623
C47   C     C_R   0.429731 0.504687 0.937723 -0.130414
C48   C     C_R   0.570268 0.504687 0.062277 -0.130412
C49   C     C_R   0.499366 0.504882 0.969978 -0.128395
C50   C     C_R   0.500633 0.504881 0.030022 -0.128396
C51   C     C_R   0.567697 0.504380 0.942104 -0.105635
C52   C     C_R   0.432302 0.504375 0.057896 -0.105638
C53   C     C_R   0.361695 0.510374 0.965830 0.318649
C54   C     C_R   0.638303 0.510377 0.034170 0.318646
C55   C     C_R   0.362723 0.506582 0.025621 0.429139
C56   C     C_R   0.637276 0.506586 0.974379 0.429138
Cu1   Cu    Cu3+1 0.500000 0.580420 0.500000 1.114596
Cu2   Cu    Cu3+1 0.500000 0.419580 0.500000 1.075833
H1    H     H_    0.546477 0.619283 0.215817 0.184928
H2    H     H_    0.453504 0.619277 0.784180 0.184929
H3    H     H_    0.467341 0.376419 0.319687 0.230635
H4    H     H_    0.532676 0.376427 0.680315 0.230636
H5    H     H_    0.878712 0.629250 0.497415 0.153900
H6    H     H_    0.121524 0.370832 0.505239 0.153710
H7    H     H_    0.121288 0.629250 0.502588 0.153900
H8    H     H_    0.878475 0.370833 0.494759 0.153710
N1    N     N_R   0.496565 0.498105 0.851978 -0.466830
N2    N     N_R   0.503434 0.498101 0.148022 -0.466830
N3    N     N_R   0.500000 0.701220 0.500000 -0.242646
N4    N     N_R   0.500000 0.298780 0.500000 -0.244764
O1    O     O_R   0.391260 0.567930 0.500000 -0.511955
O2    O     O_R   0.608740 0.432070 0.500000 -0.513932
O3    O     O_R   0.608740 0.567930 0.500000 -0.511958
O4    O     O_R   0.391260 0.432070 0.500000 -0.513934
O5    O     O_R   0.499980 0.567930 0.417880 -0.525194
O6    O     O_R   0.500020 0.432070 0.582120 -0.568311
O7    O     O_R   0.500020 0.567930 0.582120 -0.525192
O8    O     O_R   0.499980 0.432070 0.417880 -0.568312
O9    O     O_2   0.627665 0.506679 0.853633 -0.415540
O10   O     O_2   0.372333 0.506665 0.146367 -0.415541
O11   O     O_2   0.365629 0.485880 0.846294 -0.469809
O12   O     O_2   0.634370 0.485882 0.153706 -0.469808
O13   O     O_3   0.293558 0.522448 0.936172 -0.669132
H9    H     H_    0.300411 0.567931 0.909558 0.362635
O14   O     O_3   0.706441 0.522449 0.063827 -0.669129
H10   H     H_    0.699588 0.567934 0.090442 0.362634
Br1   Br    Br    0.616049 0.689199 0.591055 -0.369790
Br2   Br    Br    0.381748 0.310530 0.410647 -0.416669
Br3   Br    Br    0.383949 0.689198 0.408945 -0.369790
Br4   Br    Br    0.618252 0.310530 0.589352 -0.416679
O15   O     O_3   0.296392 0.507167 0.053468 -0.627732
H11   H     H_    0.252439 0.501694 0.026037 0.386058
O16   O     O_3   0.703606 0.507173 0.946532 -0.627731
H12   H     H_    0.747560 0.501697 0.973963 0.386058
Br5   Br    Br    0.570168 0.665389 0.333859 -0.395513
Br6   Br    Br    0.429809 0.665377 0.666137 -0.395517
Br7   Br    Br    0.455846 0.330239 0.199647 -0.345387
Br8   Br    Br    0.544179 0.330251 0.800355 -0.345387
O17   O     O_3   0.730343 0.646957 0.494202 -0.665735
H13   H     H_    0.766884 0.692202 0.494144 0.339545
O18   O     O_3   0.269947 0.353323 0.508946 -0.673429
H14   H     H_    0.233487 0.308082 0.509858 0.338541
O19   O     O_3   0.269658 0.646956 0.505801 -0.665732
H15   H     H_    0.233117 0.692202 0.505860 0.339546
O20   O     O_3   0.730052 0.353324 0.491051 -0.673428
H16   H     H_    0.766512 0.308083 0.490139 0.338542
O21   O     O_3   0.603852 0.874958 0.568056 -0.656190
H17   H     H_    0.648477 0.841437 0.578348 0.372217
O22   O     O_3   0.394309 0.124980 0.433628 -0.657099
H18   H     H_    0.349347 0.158440 0.424282 0.374864
O23   O     O_3   0.396148 0.874958 0.431943 -0.656191
H19   H     H_    0.351524 0.841437 0.421650 0.372219
O24   O     O_3   0.605691 0.124979 0.566371 -0.657104
H20   H     H_    0.650650 0.158440 0.575723 0.374868

loop_
_geom_bond_atom_site_label_1
_geom_bond_atom_site_label_2
_ccdc_geom_bond_type
C38   N4    A    
O16   H12   S    
C37   N3    A    
C41   C42   T    
C19   C23   A    
O23   H19   S    
C27   O8    A    
Cu2   O2    S    
Cu2   O6    S    
C39   C41   S    
O14   H10   S    
C36   Br2   S    
C34   O24   S    
C15   C19   A    
C33   C39   A    
C34   C40   A    
C1    O4    A    
C32   C36   A    
C48   C50   A    
C27   O5    A    
C15   C25   A    
C43   O9    S    
C7    C27   S    
C51   C56   A    
Cu1   O3    S    
C20   C24   A    
C55   O15   S    
C46   O12   S    
C35   Br1   S    
O13   H9    S    
C49   C51   A    
C45   N1    A    
C50   C52   A    
C14   N1    S    
C33   O23   S    
C12   Br8   S    
C3    C13   A    
C52   C55   A    
C47   C53   A    
C44   C52   A    
C45   C47   A    
C18   C22   A    
C25   C29   S    
C10   H4    S    
C18   C25   A    
C2    O2    A    
C5    Br5   S    
C36   N4    A    
C46   C48   A    
C53   C55   A    
C16   C26   A    
C56   O16   S    
C54   C56   A    
C32   O22   S    
O18   H14   S    
Cu1   O7    S    
C44   O10   S    
C4    C6    A    
O15   H11   S    
C5    C7    A    
C19   O17   S    
Cu2   N4    S    
C6    C8    A    
C20   O18   S    
C33   C37   A    
C48   C54   A    
C46   N2    A    
C29   C30   T    
O17   H13   S    
C16   C20   A    
C4    H2    S    
C1    O1    A    
Cu1   O1    S    
C28   O7    A    
C9    C11   A    
C2    O3    A    
C10   C12   A    
C43   N1    A    
C12   C14   A    
C26   C30   S    
C6    Br6   S    
C8    C28   S    
C9    H3    S    
C44   N2    A    
C18   H8    S    
C17   C26   A    
O21   H17   S    
C28   O6    A    
O19   H15   S    
Cu2   O4    S    
O24   H20   S    
C7    C9    A    
C34   C38   A    
C31   O21   S    
C45   O11   S    
C3    C5    A    
C54   O14   S    
C47   C49   A    
C22   O20   S    
O20   H16   S    
C38   Br4   S    
C17   H7    S    
C37   Br3   S    
C53   O13   S    
Cu1   O5    S    
O22   H18   S    
C11   C13   A    
C43   C51   A    
Cu1   Cu2   S    
C40   C42   S    
C31   C39   A    
C31   C35   A    
C32   C40   A    
C4    C14   A    
C17   C21   A    
Cu2   O8    S    
C21   O19   S    
C35   N3    A    
C1    C24   S    
C8    C10   A    
C49   C50   A    
C21   C24   A    
C2    C23   S    
C15   H5    S    
C22   C23   A    
C16   H6    S    
Cu1   N3    S    
C11   Br7   S    
C13   N2    S    
C3    H1    S    
