data_mof_unit_52729.cif
_audit_creation_date              2012-12-11T15:11:48-0500
_audit_creation_method            fapswitch 2.2
_symmetry_space_group_name_H-M    P1
_symmetry_Int_Tables_number       1
_space_group_crystal_system       triclinic
_cell_length_a                    20.014327
_cell_length_b                    7.232371
_cell_length_c                    14.177733
_cell_angle_alpha                 90.0007
_cell_angle_beta                  103.087038
_cell_angle_gamma                 90.000861
_cell_volume                      1998.93914651

loop_
_atom_site_label
_atom_site_type_symbol
_atom_type_description
_atom_site_fract_x
_atom_site_fract_y
_atom_site_fract_z
_atom_type_partial_charge
O1    O     O_R   0.449830 0.506740 0.599960 -0.531053
O2    O     O_R   0.550170 0.006740 0.400040 -0.531056
O3    O     O_R   0.588980 0.179860 0.596720 -0.515916
O4    O     O_R   0.411020 0.679860 0.403280 -0.515930
C1    C     C_R   0.616506 0.344379 0.617612 0.833669
C2    C     C_R   0.383494 0.844376 0.382388 0.833726
O5    O     O_R   0.452740 0.177340 0.612040 -0.556059
O6    O     O_R   0.547260 0.677340 0.387960 -0.556072
O7    O     O_R   0.412960 0.002070 0.415460 -0.544467
O8    O     O_R   0.587040 0.502070 0.584540 -0.544505
C3    C     C_R   0.434344 0.346147 0.633659 0.771918
C4    C     C_R   0.565658 0.846146 0.366343 0.771902
O9    O     O_3   0.487110 0.337570 0.435490 -0.394905
O10   O     O_3   0.512890 0.837570 0.564510 -0.394911
V1    V     V_3+5 0.502390 0.064650 0.511970 1.463093
V2    V     V_3+5 0.497610 0.564650 0.488030 1.463054
C5    C     C_R   0.615247 0.938565 0.132887 0.608844
C6    C     C_R   0.384755 0.438524 0.867120 0.608843
C7    C     C_R   0.607873 0.860070 0.295079 -0.145852
C8    C     C_R   0.392127 0.360072 0.704921 -0.145849
C9    C     C_R   0.937932 0.877584 0.313708 0.609862
C10   C     C_R   0.062068 0.377607 0.686293 0.609869
C11   C     C_R   0.903584 0.888290 0.388619 -0.158955
C12   C     C_R   0.096417 0.388318 0.611383 -0.158967
C13   C     C_R   0.832170 0.880177 0.369272 -0.171164
C14   C     C_R   0.167831 0.380192 0.630729 -0.171160
C15   C     C_R   0.792970 0.854041 0.273919 0.047083
C16   C     C_R   0.207030 0.354036 0.726080 0.047084
C17   C     C_R   0.828280 0.846712 0.197256 -0.208848
C18   C     C_R   0.171719 0.346693 0.802742 -0.208854
C19   C     C_R   0.719450 0.852472 0.251084 -0.024357
C20   C     C_R   0.280550 0.352460 0.748917 -0.024350
C21   C     C_R   0.684367 0.882397 0.153857 -0.206434
C22   C     C_R   0.315633 0.382365 0.846146 -0.206442
C23   C     C_R   0.718881 0.849321 0.080072 0.144314
C24   C     C_R   0.281118 0.349280 0.919928 0.144314
C25   C     C_R   0.789727 0.830340 0.101741 0.631212
C26   C     C_R   0.210272 0.330296 0.898255 0.631206
C27   C     C_R   0.678904 0.815221 0.319228 0.114881
C28   C     C_R   0.321096 0.315226 0.680770 0.114867
C29   C     C_R   0.578686 0.938769 0.204980 0.077146
C30   C     C_R   0.421315 0.438754 0.795026 0.077142
C31   C     C_R   0.901048 0.858858 0.217715 -0.193139
C32   C     C_R   0.098952 0.358857 0.782284 -0.193135
H1    H     H_    0.808638 0.905586 0.429410 0.220442
H2    H     H_    0.191364 0.405609 0.570594 0.220446
H3    H     H_    0.932449 0.908688 0.462263 0.189043
H4    H     H_    0.067553 0.408734 0.537741 0.189045
C33   C     C_3   0.236062 0.724407 0.146929 0.237808
C34   C     C_3   0.763938 0.224388 0.853062 0.237830
C35   C     C_3   0.312913 0.736359 0.214619 0.303408
C36   C     C_3   0.687086 0.236361 0.785377 0.303389
C37   C     C_3   0.181525 0.800397 0.293178 0.335484
C38   C     C_3   0.818475 0.300409 0.706815 0.335512
C39   C     C_3   0.220803 0.055795 0.202115 0.973771
C40   C     C_3   0.779199 0.555791 0.797894 0.973751
C41   C     C_3   0.186936 0.858716 0.188895 -0.312572
C42   C     C_3   0.813065 0.358710 0.811102 -0.312593
C43   C     C_3   0.312108 0.851698 0.311245 -0.168387
C44   C     C_3   0.687892 0.351705 0.688753 -0.168449
C45   C     C_3   0.254243 0.768093 0.360712 0.585335
C46   C     C_3   0.745757 0.268101 0.639283 0.585312
C47   C     C_3   0.291404 0.057541 0.281736 0.140541
C48   C     C_3   0.708599 0.557550 0.718268 0.140599
H5    H     H_    0.155511 0.914267 0.323696 0.149300
H6    H     H_    0.844487 0.414295 0.676300 0.149322
O11   O     O_R   0.912980 0.203550 0.915410 -0.522418
O12   O     O_R   0.087020 0.703550 0.084590 -0.522420
O13   O     O_R   0.047270 0.535570 0.887960 -0.562535
O14   O     O_R   0.952730 0.035570 0.112040 -0.562532
C49   C     C_R   0.060962 0.367610 0.860138 0.862718
C50   C     C_R   0.939039 0.867610 0.139863 0.862734
O15   O     O_R   0.911030 0.532970 0.903270 -0.489466
O16   O     O_R   0.088970 0.032970 0.096730 -0.489470
O17   O     O_R   0.949820 0.708150 0.099970 -0.521810
O18   O     O_R   0.050180 0.208150 0.900030 -0.521802
C51   C     C_R   0.884925 0.365017 0.880283 0.851578
C52   C     C_R   0.115075 0.865020 0.119715 0.851566
O19   O     O_3   0.012900 0.375230 0.064480 -0.375715
O20   O     O_3   0.987100 0.875230 0.935520 -0.375707
V3    V     V_3+5 0.997610 0.648190 0.988040 1.745429
V4    V     V_3+5 0.002390 0.148190 0.011960 1.745438
N1    N     N_3   0.511027 0.015863 0.185612 -0.656124
H7    H     H_    0.482600 0.956288 0.121853 0.285224
H8    H     H_    0.515001 0.157251 0.172493 0.271654
N2    N     N_3   0.488977 0.515838 0.814402 -0.656145
H9    H     H_    0.517402 0.456208 0.878141 0.285220
H10   H     H_    0.485012 0.657205 0.827565 0.271669
N3    N     N_3   0.236007 0.780609 0.046521 -0.563817
H11   H     H_    0.187800 0.758791 0.000841 0.240314
H12   H     H_    0.269250 0.695834 0.018940 0.247409
N4    N     N_3   0.764001 0.280563 0.953479 -0.563808
H13   H     H_    0.812209 0.258714 0.999160 0.240313
H14   H     H_    0.730752 0.195791 0.981053 0.247420
N5    N     N_3   0.360372 0.817543 0.159940 -0.633803
H15   H     H_    0.407066 0.847873 0.207040 0.266357
H16   H     H_    0.341557 0.931295 0.117071 0.309908
N6    N     N_3   0.639633 0.317560 0.840065 -0.633782
H17   H     H_    0.592941 0.347908 0.792965 0.266363
H18   H     H_    0.658458 0.431307 0.882938 0.309928
N7    N     N_3   0.342338 0.554954 0.244533 -0.638872
H19   H     H_    0.307992 0.461740 0.260741 0.275292
H20   H     H_    0.369565 0.500781 0.196429 0.247351
N8    N     N_3   0.657650 0.054960 0.755463 -0.638860
H21   H     H_    0.691983 0.961742 0.739216 0.275310
H22   H     H_    0.630440 0.000776 0.803590 0.247339
F1    F     F_    0.139170 0.648590 0.292998 -0.589372
F2    F     F_    0.860832 0.148610 0.706986 -0.589381
F3    F     F_    0.263331 0.580920 0.376864 -0.676067
F4    F     F_    0.736665 0.080924 0.623123 -0.676088
F5    F     F_    0.175262 0.180890 0.227080 -0.674244
F6    F     F_    0.824743 0.680901 0.772943 -0.674242
F7    F     F_    0.229853 0.110287 0.112925 -0.624931
F8    F     F_    0.770145 0.610255 0.887090 -0.624938
N9    N     N_3   0.347497 0.140818 0.243628 -0.683136
H23   H     H_    0.330365 0.221932 0.183309 0.281637
H24   H     H_    0.382767 0.218085 0.293619 0.278184
N10   N     N_3   0.652508 0.640828 0.756380 -0.683149
H25   H     H_    0.669645 0.721958 0.816693 0.281637
H26   H     H_    0.617229 0.718074 0.706390 0.278164
N11   N     N_3   0.284819 0.158796 0.370140 -0.640511
H27   H     H_    0.312110 0.282034 0.382577 0.304264
H28   H     H_    0.234938 0.178429 0.378851 0.320974
N12   N     N_3   0.715188 0.658815 0.629867 -0.640513
H29   H     H_    0.687840 0.781965 0.617364 0.304191
H30   H     H_    0.765071 0.678542 0.621169 0.321039
N13   N     N_3   0.682246 0.817596 0.983008 -0.598443
H31   H     H_    0.660295 0.941662 0.954919 0.273162
H32   H     H_    0.643701 0.719862 0.982891 0.266275
N14   N     N_3   0.317750 0.317572 0.016993 -0.598416
H33   H     H_    0.339694 0.441650 0.045082 0.273161
H34   H     H_    0.356301 0.219853 0.017116 0.266287
N15   N     N_3   0.256659 0.850973 0.456002 -0.684110
H35   H     H_    0.301815 0.809471 0.504157 0.232433
H36   H     H_    0.216585 0.796237 0.483609 0.270894
N16   N     N_3   0.743346 0.350993 0.543997 -0.684042
H37   H     H_    0.698168 0.309583 0.495854 0.232371
H38   H     H_    0.783394 0.296161 0.516361 0.270923
F9    F     F_    0.583186 0.003372 0.044330 -0.699465
F10   F     F_    0.416819 0.503299 0.955684 -0.699469
N17   N     N_3   0.708960 0.718338 0.407259 -0.642961
H39   H     H_    0.672794 0.684541 0.446691 0.254277
H40   H     H_    0.727252 0.592089 0.387476 0.249131
N18   N     N_3   0.291038 0.218364 0.592734 -0.642960
H41   H     H_    0.327204 0.184591 0.553295 0.254308
H42   H     H_    0.272750 0.092103 0.612509 0.249132
F11   F     F_    0.007407 0.891245 0.334569 -0.667127
F12   F     F_    0.992595 0.391285 0.665433 -0.667121
F13   F     F_    0.820660 0.801012 0.027874 -0.632734
F14   F     F_    0.179338 0.300945 0.972119 -0.632728
N19   N     N_3   0.207462 0.536622 0.140690 -0.534197
H43   H     H_    0.239821 0.447501 0.114998 0.313850
H44   H     H_    0.202299 0.488499 0.207439 0.358445
N20   N     N_3   0.792533 0.036593 0.859277 -0.534100
H45   H     H_    0.760172 0.947472 0.884971 0.313850
H46   H     H_    0.797680 0.988485 0.792514 0.358426

loop_
_geom_bond_atom_site_label_1
_geom_bond_atom_site_label_2
_ccdc_geom_bond_type
C31   C50   S    
C15   C17   A    
N5    H15   S    
O1    C3    A    
C45   F3    S    
C2    O7    A    
N8    H22   S    
C45   N15   S    
O5    C3    A    
N7    H19   S    
O12   V3    S    
C9    F11   S    
C23   C25   A    
C12   C14   A    
C6    C30   A    
C49   O18   A    
C8    C28   A    
N2    H10   S    
N9    H23   S    
C29   N1    S    
C48   N10   S    
C18   C26   A    
C32   C49   S    
C44   C46   S    
C46   N16   S    
O13   C49   A    
O15   C51   A    
N10   H25   S    
C36   C44   S    
C42   C51   S    
C9    C31   A    
C37   C45   S    
C10   C32   A    
C27   N17   S    
C40   C42   S    
C33   C35   S    
C39   C47   S    
C34   C36   S    
N19   H43   S    
C40   C48   S    
C30   N2    S    
N3    H12   S    
C37   H5    S    
N20   H46   S    
C47   N9    S    
O5    V1    S    
O2    C4    A    
N7    H20   S    
C17   C31   A    
N19   H44   S    
C18   C32   A    
C40   F6    S    
C5    C21   A    
O16   V4    S    
C50   O17   A    
C41   C52   S    
O15   V3    S    
N8    H21   S    
C47   N11   S    
C44   C48   S    
C5    C29   A    
O12   C52   A    
C3    C8    S    
C43   C45   S    
C11   H3    S    
C19   C21   A    
C33   N19   S    
C15   C19   A    
C34   C42   S    
C16   C20   A    
N16   H38   S    
O18   V4    S    
O19   V3    S    
C37   C41   S    
N2    H9    S    
O17   V3    S    
C38   C46   S    
N9    H24   S    
C48   N12   S    
C20   C22   A    
O4    V2    S    
N14   H34   S    
N13   H32   S    
C39   C41   S    
C24   N14   S    
O11   C51   A    
C37   F1    S    
C12   H4    S    
N1    H7    S    
C46   F4    S    
O6    C4    A    
N4    H14   S    
N20   H45   S    
C5    F9    S    
O1    V2    S    
C6    F10   S    
O2    V1    S    
C6    C22   A    
N11   H27   S    
C7    C27   A    
N18   H42   S    
N1    H8    S    
C10   F12   S    
N6    H18   S    
C9    C11   A    
N15   H35   S    
C10   C12   A    
O4    C2    A    
C35   N7    S    
N13   H31   S    
C13   H1    S    
C23   N13   S    
C20   C28   A    
O3    V1    S    
N12   H30   S    
C38   C42   S    
C34   N4    S    
C36   N8    S    
C33   N3    S    
C1    C44   S    
C39   F5    S    
C43   C47   S    
C2    C43   S    
C25   F13   S    
O20   V3    S    
O3    C1    A    
O19   V4    S    
C8    C30   A    
N5    H16   S    
C38   H6    S    
C13   C15   A    
C39   F7    S    
C14   C16   A    
C28   N18   S    
C38   F2    S    
N18   H41   S    
N17   H40   S    
N14   H33   S    
O7    V1    S    
C16   C18   A    
O8    V2    S    
N17   H39   S    
C24   C26   A    
C33   C41   S    
C34   N20   S    
C4    C7    S    
C36   N6    S    
N4    H13   S    
C21   C23   A    
O20   V4    S    
C19   C27   A    
C22   C24   A    
C11   C13   A    
O14   V4    S    
N10   H26   S    
N11   H28   S    
O13   V3    S    
C14   H2    S    
C1    O8    A    
C35   C43   S    
O11   V4    S    
O6    V2    S    
N6    H17   S    
O16   C52   A    
O9    V2    S    
C17   C25   A    
N15   H36   S    
C40   F8    S    
O10   V1    S    
N16   H37   S    
O14   C50   A    
N3    H11   S    
C26   F14   S    
C7    C29   A    
C35   N5    S    
N12   H29   S    
