data_mof_unit_44576.cif
_audit_creation_date              2012-10-26T18:27:12-0400
_audit_creation_method            fapswitch 2.2
_symmetry_space_group_name_H-M    P1
_symmetry_Int_Tables_number       1
_space_group_crystal_system       triclinic
_cell_length_a                    15.030809
_cell_length_b                    10.913138
_cell_length_c                    9.749068
_cell_angle_alpha                 89.848515
_cell_angle_beta                  90.922876
_cell_angle_gamma                 90.471803
_cell_volume                      1598.90503039

loop_
_atom_site_label
_atom_site_type_symbol
_atom_type_description
_atom_site_fract_x
_atom_site_fract_y
_atom_site_fract_z
_atom_type_partial_charge
Br1   Br    Br    0.887756 0.123978 0.546259 -0.573765
Br2   Br    Br    0.112542 0.878328 0.486302 -0.577596
C1    C     C_R   0.499585 0.265454 0.500224 0.547240
C2    C     C_R   0.185480 0.381553 0.496573 -0.017667
C3    C     C_R   0.232791 0.493956 0.497537 0.002752
C4    C     C_R   0.329236 0.498644 0.499083 0.540444
C5    C     C_R   0.188811 0.605509 0.499112 -0.115290
C6    C     C_2   0.496267 0.933425 0.388027 -0.171375
C7    C     C_2   0.506227 0.866617 0.502421 -0.116553
C8    C     C_2   0.504495 0.067060 0.388466 -0.169471
C9    C     C_2   0.494646 0.133246 0.502597 -0.117115
C10   C     C_2   0.462046 0.579909 0.924575 0.012257
C11   C     C_2   0.479504 0.591782 0.076579 -0.034809
C12   C     C_R   0.908385 0.616082 0.494159 -0.007716
C13   C     C_R   0.500712 0.734512 0.500050 0.546982
C14   C     C_R   0.670733 0.501454 0.500939 0.538539
C15   C     C_R   0.814065 0.617981 0.486044 -0.018896
C16   C     C_R   0.767108 0.506559 0.503452 -0.002956
C17   C     C_R   0.811395 0.396141 0.521182 -0.130985
C18   C     C_R   0.903968 0.391703 0.519129 0.027311
C19   C     C_R   0.953058 0.502276 0.506910 0.010089
C20   C     C_3   0.763924 0.735614 0.451920 -0.251997
C21   C     C_3   0.774064 0.768375 0.299498 -0.291953
C22   C     C_3   0.727324 0.887809 0.263313 -0.435656
C23   C     C_R   0.948580 0.279085 0.528383 0.163036
C24   C     C_3   0.580247 0.435380 0.893170 -0.059027
C25   C     C_3   0.658291 0.524555 0.924638 -0.279547
C26   C     C_3   0.747358 0.458276 0.927327 -0.451353
C27   C     C_3   0.234626 0.261423 0.474293 -0.254297
C28   C     C_3   0.215628 0.212296 0.328926 -0.286944
C29   C     C_3   0.275702 0.105160 0.294668 -0.422224
C30   C     C_R   0.040814 0.276281 0.521879 -0.093292
C31   C     C_R   0.091520 0.384492 0.507955 -0.005949
C32   C     C_R   0.047014 0.498860 0.505230 0.009971
C33   C     C_R   0.096212 0.609784 0.498897 0.029754
C34   C     C_R   0.051678 0.722557 0.492872 0.165853
C35   C     C_R   0.959322 0.724797 0.489028 -0.093069
Cu1   Cu    Cu3+1 0.500020 0.500020 0.638630 0.914106
Cu2   Cu    Cu3+1 0.499980 0.499980 0.361370 0.919896
H1    H     H_    0.521689 0.907739 0.601002 0.105722
H2    H     H_    0.928728 0.813742 0.482326 0.181185
H3    H     H_    0.484679 0.889290 0.289520 0.137841
H4    H     H_    0.654712 0.876948 0.276747 0.158549
H5    H     H_    0.752738 0.963634 0.329253 0.202210
H6    H     H_    0.739627 0.911574 0.154410 0.149195
H7    H     H_    0.845379 0.778085 0.273336 0.179672
H8    H     H_    0.744973 0.693573 0.235325 0.174231
H9    H     H_    0.691984 0.727060 0.473317 0.156633
H10   H     H_    0.787093 0.811641 0.519236 0.160753
H11   H     H_    0.747078 0.384680 0.006260 0.161961
H12   H     H_    0.515689 0.111795 0.290494 0.144745
H13   H     H_    0.760683 0.417594 0.825461 0.172515
H14   H     H_    0.801657 0.524399 0.952804 0.153744
H15   H     H_    0.660523 0.598747 0.846555 0.188682
H16   H     H_    0.649893 0.568287 0.026068 0.162549
H17   H     H_    0.570109 0.369664 0.977277 0.086260
H18   H     H_    0.600471 0.372978 0.810423 0.190313
H19   H     H_    0.344868 0.138781 0.282477 0.153686
H20   H     H_    0.273850 0.034427 0.376677 0.204154
H21   H     H_    0.253284 0.062965 0.196407 0.161464
H22   H     H_    0.145317 0.181458 0.318613 0.193796
H23   H     H_    0.479511 0.091600 0.600502 0.105999
H24   H     H_    0.226847 0.286416 0.252447 0.175414
H25   H     H_    0.307528 0.273105 0.487323 0.158766
H26   H     H_    0.216318 0.192638 0.553199 0.156788
H27   H     H_    0.418733 0.647040 0.876546 0.129952
H28   H     H_    0.474537 0.681715 0.122487 0.134221
H29   H     H_    0.476728 0.415753 0.115656 0.222595
H30   H     H_    0.772082 0.313301 0.532935 0.159255
H31   H     H_    0.071637 0.187503 0.529036 0.180519
H32   H     H_    0.228286 0.688952 0.498287 0.160656
N1    N     N_2   0.499020 0.498660 0.846910 -0.245390
N2    N     N_2   0.499000 0.498630 0.153040 -0.356522
O1    O     O_R   0.500020 0.321960 0.617040 -0.514340
O2    O     O_R   0.499980 0.321920 0.382900 -0.502860
O3    O     O_R   0.370270 0.499990 0.617090 -0.488203
O4    O     O_R   0.370240 0.499950 0.382940 -0.490021
O5    O     O_R   0.500020 0.678080 0.617100 -0.505667
O6    O     O_R   0.499980 0.678040 0.382960 -0.502242
O7    O     O_R   0.629760 0.500050 0.617060 -0.525269
O8    O     O_R   0.629730 0.500010 0.382910 -0.482242

loop_
_geom_bond_atom_site_label_1
_geom_bond_atom_site_label_2
_ccdc_geom_bond_type
C20   H9    S    
C24   N1    S    
C17   C18   A    
C9    H23   S    
C25   H15   S    
Cu1   O3    S    
C24   C25   S    
C22   H6    S    
Cu2   O4    S    
C29   H19   S    
C34   C35   A    
C6    H3    S    
C16   C17   A    
C5    H32   S    
C3    C4    S    
C25   H16   S    
C13   O5    A    
C18   C23   A    
C32   C33   A    
C29   H20   S    
C1    O1    A    
C26   H11   S    
C13   O6    A    
C33   C34   A    
C6    C7    D    
C21   C22   S    
Cu2   O2    S    
C1    O2    A    
C2    C27   S    
C23   C30   A    
C10   N1    D    
C27   H25   S    
C21   H7    S    
C28   H24   S    
Br1   C23   S    
C12   C15   A    
C8    H12   S    
C31   C32   A    
Cu1   N1    S    
C21   H8    S    
Cu2   O8    S    
C3    C5    A    
C4    O4    A    
C30   H31   S    
C19   C32   A    
Cu1   O5    S    
H29   N2    S    
C10   H27   S    
C7    H1    S    
C14   O7    A    
Cu2   O6    S    
C29   H21   S    
C27   C28   S    
C28   C29   S    
C15   C16   A    
C18   C19   A    
C20   H10   S    
C27   H26   S    
C14   C16   S    
C11   N2    D    
C22   H5    S    
C17   H30   S    
C12   C19   A    
C11   H28   S    
Br2   C34   S    
C2    C31   A    
C5    C33   A    
C2    C3    A    
C24   H17   S    
C26   H14   S    
C4    O3    A    
C15   C20   S    
C30   C31   A    
C7    C13   S    
C12   C35   A    
C26   H13   S    
Cu1   Cu2   S    
Cu1   O7    S    
C14   O8    A    
Cu1   O1    S    
Cu2   N2    S    
C35   H2    S    
C24   H18   S    
C1    C9    S    
C8    C9    D    
C10   C11   S    
C6    C8    S    
C28   H22   S    
C25   C26   S    
C22   H4    S    
C20   C21   S    
