data_mof_unit_44158.cif
_audit_creation_date              2012-12-11T16:08:46-0500
_audit_creation_method            fapswitch 2.2
_symmetry_space_group_name_H-M    P1
_symmetry_Int_Tables_number       1
_space_group_crystal_system       triclinic
_cell_length_a                    12.977563
_cell_length_b                    13.278951
_cell_length_c                    27.751275
_cell_angle_alpha                 94.925377
_cell_angle_beta                  89.890293
_cell_angle_gamma                 119.365743
_cell_volume                      4147.99732565

loop_
_atom_site_label
_atom_site_type_symbol
_atom_type_description
_atom_site_fract_x
_atom_site_fract_y
_atom_site_fract_z
_atom_type_partial_charge
C1    C     C_R   0.627239 0.897071 0.426976 0.527625
C2    C     C_R   0.239347 0.783043 0.293641 -0.004356
C3    C     C_R   0.214729 0.777420 0.193361 -0.028378
C4    C     C_R   0.601195 0.221960 0.440528 0.545259
C5    C     C_R   0.254832 0.708681 0.212712 -0.058531
C6    C     C_R   0.269330 0.711743 0.262432 0.245382
C7    C     C_R   0.186362 0.761724 0.144087 -0.125478
C8    C     C_R   0.131884 0.818847 0.125364 -0.002146
C9    C     C_R   0.188595 0.932962 0.355885 0.227385
C10   C     C_R   0.180391 0.933046 0.305320 0.006681
C11   C     C_R   0.206643 0.858906 0.274337 -0.031977
C12   C     C_R   0.568115 0.305800 0.225889 0.024175
C13   C     C_R   0.146292 0.006203 0.285147 -0.013450
C14   C     C_R   0.134569 0.005048 0.235146 0.251223
C15   C     C_R   0.153604 0.925701 0.204067 0.013649
C16   C     C_R   0.270792 0.876673 0.424980 0.530439
C17   C     C_R   0.194179 0.856038 0.223906 0.013952
C18   C     C_R   0.122015 0.905318 0.154507 -0.127406
C19   C     C_R   0.223759 0.858496 0.374895 -0.011801
C20   C     C_R   0.682530 0.967862 0.348820 -0.150639
C21   C     C_R   0.681801 0.952792 0.299070 -0.004220
C22   C     C_R   0.688366 0.925114 0.198076 -0.002882
C23   C     C_R   0.561858 0.293318 0.275822 -0.067761
C24   C     C_R   0.719253 0.034405 0.222321 -0.112564
C25   C     C_R   0.716994 0.047957 0.272334 -0.103405
C26   C     C_R   0.701586 0.910814 0.147826 0.001317
C27   C     C_R   0.673728 0.799430 0.126596 0.014408
C28   C     C_R   0.627330 0.898229 0.564697 0.546482
C29   C     C_R   0.604430 0.760107 0.354016 0.210256
C30   C     C_R   0.604201 0.744442 0.303266 0.052297
C31   C     C_R   0.643307 0.841363 0.275891 0.023074
C32   C     C_R   0.564853 0.633631 0.279160 -0.055109
C33   C     C_R   0.566142 0.619415 0.229019 -0.117080
C34   C     C_R   0.662847 0.318825 0.303816 0.002603
C35   C     C_R   0.607874 0.715676 0.202238 0.001086
C36   C     C_R   0.645683 0.827313 0.225309 0.057078
C37   C     C_R   0.619444 0.702384 0.153015 -0.155695
C38   C     C_R   0.643304 0.873180 0.376434 0.001322
C39   C     C_R   0.740820 0.300822 0.651477 -0.135661
C40   C     C_R   0.602765 0.226993 0.578489 0.544653
C41   C     C_R   0.754671 0.323775 0.701908 0.012692
C42   C     C_R   0.771415 0.353156 0.803686 0.007258
C43   C     C_R   0.862983 0.350719 0.777565 -0.133630
C44   C     C_R   0.853940 0.334569 0.726965 -0.133007
C45   C     C_R   0.678072 0.343432 0.204076 -0.003803
C46   C     C_R   0.780680 0.373087 0.854234 -0.137402
C47   C     C_R   0.689173 0.378359 0.879443 -0.007075
C48   C     C_R   0.556070 0.305961 0.653327 -0.131924
C49   C     C_R   0.565464 0.322740 0.703406 0.038387
C50   C     C_R   0.664076 0.329821 0.727976 0.094286
C51   C     C_R   0.473884 0.325247 0.729250 -0.079781
C52   C     C_R   0.271673 0.879399 0.563413 0.544932
C53   C     C_R   0.478558 0.332135 0.779480 -0.088241
C54   C     C_R   0.576532 0.340126 0.804267 0.020194
C55   C     C_R   0.670635 0.340677 0.778658 0.082585
C56   C     C_1   0.691525 0.367001 0.153902 -0.077894
C57   C     C_R   0.584392 0.353833 0.854380 -0.135705
C58   C     C_R   0.638473 0.286163 0.627452 -0.007244
C59   C     C_1   0.223544 0.863795 0.610416 -0.014484
C60   C     C_R   0.076988 0.758321 0.718845 -0.128753
C61   C     C_R   0.060525 0.746771 0.768192 -0.109872
C62   C     C_R   0.244109 0.926675 0.787342 -0.040076
C63   C     C_R   0.261952 0.939862 0.737948 0.261408
C64   C     C_1   0.633632 0.269562 0.394840 -0.002304
C65   C     C_R   0.177380 0.853693 0.703249 0.024828
C66   C     C_R   0.144455 0.830270 0.802478 -0.018297
C67   C     C_1   0.651394 0.297079 0.354059 -0.051988
C68   C     C_1   0.126121 0.816259 0.853136 -0.057101
C69   C     C_1   0.197033 0.857110 0.652116 -0.067235
C70   C     C_1   0.101644 0.798078 0.894547 -0.006489
C71   C     C_1   0.646557 0.860441 0.609055 -0.005834
C72   C     C_R   0.657033 0.882800 0.735543 -0.118873
C73   C     C_R   0.668821 0.865091 0.783529 -0.133912
C74   C     C_R   0.709372 0.708740 0.756359 0.261541
C75   C     C_R   0.697259 0.727815 0.708197 -0.041726
C76   C     C_R   0.771327 0.356570 0.282042 -0.122004
C77   C     C_R   0.671555 0.814728 0.697774 -0.014058
C78   C     C_1   0.702458 0.394692 0.113137 -0.012238
C79   C     C_R   0.695185 0.778991 0.794510 0.029649
C80   C     C_1   0.710682 0.768099 0.844928 -0.067386
C81   C     C_1   0.659334 0.835883 0.648623 -0.054004
C82   C     C_1   0.726054 0.761524 0.887128 -0.012991
C83   C     C_R   0.065406 0.773569 0.078898 0.548701
C84   C     C_R   0.716834 0.441477 0.067328 0.552984
C85   C     C_R   0.718790 0.782336 0.080326 0.603676
C86   C     C_R   0.056758 0.766380 0.941298 0.538749
C87   C     C_R   0.710453 0.434258 0.928950 0.539635
C88   C     C_R   0.778848 0.368805 0.232421 -0.117893
C89   C     C_R   0.239521 0.778895 0.343462 -0.157635
C90   C     C_R   0.748909 0.754492 0.936937 0.563636
C91   C     C_2   0.747008 0.010711 0.117849 0.241786
C92   C     C_2   0.460043 0.280299 0.197232 0.200545
Cr1   Cr    Cr6+3 0.416430 0.829200 0.492370 1.046337
Cr2   Cr    Cr6+3 0.674630 0.087020 0.504170 1.030796
Cr3   Cr    Cr6+3 0.408920 0.083740 0.503490 1.051068
Cr4   Cr    Cr6+3 0.914010 0.832750 0.013970 1.048365
Cr5   Cr    Cr6+3 0.922310 0.578600 0.003000 1.030268
Cr6   Cr    Cr6+3 0.656280 0.574630 0.003870 1.031430
H1    H     H_    0.849732 0.375306 0.303287 0.129387
H2    H     H_    0.861480 0.391314 0.873511 0.133325
H3    H     H_    0.805452 0.287123 0.631473 0.129298
H4    H     H_    0.941088 0.360565 0.796254 0.116398
H5    H     H_    0.924326 0.330329 0.707459 0.115361
H6    H     H_    0.512557 0.356136 0.873552 0.138875
H7    H     H_    0.406469 0.332960 0.798957 0.107006
H8    H     H_    0.397353 0.318944 0.710589 0.107082
H9    H     H_    0.477833 0.296960 0.635003 0.135238
H10   H     H_    0.012275 0.691640 0.692800 0.134538
H11   H     H_    0.982794 0.671960 0.779628 0.154247
H12   H     H_    0.128142 0.065264 0.308192 0.205862
H13   H     H_    0.308660 0.991723 0.813924 0.138683
H14   H     H_    0.637000 0.950204 0.727874 0.141358
H15   H     H_    0.658153 0.919496 0.812244 0.133327
H16   H     H_    0.708241 0.674817 0.678936 0.134729
H17   H     H_    0.477973 0.262746 0.293038 0.171815
H18   H     H_    0.196162 0.696740 0.121208 0.134136
H19   H     H_    0.257935 0.716629 0.358417 0.167893
H20   H     H_    0.273049 0.650323 0.189130 0.144578
H21   H     H_    0.078177 0.947436 0.139284 0.141189
H22   H     H_    0.134790 0.102236 0.186734 0.344747
H23   H     H_    0.708717 0.054032 0.366089 0.144955
H24   H     H_    0.135860 0.971870 0.416634 0.334373
H25   H     H_    0.814571 0.096643 0.132364 0.104370
H26   H     H_    0.590181 0.690938 0.414740 0.332796
H27   H     H_    0.461350 0.282400 0.158248 0.118350
H28   H     H_    0.363238 0.040186 0.690283 0.330378
H29   H     H_    0.739689 0.615599 0.799114 0.324368
H30   H     H_    0.362337 0.683203 0.308027 0.330015
H31   H     H_    0.747008 0.110826 0.203437 0.108437
H32   H     H_    0.744042 0.133433 0.290268 0.121795
H33   H     H_    0.596626 0.616718 0.136218 0.139166
H34   H     H_    0.537263 0.533350 0.211226 0.133463
H35   H     H_    0.533673 0.557695 0.298866 0.191602
H36   H     H_    0.863788 0.399222 0.216170 0.132156
O1    O     O_R   0.296680 0.802170 0.437540 -0.519200
O2    O     O_R   0.637200 0.461990 0.052510 -0.516086
O3    O     O_R   0.664790 0.681920 0.057970 -0.507236
O4    O     O_R   0.525380 0.838530 0.443500 -0.491094
O5    O     O_R   0.815840 0.852920 0.961840 -0.481608
O6    O     O_R   0.012100 0.822630 0.963670 -0.513149
O7    O     O_R   0.037010 0.668460 0.953040 -0.506534
O8    O     O_R   0.813390 0.478970 0.949660 -0.502318
O9    O     O_R   0.632250 0.456930 0.945520 -0.526180
O10   O     O_R   0.660200 0.677230 0.958780 -0.484992
O11   O     O_3   0.830870 0.661990 0.006950 -0.278409
O12   O     O_R   0.662610 0.183990 0.557860 -0.500854
O13   O     O_R   0.702130 0.995190 0.446810 -0.514298
O14   O     O_R   0.661770 0.181390 0.458760 -0.504342
O15   O     O_R   0.499820 0.198480 0.455280 -0.483991
O16   O     O_R   0.311660 0.976250 0.449080 -0.479446
O17   O     O_R   0.297580 0.804960 0.544440 -0.501854
O18   O     O_R   0.526220 0.841130 0.542590 -0.493401
O19   O     O_R   0.703030 0.997990 0.553710 -0.506807
O20   O     O_3   0.101001 0.080306 0.218632 -0.672918
O21   O     O_3   0.161664 0.005380 0.385389 -0.698185
O22   O     O_2   0.708359 0.997618 0.076335 -0.481498
O23   O     O_R   0.500730 0.201280 0.562180 -0.519636
O24   O     O_3   0.566391 0.664699 0.380095 -0.704530
O25   O     O_2   0.367926 0.257335 0.216949 -0.503415
O26   O     O_3   0.363359 0.036547 0.725719 -0.713046
O27   O     O_3   0.735393 0.621987 0.764013 -0.723205
O28   O     O_3   0.310496 0.642135 0.278727 -0.686585
O29   O     O_R   0.312500 0.978850 0.548170 -0.498735
O30   O     O_3   0.499990 0.999990 0.500010 -0.253621
O31   O     O_R   0.820790 0.857990 0.068830 -0.481336
O32   O     O_R   0.016700 0.827330 0.062850 -0.509029
O33   O     O_R   0.041970 0.673520 0.060040 -0.510203
O34   O     O_R   0.817980 0.483660 0.048840 -0.484239

loop_
_geom_bond_atom_site_label_1
_geom_bond_atom_site_label_2
_ccdc_geom_bond_type
Cr2   O12   S    
C15   C18   A    
C66   C68   S    
C63   C65   A    
C85   O3    A    
Cr6   O9    S    
C8    C83   S    
H24   O21   S    
C35   C36   A    
C53   H7    S    
C61   H11   S    
C92   H27   S    
Cr4   O5    S    
C72   H14   S    
C90   O5    A    
C73   H15   S    
C7    C8    A    
C39   C41   A    
C53   C54   A    
C76   H1    S    
Cr4   O11   S    
C21   C31   A    
C12   C23   A    
C26   C27   A    
C72   C77   A    
C92   O25   D    
C84   O34   A    
C35   C37   A    
C3    C7    A    
Cr2   O19   S    
C32   H35   S    
C48   H9    S    
C25   H32   S    
C4    O14   A    
Cr6   O2    S    
C56   C78   T    
C42   C46   A    
C27   C85   S    
C46   H2    S    
Cr1   O4    S    
C46   C47   A    
C61   C66   A    
C9    C19   A    
C11   C17   A    
C62   H13   S    
C6    O28   S    
C45   C56   S    
C49   C51   A    
H26   O24   S    
C29   C38   A    
Cr3   O15   S    
C9    C10   A    
C76   C88   A    
C60   H10   S    
C86   O6    A    
C4    O15   A    
H29   O27   S    
C91   H25   S    
C13   C14   A    
C14   O20   S    
C2    C6    A    
C63   O26   S    
C2    C11   A    
C24   H31   S    
H30   O28   S    
C44   H5    S    
C39   H3    S    
Cr2   O14   S    
C83   O32   A    
C40   C58   S    
C74   C75   A    
C62   C66   A    
Cr6   O3    S    
C64   C67   T    
C40   O23   A    
C45   C88   A    
C51   H8    S    
C24   C25   A    
C80   C82   T    
Cr3   O16   S    
C72   C73   A    
Cr1   O30   S    
Cr1   O1    S    
C26   C91   S    
Cr5   O33   S    
C39   C58   A    
C83   O33   A    
C8    C18   A    
C37   H33   S    
C60   C61   A    
C51   C53   A    
C47   C87   S    
C7    H18   S    
C2    C89   A    
C43   C44   A    
C29   C30   A    
C19   C89   A    
C52   C59   S    
Cr3   O29   S    
C42   C55   A    
C47   C57   A    
C20   C38   A    
C14   C15   A    
C77   C81   S    
C30   C31   A    
C23   C34   A    
C62   C63   A    
H22   O20   S    
C73   C79   A    
C75   H16   S    
C75   C77   A    
C13   H12   S    
Cr5   O7    S    
C20   H23   S    
C1    C38   S    
C59   C69   T    
C33   H34   S    
C48   C49   A    
C89   H19   S    
C60   C65   A    
C28   O18   A    
C74   C79   A    
C28   O19   A    
C41   C44   A    
Cr4   O32   S    
Cr1   O17   S    
C28   C71   S    
C42   C43   A    
C70   C86   S    
Cr2   O30   S    
C41   C50   A    
Cr2   O13   S    
C15   C17   A    
C57   H6    S    
C21   C25   A    
C54   C55   A    
C84   O2    A    
Cr6   O10   S    
Cr3   O23   S    
Cr5   O11   S    
C12   C92   S    
C12   C45   A    
C3    C5    A    
C10   C13   A    
C34   C67   S    
Cr4   O6    S    
C74   O27   S    
C48   C58   A    
C29   O24   S    
Cr6   O11   S    
H28   O26   S    
Cr5   O34   S    
C22   C36   A    
C4    C64   S    
C50   C55   A    
C82   C90   S    
C40   O12   A    
C5    H20   S    
C85   O31   A    
C32   C33   A    
C43   H4    S    
C88   H36   S    
C91   O22   D    
Cr3   O30   S    
C30   C32   A    
C5    C6    A    
C27   C37   A    
C52   O17   A    
C65   C69   S    
C33   C35   A    
C3    C17   A    
C22   C24   A    
C87   O8    A    
Cr5   O8    S    
C1    O13   A    
C10   C11   A    
C52   O29   A    
C23   H17   S    
C79   C80   S    
C78   C84   S    
C20   C21   A    
C9    O21   S    
C68   C70   T    
C49   C50   A    
C22   C26   A    
C31   C36   A    
Cr1   O18   S    
C16   O16   A    
Cr4   O31   S    
C87   O9    A    
C16   O1    A    
C18   H21   S    
C90   O10   A    
C1    O4    A    
C86   O7    A    
C34   C76   A    
C71   C81   T    
C54   C57   A    
C16   C19   S    
