data_mof_unit_7098.cif
_audit_creation_date              2012-12-11T17:39:32-0500
_audit_creation_method            fapswitch 2.2
_symmetry_space_group_name_H-M    P1
_symmetry_Int_Tables_number       1
_space_group_crystal_system       triclinic
_cell_length_a                    15.091222
_cell_length_b                    15.20338
_cell_length_c                    15.010578
_cell_angle_alpha                 108.605082
_cell_angle_beta                  110.290694
_cell_angle_gamma                 109.933806
_cell_volume                      2637.01598249

loop_
_atom_site_label
_atom_site_type_symbol
_atom_type_description
_atom_site_fract_x
_atom_site_fract_y
_atom_site_fract_z
_atom_type_partial_charge
C1    C     C_R   0.912104 0.908140 0.711604 -0.150203
C2    C     C_R   0.909328 0.686335 0.452586 -0.124799
C3    C     C_R   0.708726 0.783725 0.191787 -0.147280
C4    C     C_R   0.092497 0.298806 0.498777 -0.143931
C5    C     C_R   0.302403 0.003865 0.594887 -0.157863
C6    C     C_R   0.659123 0.683802 0.181752 0.132024
C7    C     C_R   0.363544 0.060308 0.561008 0.076627
C8    C     C_R   0.002958 0.678985 0.476556 0.044705
C9    C     C_R   0.999198 0.955895 0.175393 0.053235
C10   C     C_R   0.543131 0.711998 0.445512 -0.250883
C11   C     C_R   0.529619 0.801012 0.459817 -0.080576
C12   C     C_R   0.002143 0.302091 0.440514 0.060719
C13   C     C_R   0.562278 0.877667 0.564522 0.112162
C14   C     C_R   0.596697 0.858184 0.652111 -0.238979
C15   C     C_R   0.610299 0.769244 0.637643 -0.123377
C16   C     C_R   0.297758 0.206946 0.802375 -0.150000
C17   C     C_R   0.587713 0.697911 0.535248 0.041464
C18   C     C_R   0.490181 0.996675 0.596296 -0.246232
C19   C     C_R   0.471249 0.076686 0.583186 0.077849
C20   C     C_R   0.546273 0.155530 0.574644 0.085533
C21   C     C_R   0.637536 0.150456 0.578145 -0.180185
C22   C     C_R   0.646707 0.061638 0.575893 0.082558
C23   C     C_R   0.361502 0.298940 0.806835 0.133657
C24   C     C_R   0.571251 0.983132 0.584550 0.026916
C25   C     C_R   0.496072 0.222896 0.441331 -0.005368
C26   C     C_R   0.468333 0.294691 0.416459 -0.264079
C27   C     C_R   0.466258 0.374113 0.492905 -0.004152
C28   C     C_R   0.747264 0.060316 0.471065 -0.094765
C29   C     C_R   0.497242 0.386630 0.597030 -0.054874
C30   C     C_R   0.527295 0.317613 0.624554 -0.212110
C31   C     C_R   0.525095 0.234071 0.546943 0.067496
C32   C     C_R   0.847906 0.187657 0.070797 -0.121938
C33   C     C_R   0.911090 0.262286 0.182670 -0.128245
C34   C     C_R   0.724308 0.043732 0.548575 0.032259
C35   C     C_R   0.862175 0.300218 0.237772 0.126667
C36   C     C_R   0.748531 0.259370 0.180309 -0.175118
C37   C     C_R   0.685214 0.182836 0.068886 -0.114168
C38   C     C_R   0.735206 0.148346 0.013829 -0.097432
C39   C     C_R   0.932363 0.489455 0.363948 -0.238042
C40   C     C_R   0.302059 0.299141 0.712381 -0.113073
C41   C     C_R   0.008095 0.584163 0.464086 0.071635
C42   C     C_R   0.086966 0.586929 0.551375 0.016948
C43   C     C_R   0.085884 0.493147 0.537213 -0.237385
C44   C     C_R   0.007986 0.397164 0.438544 0.059484
C45   C     C_R   0.710645 0.691612 0.281779 -0.139826
C46   C     C_R   0.932419 0.394690 0.349234 0.014100
C47   C     C_R   0.278775 0.736857 0.692819 -0.189170
C48   C     C_R   0.353461 0.833348 0.791895 -0.138021
C49   C     C_R   0.318205 0.874959 0.860890 -0.094869
C50   C     C_R   0.207848 0.820626 0.830383 -0.113481
C51   C     C_R   0.132295 0.725692 0.730157 -0.119226
C52   C     C_R   0.762718 0.979670 0.572318 -0.121311
C53   C     C_R   0.167295 0.683811 0.660441 0.115502
C54   C     C_2   0.531970 0.464751 0.896823 -0.131292
C55   C     C_2   0.472882 0.376254 0.895455 -0.205600
C56   C     C_R   0.300674 0.089782 0.499258 -0.109602
C57   C     C_2   0.607076 0.564847 0.000461 -0.094244
C58   C     C_2   0.583078 0.584905 0.080173 -0.208240
C59   C     C_R   0.407660 0.159437 0.099227 -0.142451
C60   C     C_R   0.311229 0.069527 0.067296 -0.190649
C61   C     C_R   0.212423 0.070212 0.033865 0.111355
C62   C     C_R   0.213234 0.164936 0.040503 -0.130496
C63   C     C_R   0.310108 0.255102 0.073785 -0.124292
C64   C     C_R   0.909626 0.210312 0.408227 -0.130018
C65   C     C_R   0.407084 0.252043 0.102284 -0.121254
C66   C     C_R   0.100981 0.956370 0.079928 -0.211220
C67   C     C_R   0.093273 0.780622 0.535633 -0.107392
C68   C     C_R   0.998326 0.914814 0.071920 0.063385
C69   C     C_R   0.902030 0.853552 0.966081 0.020255
C70   C     C_R   0.914789 0.843120 0.876987 -0.209337
C71   C     C_R   0.012913 0.916946 0.893559 0.043722
C72   C     C_R   0.109225 0.974646 0.997962 -0.004032
C73   C     C_R   0.704987 0.713628 0.878361 -0.160191
C74   C     C_R   0.595931 0.686298 0.844889 -0.109730
C75   C     C_R   0.569960 0.766159 0.876700 -0.106040
C76   C     C_R   0.093941 0.998031 0.798837 -0.118737
C77   C     C_R   0.652084 0.874321 0.937523 -0.145743
C78   C     C_R   0.909575 0.936035 0.188704 -0.137713
C79   C     C_R   0.760355 0.902466 0.966646 -0.166743
C80   C     C_R   0.788677 0.822358 0.942133 0.085877
C81   C     C_R   0.006680 0.942462 0.806508 0.053409
C82   C     C_2   0.615696 0.612328 0.522103 0.419352
C83   C     C_2   0.487414 0.134934 0.352653 0.440314
C84   C     C_R   0.091937 0.032964 0.278654 -0.119532
H1    H     H_    0.828821 0.850337 0.682055 0.116426
H2    H     H_    0.620675 0.915855 0.733002 0.129720
H3    H     H_    0.643734 0.759369 0.707542 0.169667
H4    H     H_    0.432027 0.933365 0.599098 0.130395
H5    H     H_    0.694865 0.209564 0.570341 0.114079
H6    H     H_    0.444111 0.286657 0.336068 0.132364
H7    H     H_    0.440142 0.425974 0.471194 0.094933
H8    H     H_    0.496302 0.449094 0.655659 0.087716
H9    H     H_    0.548856 0.326905 0.705059 0.130306
H10   H     H_    0.686649 0.091247 0.926959 0.096942
H11   H     H_    0.323930 0.176192 0.856113 0.111327
H12   H     H_    0.178413 0.803986 0.566886 0.114582
H13   H     H_    0.886736 0.161747 0.027850 0.105267
H14   H     H_    0.998877 0.294564 0.225011 0.107528
H15   H     H_    0.709697 0.288883 0.221150 0.104462
H16   H     H_    0.597891 0.152214 0.024619 0.101261
H17   H     H_    0.875364 0.490417 0.296555 0.135730
H18   H     H_    0.142691 0.494520 0.606760 0.135568
H19   H     H_    0.306807 0.705648 0.639519 0.123543
H20   H     H_    0.438531 0.876203 0.814904 0.106433
H21   H     H_    0.376617 0.949299 0.937746 0.104086
H22   H     H_    0.180227 0.852162 0.883586 0.118471
H23   H     H_    0.826332 0.877235 0.129273 0.124564
H24   H     H_    0.727556 0.106132 0.433460 0.106251
H25   H     H_    0.046611 0.685575 0.706238 0.122482
H26   H     H_    0.513175 0.468016 0.822290 0.111760
H27   H     H_    0.498412 0.370066 0.969398 0.135153
H28   H     H_    0.678687 0.625357 0.009214 0.138550
H29   H     H_    0.511979 0.526230 0.073897 0.133618
H30   H     H_    0.481916 0.321660 0.127499 0.097934
H31   H     H_    0.483102 0.157622 0.122472 0.104670
H32   H     H_    0.313412 0.999314 0.067947 0.125500
H33   H     H_    0.138479 0.168150 0.018333 0.111472
H34   H     H_    0.176813 0.070500 0.301509 0.097011
H35   H     H_    0.309915 0.327193 0.077085 0.110599
H36   H     H_    0.332049 0.353725 0.684390 0.081552
H37   H     H_    0.842051 0.792974 0.796555 0.162216
H38   H     H_    0.723767 0.650611 0.852489 0.141564
H39   H     H_    0.530608 0.603610 0.792853 0.099555
H40   H     H_    0.485815 0.743878 0.852629 0.122459
H41   H     H_    0.631369 0.935965 0.961086 0.121001
H42   H     H_    0.823225 0.986411 0.011433 0.126549
H43   H     H_    0.765068 0.957472 0.633815 0.124038
H44   H     H_    0.825155 0.184228 0.354700 0.100264
H45   H     H_    0.678513 0.806477 0.131454 0.116506
H46   H     H_    0.177513 0.017541 0.844168 0.117201
H47   H     H_    0.686117 0.629954 0.303608 0.082007
H48   H     H_    0.323313 0.141298 0.466606 0.113712
H49   H     H_    0.826119 0.621579 0.413002 0.098593
H50   H     H_    0.594055 0.555561 0.441658 0.008636
H51   H     H_    0.496067 0.146184 0.287850 0.017236
H52   H     H_    0.176192 0.995400 0.156642 0.133463
H53   H     H_    0.331275 0.982492 0.656917 0.098590
H54   H     H_    0.523811 0.657134 0.365564 0.112202
H55   H     H_    0.501260 0.814393 0.391177 0.135415
H56   H     H_    0.177373 0.353399 0.528390 0.093883
N1    N     N_R   0.941940 0.944580 0.650780 -0.043350
N2    N     N_R   0.204460 0.150250 0.707090 -0.042459
N3    N     N_R   0.794270 0.003240 0.446420 -0.047100
N4    N     N_R   0.204920 0.207570 0.650770 -0.045159
N5    N     N_R   0.793810 0.945920 0.502740 -0.042672
N6    N     N_R   0.943620 0.152590 0.446420 -0.042742
N7    N     N_R   0.055110 0.000900 0.707100 -0.042523
N8    N     N_R   0.795080 0.792430 0.349230 -0.039044
N9    N     N_R   0.206190 0.054080 0.497260 -0.044260
N10   N     N_R   0.056380 0.847410 0.553580 -0.043131
N11   N     N_R   0.944890 0.999100 0.292900 -0.041184
N12   N     N_R   0.058060 0.055420 0.349220 -0.042683
N13   N     N_R   0.943200 0.791100 0.497260 -0.039539
N14   N     N_R   0.795540 0.849750 0.292910 -0.044952
N15   N     N_R   0.205730 0.996760 0.553580 -0.038569
N16   N     N_R   0.056800 0.208900 0.502740 -0.038925
Ni1   Ni    Ni4+2 0.869690 0.869690 0.500000 0.219587
Ni2   Ni    Ni4+2 0.130310 0.130310 0.500000 0.208537
Ni3   Ni    Ni4+2 0.129250 0.998840 0.629170 0.214656
Ni4   Ni    Ni4+2 0.870750 0.001160 0.370830 0.218009
O1    O     O_2   0.664763 0.605090 0.600928 -0.604922
O2    O     O_2   0.466716 0.048210 0.348245 -0.588289

loop_
_geom_bond_atom_site_label_1
_geom_bond_atom_site_label_2
_ccdc_geom_bond_type
C25   C31   A    
C66   C68   A    
C63   C65   A    
C41   C42   A    
C52   N5    A    
C6    C45   A    
C27   C29   A    
C45   N8    A    
C65   H30   S    
C6    C58   S    
C35   C36   A    
N2    Ni3   S    
C3    C6    A    
N7    Ni3   S    
N8    Ni1   S    
N3    Ni4   S    
C39   C41   A    
C21   H5    S    
C26   C27   A    
C37   C38   A    
C18   C24   A    
C36   C37   A    
C17   C82   S    
C30   H9    S    
C42   C53   S    
C30   C31   A    
C12   C64   A    
C57   H28   S    
N6    Ni4   S    
C10   C17   A    
C1    C81   A    
C23   C40   A    
C48   H20   S    
C63   H35   S    
C32   H13   S    
C54   H26   S    
C15   C17   A    
C33   H14   S    
C73   C74   A    
C11   H55   S    
C62   H33   S    
C76   H46   S    
C66   C72   A    
C19   C20   A    
C76   N7    A    
C68   C69   A    
C64   H44   S    
N10   N13   A    
C58   H29   S    
N11   N12   A    
C27   H7    S    
C70   C71   A    
C32   C38   A    
C4    C12   A    
N9    Ni2   S    
C83   H51   S    
C47   C53   A    
C64   N6    A    
C74   H39   S    
C28   C34   A    
C59   C60   A    
C51   H25   S    
C13   C14   A    
C67   N10   A    
C61   C62   A    
N8    N14   A    
C7    C56   A    
C52   H43   S    
C44   C46   A    
C78   N11   A    
C39   H17   S    
C77   C79   A    
C1    H1    S    
C22   C34   S    
N12   Ni2   S    
C2    H49   S    
C47   H19   S    
C74   C75   A    
N15   Ni3   S    
C75   H40   S    
C8    C41   S    
C14   H2    S    
N10   Ni3   S    
C5    C7    A    
C18   C19   A    
C49   H21   S    
C73   H38   S    
C25   C26   A    
C5    N15   A    
C3    N14   A    
C18   H4    S    
C13   C24   S    
C78   H23   S    
C51   C53   A    
C82   H50   S    
C16   N2    A    
C43   C44   A    
N14   Ni4   S    
C29   C30   A    
C4    H56   S    
N5    Ni1   S    
C47   C48   A    
C38   H10   S    
C62   C63   A    
C50   C51   A    
C28   N3    A    
C5    H53   S    
C75   C77   A    
C56   H48   S    
C39   C46   A    
C66   H52   S    
C84   N12   A    
C61   C72   S    
N1    Ni1   S    
C48   C49   A    
C4    N16   A    
C79   H42   S    
C45   H47   S    
C2    N13   A    
C7    C19   S    
C40   N4    A    
C84   H34   S    
C67   H12   S    
C22   C24   A    
C60   H32   S    
C26   H6    S    
C42   C43   A    
N4    Ni2   S    
C40   H36   S    
C77   H41   S    
C15   H3    S    
N3    N5    A    
C54   C55   D    
C16   H11   S    
C55   H27   S    
C3    H45   S    
C83   O2    D    
C2    C8    A    
C76   C81   A    
C23   C55   S    
C82   O1    D    
C16   C23   A    
C34   C52   A    
C32   C33   A    
N16   Ni2   S    
N9    N15   A    
C9    C68   S    
C71   C72   A    
C12   C44   S    
N11   Ni4   S    
C25   C83   S    
C11   C13   A    
C70   H37   S    
C57   C58   D    
C28   H24   S    
C33   C35   A    
C73   C80   A    
C36   H15   S    
N2    N4    A    
C9    C78   A    
C37   H16   S    
N13   Ni1   S    
C69   C70   A    
C43   H18   S    
C1    N1    A    
C10   C11   A    
N1    N7    A    
C9    C84   A    
C79   C80   A    
N6    N16   A    
C20   C21   A    
C8    C67   A    
C59   H31   S    
C49   C50   A    
C50   H22   S    
C14   C15   A    
C60   C61   A    
C69   C80   S    
C10   H54   S    
C56   N9    A    
C21   C22   A    
C35   C46   S    
C54   C57   S    
C29   H8    S    
C59   C65   A    
C71   C81   S    
C20   C31   S    
