data_mof_unit_59712.cif
_audit_creation_date              2012-10-26T19:20:34-0400
_audit_creation_method            fapswitch 2.2
_symmetry_space_group_name_H-M    P1
_symmetry_Int_Tables_number       1
_space_group_crystal_system       triclinic
_cell_length_a                    11.136831
_cell_length_b                    11.102489
_cell_length_c                    10.056638
_cell_angle_alpha                 112.554732
_cell_angle_beta                  99.072697
_cell_angle_gamma                 90.384667
_cell_volume                      1130.91033995

loop_
_atom_site_label
_atom_site_type_symbol
_atom_type_description
_atom_site_fract_x
_atom_site_fract_y
_atom_site_fract_z
_atom_type_partial_charge
Br1   Br    Br    0.083406 0.153553 0.952999 -0.179870
Br2   Br    Br    0.940866 0.755763 0.066792 -0.164504
Br3   Br    Br    0.260083 0.802434 0.704964 -0.361803
Br4   Br    Br    0.737416 0.380386 0.117547 -0.259387
Br5   Br    Br    0.199928 0.875439 0.038070 -0.320399
Br6   Br    Br    0.814803 0.069014 0.000939 -0.314136
C1    C     C_R   0.491350 0.253911 0.439760 0.549272
C2    C     C_R   0.737453 0.493124 0.497637 0.566526
C3    C     C_R   0.144578 0.691268 0.737003 0.166675
C4    C     C_R   0.848800 0.319750 0.238052 0.172083
C5    C     C_R   0.105071 0.736618 0.871793 0.202786
C6    C     C_R   0.908694 0.221362 0.144509 0.195943
C7    C     C_R   0.000923 0.674922 0.887126 0.229170
C8    C     C_R   0.025587 0.254905 0.129568 0.232269
C9    C     C_R   0.933781 0.571015 0.764670 0.208348
C10   C     C_R   0.085047 0.374968 0.231575 0.236616
C11   C     C_R   0.958585 0.550332 0.625739 -0.084682
C12   C     C_R   0.511910 0.746033 0.560071 0.568841
C13   C     C_R   0.047169 0.426670 0.367823 -0.085251
C14   C     C_R   0.078831 0.584174 0.618532 -0.066412
C15   C     C_R   0.919926 0.413497 0.366534 -0.034407
C16   C     C_R   0.872544 0.484123 0.495428 0.040399
C17   C     C_R   0.128172 0.508851 0.495134 0.018630
C18   C     C_2   0.487534 0.113163 0.406185 -0.072218
C19   C     C_2   0.519355 0.886806 0.593361 -0.058740
C20   C     C_2   0.506728 0.069846 0.514984 -0.099777
C21   C     C_2   0.502382 0.930063 0.484456 -0.098319
C22   C     C_2   0.486989 0.523578 0.081561 0.145050
C23   C     C_2   0.493160 0.488055 0.916548 0.135758
C24   C     C_R   0.262890 0.503689 0.500151 0.571310
Cu1   Cu    Cu3+1 0.521920 0.521810 0.644910 1.177601
Cu2   Cu    Cu3+1 0.478080 0.478190 0.355090 1.194972
H1    H     H_    0.483957 0.861874 0.370749 0.190785
H2    H     H_    0.361543 0.107104 0.049026 0.392373
H3    H     H_    0.525417 0.138029 0.628695 0.204210
H4    H     H_    0.537443 0.955265 0.706893 0.167871
H5    H     H_    0.469048 0.044784 0.292622 0.169437
H6    H     H_    0.444501 0.400117 0.835694 0.161855
H7    H     H_    0.521244 0.619600 0.159787 0.161485
H8    H     H_    0.049822 0.340870 0.763342 0.356465
H9    H     H_    0.093816 0.688417 0.342076 0.373456
H10   H     H_    0.653648 0.853237 0.892594 0.381115
N1    N     N_2   0.445130 0.445420 0.137360 -0.058155
N2    N     N_2   0.554870 0.554580 0.862640 -0.062941
O1    O     O_R   0.511700 0.332340 0.577400 -0.524049
O2    O     O_2   0.813220 0.324761 0.644120 -0.286733
O3    O     O_3   0.998088 0.359013 0.839526 -0.392848
O4    O     O_2   0.184010 0.463699 0.052035 -0.185418
O5    O     O_2   0.980796 0.519501 0.106154 -0.185806
O6    O     O_3   0.164543 0.644267 0.301325 -0.476392
O7    O     O_2   0.507389 0.794215 0.023219 -0.296956
O8    O     O_2   0.691183 0.710187 0.114017 -0.216387
O9    O     O_3   0.695568 0.775533 0.894376 -0.431416
O10   O     O_2   0.305646 0.279662 0.889639 -0.244965
O11   O     O_2   0.507647 0.216553 0.956200 -0.276828
O12   O     O_R   0.488300 0.667660 0.422600 -0.522372
O13   O     O_3   0.338873 0.197794 0.097660 -0.440219
O14   O     O_R   0.474680 0.295500 0.332650 -0.446234
O15   O     O_R   0.525320 0.704500 0.667350 -0.459538
O16   O     O_R   0.338170 0.518410 0.622370 -0.514835
O17   O     O_R   0.661830 0.481590 0.377630 -0.493228
O18   O     O_R   0.301150 0.481570 0.377630 -0.441835
O19   O     O_R   0.698850 0.518430 0.622370 -0.441887
O20   O     O_2   0.793992 0.466796 0.892556 -0.133067
S1    S     S_3+6 0.878662 0.428497 0.784167 0.122578
S2    S     S_3+6 0.106265 0.500310 0.167946 0.118006
S3    S     S_3+6 0.611870 0.711225 0.979054 0.160374
S4    S     S_3+6 0.399907 0.283814 0.016237 0.159754

loop_
_geom_bond_atom_site_label_1
_geom_bond_atom_site_label_2
_ccdc_geom_bond_type
Cu1   O16   S    
C23   H6    S    
H2    O13   S    
C2    C16   S    
Cu1   O1    S    
Br3   C3    S    
C12   O12   A    
C19   C21   D    
C22   N1    D    
O6    S2    S    
C12   O15   A    
C3    C14   A    
C13   C17   A    
C11   C16   A    
C14   C17   A    
Cu2   O14   S    
C2    O17   A    
O20   S1    D    
C7    C9    A    
O11   S4    D    
C6    C8    A    
Cu2   O18   S    
H10   O9    S    
O7    S3    D    
C15   C16   A    
C21   H1    S    
C3    C5    A    
C20   C21   S    
C12   C19   S    
C4    C6    A    
C10   C13   A    
C1    O1    A    
O3    S1    S    
C22   C23   S    
C13   C15   A    
Cu2   N1    S    
C18   C20   D    
Cu2   O17   S    
Br5   C5    S    
C24   O18   A    
C23   N2    D    
Br6   C6    S    
O9    S3    S    
C8    C10   A    
O10   S4    D    
Cu1   N2    S    
O13   S4    S    
Br4   C4    S    
C1    C18   S    
C9    S1    S    
C17   C24   S    
Cu1   O19   S    
H9    O6    S    
C5    C7    A    
C11   C14   A    
C10   S2    S    
O2    S1    D    
C18   H5    S    
C2    O19   A    
O5    S2    D    
Cu1   O15   S    
C20   H3    S    
C9    C11   A    
Br2   C7    S    
N2    S3    S    
Br1   C8    S    
C1    O14   A    
C22   H7    S    
O4    S2    D    
C19   H4    S    
H8    O3    S    
C4    C15   A    
Cu2   O12   S    
Cu1   Cu2   S    
O8    S3    D    
N1    S4    S    
C24   O16   A    
