data_mof_unit_52779.cif
_audit_creation_date              2012-12-10T16:46:04-0500
_audit_creation_method            fapswitch 2.2
_symmetry_space_group_name_H-M    P1
_symmetry_Int_Tables_number       1
_space_group_crystal_system       triclinic
_cell_length_a                    10.708363
_cell_length_b                    8.683746
_cell_length_c                    7.445962
_cell_angle_alpha                 102.450111
_cell_angle_beta                  94.922053
_cell_angle_gamma                 92.497124
_cell_volume                      672.242703521

loop_
_atom_site_label
_atom_site_type_symbol
_atom_type_description
_atom_site_fract_x
_atom_site_fract_y
_atom_site_fract_z
_atom_type_partial_charge
C1    C     C_R   0.505240 0.201015 0.454016 0.781834
C2    C     C_3   0.878136 0.502105 0.499324 0.048849
C3    C     C_3   0.941397 0.670176 0.592278 -0.143498
C4    C     C_3   0.914586 0.458682 0.298004 -0.386789
C5    C     C_2   0.532857 0.038555 0.431886 -0.168860
C6    C     C_2   0.507004 0.967342 0.567982 -0.352829
C7    C     C_R   0.259889 0.498448 0.500555 0.754980
C8    C     C_R   0.507679 0.800087 0.545628 0.941267
C9    C     C_R   0.740062 0.501103 0.499040 0.778786
C10   C     C_3   0.073267 0.376412 0.604545 -0.377200
C11   C     C_3   0.929247 0.375178 0.600515 -0.345931
C12   C     C_3   0.086197 0.665852 0.596886 -0.438159
C13   C     C_3   0.057523 0.458544 0.298569 -0.358931
C14   C     C_3   0.122050 0.499631 0.500371 0.135239
Cu1   Cu    Cu3+1 0.514070 0.517380 0.684380 0.971608
Cu2   Cu    Cu3+1 0.485930 0.482620 0.315620 0.961662
H1    H     H_    0.115431 0.404963 0.750726 0.184142
H2    H     H_    0.878944 0.545110 0.218220 0.224725
H3    H     H_    0.123027 0.755796 0.525126 0.143352
H4    H     H_    0.911224 0.751984 0.502612 0.156771
H5    H     H_    0.471361 0.031662 0.693388 0.138988
H6    H     H_    0.399622 0.380358 0.948654 0.218509
H7    H     H_    0.601241 0.618287 0.050906 0.265439
H8    H     H_    0.101124 0.256683 0.539476 0.150745
H9    H     H_    0.887406 0.256023 0.527974 0.168553
H10   H     H_    0.902163 0.395235 0.744072 0.212502
H11   H     H_    0.132123 0.696918 0.741094 0.188502
H12   H     H_    0.089805 0.546307 0.220495 0.203280
H13   H     H_    0.083207 0.340054 0.225315 0.170906
H14   H     H_    0.871603 0.339837 0.226282 0.180712
N1    N     N_2   0.464720 0.456420 0.038520 -0.224909
N2    N     N_2   0.535280 0.543580 0.961480 -0.213746
O1    O     O_R   0.509140 0.286130 0.619770 -0.579420
O2    O     O_R   0.485380 0.256770 0.308360 -0.601465
O3    O     O_R   0.329570 0.514650 0.655700 -0.597450
O4    O     O_R   0.305810 0.485300 0.344290 -0.594042
O5    O     O_R   0.514620 0.743230 0.691640 -0.584105
O6    O     O_R   0.490860 0.713870 0.380230 -0.558203
O7    O     O_R   0.694190 0.514700 0.655710 -0.570716
O8    O     O_R   0.670430 0.485350 0.344300 -0.581957
C15   C     C_2   0.601133 0.967381 0.270992 0.367105
H15   H     H_    0.582347 0.001701 0.139962 0.082054
O9    O     O_2   0.684674 0.878544 0.287263 -0.566917
C16   C     C_2   0.902256 0.739708 0.782458 0.860636
O10   O     O_2   0.932095 0.680515 0.913533 -0.622922
O11   O     O_R   0.831810 0.873200 0.807198 -0.764268
H16   H     H_    0.810385 0.908822 0.939187 0.341169

loop_
_geom_bond_atom_site_label_1
_geom_bond_atom_site_label_2
_ccdc_geom_bond_type
C2    C4    S    
C13   H12   S    
C7    O4    A    
N1    N2    D    
C4    H2    S    
H6    N1    S    
C2    C3    S    
C12   C14   S    
C1    O1    A    
C3    H4    S    
C6    H5    S    
C13   C14   S    
Cu2   O4    S    
Cu2   N1    S    
C15   O9    D    
Cu1   O7    S    
C8    O6    A    
Cu2   O8    S    
C1    C5    S    
C2    C11   S    
C12   H3    S    
C13   H13   S    
C16   O11   S    
C1    O2    A    
C10   C11   S    
C7    C14   S    
C10   C14   S    
C5    C6    D    
C3    C16   S    
C8    O5    A    
C11   H9    S    
C10   H1    S    
Cu1   Cu2   S    
C9    O7    A    
C16   O10   D    
C10   H8    S    
C15   H15   S    
Cu1   O3    S    
C4    C13   S    
C5    C15   S    
O11   H16   S    
Cu1   O5    S    
C6    C8    S    
C3    C12   S    
C12   H11   S    
C11   H10   S    
Cu2   O2    S    
C2    C9    S    
C7    O3    A    
Cu1   O1    S    
C9    O8    A    
C4    H14   S    
H7    N2    S    
Cu2   O6    S    
Cu1   N2    S    
