data_mof_unit_12771.cif
_audit_creation_date              2012-12-11T15:52:29-0500
_audit_creation_method            fapswitch 2.2
_symmetry_space_group_name_H-M    P1
_symmetry_Int_Tables_number       1
_space_group_crystal_system       triclinic
_cell_length_a                    6.928404
_cell_length_b                    14.54954
_cell_length_c                    16.01518
_cell_angle_alpha                 90.290144
_cell_angle_beta                  89.916806
_cell_angle_gamma                 89.928504
_cell_volume                      1614.38800606

loop_
_atom_site_label
_atom_site_type_symbol
_atom_type_description
_atom_site_fract_x
_atom_site_fract_y
_atom_site_fract_z
_atom_type_partial_charge
O1    O     O_R   0.494400 0.415640 0.412830 -0.537974
O2    O     O_R   0.823920 0.405510 0.586560 -0.544586
O3    O     O_R   0.994250 0.584360 0.587170 -0.540925
C1    C     C_R   0.654862 0.383238 0.615419 0.683037
O4    O     O_R   0.824110 0.404610 0.413450 -0.540548
O5    O     O_R   0.994440 0.583460 0.412820 -0.539511
C2    C     C_R   0.655388 0.382571 0.384234 0.700860
O6    O     O_R   0.494210 0.416540 0.587180 -0.540633
O7    O     O_3   0.660810 0.558680 0.500000 -0.371379
V1    V     V_3+5 0.935650 0.489110 0.500000 1.398572
O8    O     O_R   0.324150 0.594490 0.413440 -0.543837
C3    C     C_R   0.155113 0.616627 0.384334 0.688033
O9    O     O_R   0.323970 0.595390 0.586550 -0.544648
C4    C     C_R   0.155040 0.617697 0.615573 0.653194
V2    V     V_3+5 0.435660 0.510890 0.500000 1.392881
O10   O     O_3   0.160630 0.441320 0.500000 -0.366264
C5    C     C_3   0.046792 0.645178 0.764554 -0.316609
H1    H     H_    0.898841 0.621168 0.748606 0.138620
H2    H     H_    0.130155 0.584055 0.785411 0.130863
C6    C     C_3   0.034341 0.716387 0.837077 -0.318798
H3    H     H_    0.111758 0.689370 0.892631 0.131647
H4    H     H_    0.880558 0.726119 0.855293 0.140547
H5    H     H_    0.876774 0.752101 0.641826 0.140733
H6    H     H_    0.858503 0.856812 0.748668 0.136711
C7    C     C_3   0.025216 0.773238 0.660106 -0.319644
C8    C     C_3   0.348947 0.721149 0.712384 -0.316077
C9    C     C_3   0.144483 0.687671 0.686350 0.112948
H7    H     H_    0.423069 0.753087 0.658083 0.135670
H8    H     H_    0.438467 0.661678 0.732533 0.137199
C10   C     C_3   0.123273 0.809740 0.810752 0.114268
C11   C     C_3   0.012771 0.844393 0.732669 -0.323120
C12   C     C_3   0.336698 0.791871 0.784448 -0.307397
H9    H     H_    0.420600 0.765869 0.838676 0.140168
H10   H     H_    0.405192 0.857288 0.764248 0.131703
H11   H     H_    0.092822 0.805839 0.604601 0.122445
H12   H     H_    0.074358 0.911081 0.711881 0.122250
C13   C     C_R   0.953260 0.773862 0.216023 -0.155605
H13   H     H_    0.812435 0.792253 0.192064 0.115930
C14   C     C_R   0.964321 0.710693 0.281592 -0.147246
H14   H     H_    0.831461 0.682228 0.305928 0.118696
C15   C     C_R   0.143987 0.684584 0.315111 -0.048477
C16   C     C_R   0.312277 0.723428 0.281105 -0.153880
H15   H     H_    0.453102 0.705032 0.305060 0.115662
C17   C     C_R   0.301214 0.786601 0.215538 -0.148377
H16   H     H_    0.434075 0.815065 0.191201 0.117051
C18   C     C_R   0.121546 0.812725 0.182031 -0.050679
C19   C     C_R   0.812252 0.274364 0.716300 -0.158061
H17   H     H_    0.953000 0.292862 0.692250 0.116425
C20   C     C_R   0.801329 0.209687 0.780514 -0.151481
H18   H     H_    0.934173 0.180256 0.803903 0.118135
C21   C     C_R   0.621707 0.183353 0.813890 -0.042404
C22   C     C_R   0.453314 0.223486 0.781316 -0.146182
H19   H     H_    0.312571 0.205010 0.805389 0.118382
C23   C     C_R   0.464236 0.288155 0.717094 -0.153630
H20   H     H_    0.331393 0.317593 0.693713 0.118276
C24   C     C_R   0.643845 0.314414 0.683649 -0.047288
C25   C     C_R   0.787166 0.247795 0.302938 -0.142164
H21   H     H_    0.907940 0.243412 0.345602 0.121585
C26   C     C_R   0.773083 0.183715 0.237609 -0.130407
H22   H     H_    0.883221 0.131136 0.232110 0.149362
C27   C     C_R   0.618421 0.186364 0.180644 -0.132375
C28   C     C_R   0.476831 0.256293 0.190758 0.010859
C29   C     C_R   0.490473 0.318937 0.257558 -0.185346
H23   H     H_    0.381470 0.372030 0.264374 0.124395
C30   C     C_R   0.644577 0.315290 0.314271 -0.068122
O11   O     O_R   0.771300 0.080930 0.910090 -0.543553
O12   O     O_R   0.441270 0.092800 0.083770 -0.521959
O13   O     O_R   0.271080 0.913920 0.084380 -0.539751
C31   C     C_R   0.609734 0.116475 0.111989 0.698126
O14   O     O_R   0.441580 0.091910 0.910670 -0.543091
O15   O     O_R   0.271390 0.913020 0.910040 -0.544439
C32   C     C_R   0.610662 0.114338 0.881946 0.682911
O16   O     O_R   0.770990 0.081830 0.084440 -0.534768
O17   O     O_3   0.604750 0.938760 0.997250 -0.375465
V3    V     V_3+5 0.329850 0.008280 0.997210 1.439123
O18   O     O_R   0.941680 0.901940 0.910610 -0.545719
C33   C     C_R   0.111066 0.879678 0.881577 0.645410
O19   O     O_R   0.941370 0.902830 0.083720 -0.544450
C34   C     C_R   0.110411 0.880715 0.112836 0.690192
V4    V     V_3+5 0.829860 0.986420 0.997150 1.403645
O20   O     O_3   0.104830 0.056030 0.997180 -0.355349
C35   C     C_2   0.318603 0.269832 0.130597 0.744472
O21   O     O_2   0.327554 0.332736 0.080442 -0.563373
O22   O     O_R   0.156847 0.212774 0.132943 -0.654762
H24   H     H_    0.057184 0.229835 0.089376 0.299366

loop_
_geom_bond_atom_site_label_1
_geom_bond_atom_site_label_2
_ccdc_geom_bond_type
C7    C11   S    
O15   V3    S    
C29   C30   A    
C8    C12   S    
C15   C16   A    
C1    O6    A    
C19   C20   A    
C6    C10   S    
C17   H16   S    
O13   V3    S    
C8    C9    S    
C13   H13   S    
O5    C3    A    
C10   C11   S    
O19   V4    S    
C25   C26   A    
V2    O10   S    
C5    C6    S    
C10   C33   S    
O8    V2    S    
O11   C32   A    
C17   C18   A    
C20   C21   A    
C31   O16   A    
O1    V2    S    
C4    C9    S    
O7    V1    S    
O13   C34   A    
C28   C35   S    
C26   H22   S    
O17   V4    S    
O9    C4    A    
C1    C24   S    
C16   C17   A    
C22   C23   A    
C23   C24   A    
C26   C27   A    
O17   V3    S    
C21   C22   A    
C5    C9    S    
O18   C33   A    
C14   C15   A    
C14   H14   S    
O4    C2    A    
O19   C34   A    
V3    O20   S    
O12   C31   A    
C12   H10   S    
O2    C1    A    
C3    C15   S    
C2    C30   S    
C19   H17   S    
C28   C29   A    
C5    H1    S    
O22   H24   S    
O3    C4    A    
C7    H11   S    
C6    H4    S    
C35   O21   D    
O6    V2    S    
C35   O22   S    
O9    V2    S    
O12   V3    S    
C21   C32   S    
O2    V1    S    
O15   C33   A    
C22   H19   S    
C27   C31   S    
C23   H20   S    
O1    C2    A    
O18   V4    S    
C25   C30   A    
V4    O20   S    
O5    V1    S    
O8    C3    A    
C7    C9    S    
O11   V4    S    
C8    H7    S    
C12   H9    S    
O7    V2    S    
H6    C11   S    
O4    V1    S    
C13   C14   A    
O3    V1    S    
V1    O10   S    
C10   C12   S    
C25   H21   S    
C18   C34   S    
C5    H2    S    
O16   V4    S    
H5    C7    S    
C27   C28   A    
C29   H23   S    
C6    H3    S    
C8    H8    S    
C20   H18   S    
C16   H15   S    
O14   V3    S    
C11   H12   S    
O14   C32   A    
C13   C18   A    
C19   C24   A    
