data_mof_unit_13071.cif
_audit_creation_date              2012-10-26T19:29:36-0400
_audit_creation_method            fapswitch 2.2
_symmetry_space_group_name_H-M    P1
_symmetry_Int_Tables_number       1
_space_group_crystal_system       triclinic
_cell_length_a                    15.900025
_cell_length_b                    14.669915
_cell_length_c                    10.632964
_cell_angle_alpha                 89.719685
_cell_angle_beta                  90.022624
_cell_angle_gamma                 89.947361
_cell_volume                      2480.12935438

loop_
_atom_site_label
_atom_site_type_symbol
_atom_type_description
_atom_site_fract_x
_atom_site_fract_y
_atom_site_fract_z
_atom_type_partial_charge
C1    C     C_R   0.339751 0.500026 0.500533 0.547139
C2    C     C_3   0.952665 0.486048 0.353370 0.543395
C3    C     C_3   0.050538 0.470804 0.368407 -0.133374
C4    C     C_1   0.824813 0.503763 0.494824 -0.047278
C5    C     C_1   0.174782 0.500478 0.501154 -0.084293
C6    C     C_R   0.499917 0.500275 0.258667 0.547575
C7    C     C_1   0.250219 0.500109 0.501313 -0.046472
C8    C     C_3   0.557519 0.052893 0.599629 -0.311500
C9    C     C_3   0.564473 0.947014 0.591019 -0.313980
C10   C     C_3   0.536420 0.053624 0.365365 -0.039791
C11   C     C_3   0.524966 0.945356 0.360938 -0.054862
C12   C     C_3   0.500257 0.500855 0.122138 0.042036
C13   C     C_3   0.500366 0.092102 0.493243 0.021476
C14   C     C_3   0.499855 0.908067 0.495196 0.022075
C15   C     C_3   0.412055 0.946799 0.534283 0.239990
C16   C     C_3   0.409374 0.053478 0.516882 0.224676
C17   C     C_1   0.501186 0.804810 0.500462 0.120397
C18   C     C_1   0.501371 0.195202 0.499312 0.098225
C19   C     C_R   0.660060 0.500050 0.499688 0.541135
C20   C     C_R   0.499946 0.499730 0.741062 0.550726
C21   C     C_3   0.493934 0.586688 0.039400 -0.125793
C22   C     C_3   0.434458 0.451237 0.042278 -0.138218
C23   C     C_3   0.050245 0.598672 0.526448 -0.227327
C24   C     C_3   0.428102 0.537019 0.957450 -0.133268
C25   C     C_3   0.500136 0.499123 0.877491 0.036873
C26   C     C_3   0.566054 0.548979 0.956872 -0.112122
C27   C     C_3   0.506458 0.413023 0.959866 -0.101472
C28   C     C_3   0.571530 0.463442 0.041116 0.021405
C29   C     C_3   0.859639 0.578682 0.227638 0.017877
C30   C     C_3   0.863831 0.646988 0.118817 -0.282391
C31   C     C_3   0.777188 0.664110 0.061793 -0.498787
C32   C     C_3   0.947533 0.360486 0.201180 -0.005190
C33   C     C_3   0.967508 0.417683 0.083198 -0.263703
C34   C     C_3   0.047001 0.435454 0.598815 -0.235728
C35   C     C_3   0.005614 0.358268 0.980507 -0.504893
C36   C     C_3   0.508786 0.109154 0.245793 -0.268902
C37   C     C_3   0.572486 0.182654 0.208090 -0.470312
C38   C     C_3   0.466124 0.908060 0.255168 -0.237169
C39   C     C_3   0.514735 0.880266 0.136840 -0.497514
C40   C     C_3   0.304345 0.153212 0.439638 0.003888
C41   C     C_3   0.219002 0.123986 0.492490 -0.262273
C42   C     C_3   0.160410 0.205606 0.507276 -0.494304
C43   C     C_3   0.275551 0.885150 0.538754 0.006738
C44   C     C_3   0.281166 0.788261 0.592369 -0.259438
C45   C     C_3   0.949519 0.428973 0.585410 -0.117019
C46   C     C_3   0.205849 0.766707 0.676017 -0.495116
C47   C     C_3   0.652787 0.422945 0.094024 -0.271129
C48   C     C_3   0.710679 0.389630 0.989540 -0.453489
C49   C     C_3   0.921631 0.330321 0.552308 -0.261419
C50   C     C_3   0.926396 0.266321 0.666062 -0.482474
C51   C     C_3   0.916211 0.691231 0.500516 -0.284762
C52   C     C_3   0.827743 0.712097 0.549689 -0.447379
C53   C     C_3   0.953354 0.598224 0.544932 -0.092267
C54   C     C_1   0.749445 0.500867 0.497634 -0.063682
C55   C     C_3   0.082680 0.501602 0.498924 -0.005291
C56   C     C_3   0.917063 0.505386 0.491131 0.123546
Cu1   Cu    Cu3+1 0.499910 0.589920 0.499840 0.948076
Cu2   Cu    Cu3+1 0.499910 0.410080 0.499840 0.940979
H1    H     H_    0.369200 0.567155 0.919490 0.107347
H2    H     H_    0.488641 0.657588 0.074583 0.119152
H3    H     H_    0.380644 0.411635 0.080373 0.106047
H4    H     H_    0.619175 0.588773 0.917277 0.103018
H5    H     H_    0.511870 0.342076 0.924878 0.111629
H6    H     H_    0.942785 0.597359 0.648598 0.116690
H7    H     H_    0.921998 0.444166 0.679540 0.122393
H8    H     H_    0.080346 0.625285 0.613228 0.104822
H9    H     H_    0.063423 0.460575 0.694271 0.107093
H10   H     H_    0.077239 0.367641 0.589163 0.130122
H11   H     H_    0.068668 0.644586 0.447381 0.141204
H12   H     H_    0.629403 0.927839 0.562318 0.120684
H13   H     H_    0.084884 0.508555 0.293293 0.115120
H14   H     H_    0.069081 0.398514 0.359631 0.076736
H15   H     H_    0.819351 0.608797 0.301168 0.135012
H16   H     H_    0.828917 0.515649 0.193837 0.176729
H17   H     H_    0.889807 0.712572 0.153441 0.160290
H18   H     H_    0.906481 0.620655 0.044568 0.160332
H19   H     H_    0.732682 0.688907 0.134584 0.149309
H20   H     H_    0.752663 0.600267 0.020322 0.143185
H21   H     H_    0.782038 0.716292 0.986160 0.142693
H22   H     H_    0.901379 0.307867 0.171990 0.143381
H23   H     H_    0.621573 0.083155 0.593835 0.126221
H24   H     H_    0.002589 0.319995 0.232135 0.105128
H25   H     H_    0.909013 0.448434 0.045236 0.155306
H26   H     H_    0.013051 0.472518 0.104772 0.184809
H27   H     H_    0.066154 0.328439 0.012853 0.143805
H28   H     H_    0.017565 0.400377 0.895481 0.138927
H29   H     H_    0.961702 0.302470 0.955125 0.141928
H30   H     H_    0.584550 0.230565 0.286188 0.179065
H31   H     H_    0.632914 0.150636 0.179950 0.133512
H32   H     H_    0.547768 0.222122 0.126642 0.138355
H33   H     H_    0.502094 0.065939 0.162001 0.144316
H34   H     H_    0.605903 0.063379 0.370736 0.116517
H35   H     H_    0.447099 0.142574 0.259867 0.196358
H36   H     H_    0.557932 0.934736 0.104269 0.144166
H37   H     H_    0.552810 0.818305 0.156832 0.147730
H38   H     H_    0.469789 0.864301 0.060096 0.136935
H39   H     H_    0.433009 0.845420 0.286437 0.196123
H40   H     H_    0.415509 0.957377 0.231595 0.201811
H41   H     H_    0.294009 0.189227 0.348766 0.143798
H42   H     H_    0.334489 0.203408 0.503541 0.133078
H43   H     H_    0.189476 0.073692 0.428325 0.172351
H44   H     H_    0.227979 0.091459 0.586024 0.137935
H45   H     H_    0.588584 0.916347 0.342064 0.108168
H46   H     H_    0.188701 0.255959 0.572481 0.149259
H47   H     H_    0.099282 0.182598 0.546596 0.138294
H48   H     H_    0.148757 0.238773 0.414721 0.138750
H49   H     H_    0.219216 0.889723 0.477213 0.148811
H50   H     H_    0.265888 0.935643 0.615414 0.102158
H51   H     H_    0.283315 0.738752 0.513637 0.191219
H52   H     H_    0.339603 0.780460 0.648733 0.165122
H53   H     H_    0.204941 0.812783 0.758601 0.141566
H54   H     H_    0.210362 0.695210 0.710175 0.148833
H55   H     H_    0.146396 0.775218 0.622340 0.133341
H56   H     H_    0.385570 0.081262 0.607937 0.038761
H57   H     H_    0.679274 0.335348 0.934309 0.151394
H58   H     H_    0.727893 0.446743 0.925688 0.143142
H59   H     H_    0.769039 0.361102 0.031441 0.135553
H60   H     H_    0.685435 0.475616 0.150377 0.133007
H61   H     H_    0.637305 0.365084 0.157308 0.157860
H62   H     H_    0.991278 0.263423 0.704398 0.147470
H63   H     H_    0.882752 0.289688 0.740842 0.147472
H64   H     H_    0.907702 0.196519 0.637472 0.135395
H65   H     H_    0.855610 0.329564 0.518375 0.185042
H66   H     H_    0.961757 0.302041 0.476414 0.170712
H67   H     H_    0.405848 0.931578 0.637162 0.040586
H68   H     H_    0.779061 0.681533 0.488757 0.162678
H69   H     H_    0.819686 0.687684 0.647971 0.147212
H70   H     H_    0.817145 0.786943 0.547988 0.126301
H71   H     H_    0.957483 0.745721 0.538800 0.126745
H72   H     H_    0.918676 0.700222 0.397460 0.188033
H73   H     H_    0.531415 0.071876 0.693040 0.109235
H74   H     H_    0.553921 0.916778 0.685918 0.116068
N1    N     N_1   0.501390 0.724970 0.502570 -0.204792
N2    N     N_1   0.501390 0.275030 0.502570 -0.213782
O1    O     O_R   0.379360 0.575970 0.499860 -0.496995
O2    O     O_3   0.909237 0.408479 0.302529 -0.605392
O3    O     O_3   0.355054 0.075856 0.414967 -0.554963
O4    O     O_3   0.347035 0.904253 0.463884 -0.550148
O5    O     O_R   0.379360 0.424030 0.499860 -0.497643
O6    O     O_R   0.499910 0.575920 0.316720 -0.500354
O7    O     O_R   0.499910 0.424080 0.316720 -0.504649
O8    O     O_R   0.620490 0.575900 0.499870 -0.499125
O9    O     O_R   0.620490 0.424100 0.499870 -0.488579
O10   O     O_R   0.499950 0.575950 0.683010 -0.498007
O11   O     O_R   0.499950 0.424050 0.683010 -0.499403
O12   O     O_3   0.942501 0.564077 0.273570 -0.599361

loop_
_geom_bond_atom_site_label_1
_geom_bond_atom_site_label_2
_ccdc_geom_bond_type
Cu2   O5    S    
C21   C26   S    
C46   H55   S    
C28   C47   S    
C8    C13   S    
C46   H54   S    
C41   C42   S    
C23   H11   S    
C37   H30   S    
C16   O3    S    
C50   H64   S    
C38   H40   S    
C40   H41   S    
C52   H70   S    
Cu2   O11   S    
Cu2   N2    S    
C13   C18   S    
C12   C28   S    
C50   H62   S    
C23   H8    S    
C36   C37   S    
C6    C12   S    
C30   C31   S    
C53   H6    S    
C53   C56   S    
C29   H15   S    
C20   C25   S    
C15   C16   S    
C49   H65   S    
C12   C22   S    
C41   H44   S    
C43   O4    S    
C20   O10   A    
C33   C35   S    
C35   H29   S    
C36   H35   S    
C52   H69   S    
C47   H60   S    
C45   C56   S    
C8    C9    S    
C31   H19   S    
C1    O5    A    
C48   H58   S    
C15   O4    S    
C4    C54   T    
C44   H51   S    
C47   H61   S    
C10   H34   S    
C34   C55   S    
C46   H53   S    
C4    C56   S    
C14   C17   S    
Cu1   N1    S    
C50   H63   S    
C3    C55   S    
C38   H39   S    
Cu2   O9    S    
C42   H47   S    
C51   H72   S    
C44   C46   S    
C23   C53   S    
C51   H71   S    
C8    H23   S    
C9    H12   S    
C21   H2    S    
C34   H10   S    
C29   O12   S    
C5    C7    T    
C9    C14   S    
C52   H68   S    
C29   H16   S    
C25   C26   S    
C49   H66   S    
C12   C21   S    
C2    O2    S    
C51   C52   S    
Cu1   O6    S    
C42   H46   S    
C51   C53   S    
C11   C38   S    
C3    H13   S    
C43   C44   S    
C39   H36   S    
C29   C30   S    
C32   H22   S    
C30   H18   S    
C47   C48   S    
C14   C15   S    
C45   C49   S    
C40   O3    S    
C8    H73   S    
C34   C45   S    
C43   H49   S    
C24   C25   S    
C6    O7    A    
C23   C55   S    
C33   H25   S    
C39   H37   S    
C27   H5    S    
C48   H57   S    
C37   H32   S    
C36   H33   S    
C40   C41   S    
C19   O8    A    
C22   C27   S    
C17   N1    T    
C22   C24   S    
C21   C24   S    
C2    O12   S    
C19   C54   S    
C31   H20   S    
C32   O2    S    
C9    H74   S    
C19   O9    A    
Cu1   O10   S    
Cu1   O8    S    
C1    C7    S    
C5    C55   S    
C10   C13   S    
C16   H56   S    
C34   H9    S    
C40   H42   S    
C10   C36   S    
C31   H21   S    
C48   H59   S    
C25   C27   S    
C32   H24   S    
C26   C28   S    
C37   H31   S    
C32   C33   S    
C2    C3    S    
C26   H4    S    
C11   C14   S    
C2    C56   S    
C22   H3    S    
C45   H7    S    
C30   H17   S    
C35   H27   S    
Cu2   O7    S    
Cu1   Cu2   S    
C38   C39   S    
C24   H1    S    
C35   H28   S    
C41   H43   S    
C3    H14   S    
C18   N2    T    
C43   H50   S    
C6    O6    A    
C33   H26   S    
C39   H38   S    
C10   C11   S    
C42   H48   S    
C49   C50   S    
C15   H67   S    
C13   C16   S    
C27   C28   S    
C20   O11   A    
Cu1   O1    S    
C11   H45   S    
C1    O1    A    
C44   H52   S    
