data_mof_unit_11400.cif
_audit_creation_date              2012-12-10T20:49:10-0500
_audit_creation_method            fapswitch 2.2
_symmetry_space_group_name_H-M    P1
_symmetry_Int_Tables_number       1
_space_group_crystal_system       triclinic
_cell_length_a                    8.93585
_cell_length_b                    8.119018
_cell_length_c                    10.531068
_cell_angle_alpha                 90.332918
_cell_angle_beta                  90.20291
_cell_angle_gamma                 90.013143
_cell_volume                      764.014714407

loop_
_atom_site_label
_atom_site_type_symbol
_atom_type_description
_atom_site_fract_x
_atom_site_fract_y
_atom_site_fract_z
_atom_type_partial_charge
C1    C     C_R   0.218030 0.499988 0.499869 0.930717
C2    C     C_R   0.781964 0.500019 0.499701 0.933570
C3    C     C_R   0.501330 0.499578 0.256815 0.867645
C4    C     C_R   0.500598 0.500596 0.743186 0.864607
C5    C     C_3   0.383447 0.587615 0.042866 -0.227187
C6    C     C_3   0.619858 0.413780 0.956859 -0.246432
C7    C     C_3   0.511041 0.658258 0.959695 -0.181670
C8    C     C_3   0.493273 0.343112 0.039923 -0.189672
C9    C     C_3   0.375575 0.432246 0.958683 0.139372
C10   C     C_3   0.628743 0.568960 0.041318 0.151446
C11   C     C_3   0.501049 0.501960 0.877676 -0.027941
C12   C     C_3   0.502854 0.499100 0.122378 -0.018836
C13   C     C_1   0.065186 0.499995 0.499658 -0.211230
C14   C     C_1   0.934798 0.500035 0.499589 -0.213260
H1    H     H_    0.286771 0.656868 0.082116 0.137266
H2    H     H_    0.714268 0.343956 0.915567 0.146662
H3    H     H_    0.518444 0.786012 0.923187 0.146834
H4    H     H_    0.485870 0.215001 0.075758 0.146354
N1    N     N_1   0.500000 0.073640 0.500000 -0.040766
N2    N     N_1   0.500000 0.926360 0.500000 -0.042044
O1    O     O_R   0.285350 0.636850 0.500000 -0.614980
O2    O     O_R   0.714650 0.363150 0.500000 -0.615512
O3    O     O_R   0.714650 0.636850 0.500000 -0.614047
O4    O     O_R   0.285350 0.363150 0.500000 -0.616050
O5    O     O_R   0.499970 0.636850 0.313950 -0.633141
O6    O     O_R   0.500030 0.363150 0.686050 -0.627191
O7    O     O_R   0.500030 0.636850 0.686050 -0.625137
O8    O     O_R   0.499970 0.363150 0.313950 -0.630551
Zn1   Zn    Zn3+2 0.500000 0.682780 0.500000 0.968985
Zn2   Zn    Zn3+2 0.500000 0.317220 0.500000 0.968290
C15   C     C_3   0.235185 0.350874 0.904192 -0.416092
C16   C     C_3   0.127066 0.299937 0.009369 -0.347140
C17   C     C_3   0.002231 0.191507 0.955924 -0.894665
H5    H     H_    0.951643 0.249242 0.870677 0.261631
H6    H     H_    0.047385 0.068845 0.928777 0.265522
H7    H     H_    0.914281 0.174573 0.028838 0.253331
H8    H     H_    0.187419 0.230238 0.084315 0.228213
H9    H     H_    0.077504 0.411974 0.053441 0.214437
H10   H     H_    0.178564 0.438450 0.839041 0.186689
H11   H     H_    0.269858 0.240683 0.848480 0.220727
C18   C     C_3   0.778720 0.636568 0.089460 -0.437164
C19   C     C_3   0.767218 0.815582 0.135445 -0.336688
C20   C     C_3   0.913081 0.871466 0.198079 -0.863400
H12   H     H_    0.938467 0.793916 0.282027 0.270726
H13   H     H_    0.007062 0.862704 0.129587 0.255874
H14   H     H_    0.902250 0.001401 0.230213 0.253441
H15   H     H_    0.742632 0.896957 0.053455 0.211997
H16   H     H_    0.675314 0.829341 0.205102 0.252391
H17   H     H_    0.819250 0.556344 0.167556 0.193620
H18   H     H_    0.861107 0.629959 0.010765 0.200448

loop_
_geom_bond_atom_site_label_1
_geom_bond_atom_site_label_2
_ccdc_geom_bond_type
C2    O2    A    
C7    C10   S    
C4    O6    A    
C20   H12   S    
C5    C9    S    
C16   H9    S    
O7    Zn1   S    
C9    C11   S    
C18   C19   S    
N1    N2    T    
C8    C12   S    
C16   C17   S    
C17   H7    S    
O8    Zn2   S    
C17   H5    S    
C19   H16   S    
C13   C14   T    
C4    C11   S    
C1    O1    A    
C20   H13   S    
C10   C12   S    
C19   H15   S    
C5    C12   S    
O3    Zn1   S    
C18   H17   S    
C3    O8    A    
C17   H6    S    
C15   H10   S    
C7    C11   S    
N2    Zn1   S    
C6    C11   S    
O5    Zn1   S    
C2    C14   S    
C20   H14   S    
O4    Zn2   S    
C5    H1    S    
C1    C13   S    
C6    C10   S    
C9    C15   S    
C6    H2    S    
C18   H18   S    
C3    O5    A    
C4    O7    A    
C15   H11   S    
C1    O4    A    
C19   C20   S    
C2    O3    A    
C5    C7    S    
C6    C8    S    
C3    C12   S    
O2    Zn2   S    
C7    H3    S    
C16   H8    S    
N1    Zn2   S    
O1    Zn1   S    
C8    H4    S    
C15   C16   S    
C8    C9    S    
C10   C18   S    
O6    Zn2   S    
