data_mof_unit_53424.cif
_audit_creation_date              2012-12-11T15:10:49-0500
_audit_creation_method            fapswitch 2.2
_symmetry_space_group_name_H-M    P1
_symmetry_Int_Tables_number       1
_space_group_crystal_system       triclinic
_cell_length_a                    21.115052
_cell_length_b                    7.237847
_cell_length_c                    18.276429
_cell_angle_alpha                 89.998112
_cell_angle_beta                  93.478061
_cell_angle_gamma                 90.002031
_cell_volume                      2787.99655472

loop_
_atom_site_label
_atom_site_type_symbol
_atom_type_description
_atom_site_fract_x
_atom_site_fract_y
_atom_site_fract_z
_atom_type_partial_charge
O1    O     O_R   0.448880 0.506250 0.415280 -0.529274
O2    O     O_R   0.551120 0.006250 0.584720 -0.529260
O3    O     O_R   0.434830 0.174000 0.557310 -0.520906
O4    O     O_R   0.565170 0.674000 0.442690 -0.520903
C1    C     C_R   0.416959 0.344569 0.579627 0.696694
C2    C     C_R   0.583040 0.844577 0.420373 0.696689
O5    O     O_R   0.441680 0.176440 0.414130 -0.530365
O6    O     O_R   0.558320 0.676440 0.585870 -0.530371
O7    O     O_R   0.558020 0.007570 0.440520 -0.519367
O8    O     O_R   0.441980 0.507570 0.559480 -0.519369
C3    C     C_R   0.427977 0.344771 0.388333 0.676042
C4    C     C_R   0.572023 0.844772 0.611666 0.676052
O9    O     O_3   0.538160 0.339670 0.508820 -0.364196
O10   O     O_3   0.461840 0.839670 0.491180 -0.364205
V1    V     V_3+5 0.492920 0.064260 0.498360 1.420178
V2    V     V_3+5 0.507080 0.564260 0.501640 1.420163
C5    C     C_R   0.876234 0.991926 0.686718 -0.183114
C6    C     C_R   0.123800 0.492419 0.313255 -0.183106
H1    H     H_    0.795431 0.994517 0.570226 0.124603
H2    H     H_    0.204621 0.495295 0.429729 0.124602
H3    H     H_    0.896945 0.025193 0.635446 0.116353
H4    H     H_    0.103106 0.525931 0.364511 0.116362
C7    C     C_R   0.888837 0.943561 0.818202 -0.069948
C8    C     C_R   0.111163 0.443591 0.181800 -0.070007
C9    C     C_R   0.583626 0.808330 0.745544 -0.159222
C10   C     C_R   0.416351 0.308004 0.254471 -0.159199
C11   C     C_R   0.618910 0.802866 0.812218 -0.120852
C12   C     C_R   0.381056 0.302371 0.187806 -0.120862
C13   C     C_R   0.683969 0.836998 0.815742 -0.157347
C14   C     C_R   0.316005 0.336617 0.184278 -0.157348
C15   C     C_R   0.715849 0.878581 0.751883 0.086240
C16   C     C_R   0.284145 0.378498 0.248120 0.086242
C17   C     C_R   0.678953 0.886348 0.683392 0.067771
C18   C     C_R   0.321054 0.386455 0.316600 0.067771
C19   C     C_R   0.782994 0.912256 0.753704 0.074516
C20   C     C_R   0.217008 0.412285 0.246296 0.074508
C21   C     C_R   0.811046 0.955237 0.687187 0.105577
C22   C     C_R   0.188978 0.455583 0.312794 0.105582
C23   C     C_R   0.774002 0.962166 0.621103 -0.189322
C24   C     C_R   0.226034 0.462696 0.378866 -0.189331
C25   C     C_R   0.709179 0.927787 0.619080 -0.189513
C26   C     C_R   0.290848 0.428195 0.380896 -0.189555
C27   C     C_R   0.823426 0.905784 0.818950 -0.249842
C28   C     C_R   0.176561 0.405638 0.181063 -0.249847
C29   C     C_R   0.915419 0.987620 0.751349 0.133029
C30   C     C_R   0.084605 0.487972 0.248634 0.133035
C31   C     C_R   0.612537 0.850275 0.680773 -0.082138
C32   C     C_R   0.387461 0.350246 0.319226 -0.082168
H5    H     H_    0.805539 0.874642 0.871529 0.105064
H6    H     H_    0.194433 0.374260 0.128498 0.105093
H7    H     H_    0.533233 0.779083 0.744401 0.106837
H8    H     H_    0.466734 0.278633 0.255622 0.106849
H9    H     H_    0.707885 0.829553 0.869389 0.109141
H10   H     H_    0.292079 0.329015 0.130640 0.109141
H11   H     H_    0.595614 0.770680 0.861825 0.120384
H12   H     H_    0.404335 0.269944 0.138214 0.120384
H13   H     H_    0.682807 0.934421 0.566455 0.110259
H14   H     H_    0.317229 0.434982 0.433513 0.110327
C33   C     C_1   0.864743 0.938926 0.132356 -0.209598
C34   C     C_1   0.135257 0.438947 0.867642 -0.209587
C35   C     C_1   0.821989 0.924813 0.176231 -0.007648
C36   C     C_1   0.178010 0.424832 0.823767 -0.007643
C37   C     C_1   0.771482 0.905653 0.228417 -0.004665
C38   C     C_1   0.228517 0.405659 0.771581 -0.004674
C39   C     C_1   0.728905 0.889028 0.272400 -0.004504
C40   C     C_1   0.271094 0.389021 0.727599 -0.004503
C41   C     C_1   0.678292 0.869941 0.324466 -0.002824
C42   C     C_1   0.321706 0.369922 0.675534 -0.002822
C43   C     C_1   0.635382 0.855919 0.368152 -0.206810
C44   C     C_1   0.364617 0.355898 0.631848 -0.206811
O11   O     O_R   0.058070 0.289240 0.940580 -0.517427
O12   O     O_R   0.941930 0.789240 0.059420 -0.517430
O13   O     O_R   0.058330 0.616740 0.085880 -0.529070
O14   O     O_R   0.941670 0.116740 0.914120 -0.529080
C45   C     C_R   0.071810 0.448889 0.111923 0.691653
C46   C     C_R   0.928189 0.948887 0.888078 0.691673
O15   O     O_R   0.065180 0.619040 0.942700 -0.523015
O16   O     O_R   0.934820 0.119040 0.057300 -0.523011
O17   O     O_R   0.948870 0.787780 0.915270 -0.533344
O18   O     O_R   0.051130 0.287780 0.084730 -0.533346
C47   C     C_R   0.083121 0.450337 0.920115 0.705191
C48   C     C_R   0.916879 0.950330 0.079884 0.705202
O19   O     O_3   0.961870 0.453310 0.991210 -0.365388
O20   O     O_3   0.038130 0.953310 0.008790 -0.365393
V3    V     V_3+5 0.007070 0.728770 0.001630 1.402103
V4    V     V_3+5 0.992930 0.228770 0.998370 1.402102
C49   C     C_3   0.985299 0.030524 0.746777 -0.364569
C50   C     C_3   0.996277 0.238408 0.741475 -0.724599
H15   H     H_    0.970832 0.295305 0.691476 0.219055
H16   H     H_    0.979354 0.309482 0.790490 0.231586
H17   H     H_    0.047767 0.266224 0.738490 0.213151
H18   H     H_    0.014051 0.975835 0.794847 0.169700
H19   H     H_    0.003353 0.961611 0.697821 0.173712
C51   C     C_3   0.014740 0.531082 0.253196 -0.364531
C52   C     C_3   0.003832 0.739005 0.258448 -0.724531
H20   H     H_    0.029302 0.795911 0.308429 0.219033
H21   H     H_    0.020772 0.809956 0.209412 0.231610
H22   H     H_    0.952352 0.766965 0.261436 0.213106
H23   H     H_    0.985966 0.476408 0.205140 0.169695
H24   H     H_    0.996665 0.462294 0.302170 0.173693

loop_
_geom_bond_atom_site_label_1
_geom_bond_atom_site_label_2
_ccdc_geom_bond_type
C2    C43   S    
C40   C42   S    
C49   C50   S    
C37   C39   T    
C7    C29   A    
C11   C13   A    
C52   H20   S    
O1    C3    A    
C33   C48   S    
C7    C46   S    
O2    C4    A    
C26   H14   S    
C2    O7    A    
O12   V3    S    
C12   H12   S    
C52   H22   S    
C23   C25   A    
O5    C3    A    
C14   H10   S    
O14   C46   A    
C16   C20   A    
C19   C21   A    
C5    C29   A    
H2    C24   S    
C11   H11   S    
C7    C27   A    
C34   C36   T    
C35   C37   S    
C36   C38   S    
C39   C41   S    
C18   C26   A    
O18   V4    S    
C15   C17   A    
C51   H24   S    
C19   C27   A    
C45   O18   A    
C9    C31   A    
C10   C32   A    
O16   V4    S    
O5    V1    S    
O15   V3    S    
O6    V2    S    
C22   C24   A    
C49   H18   S    
C13   C15   A    
O13   C45   A    
C3    C32   S    
C4    C31   S    
C6    C30   A    
C33   C35   T    
O20   V3    S    
O4    C2    A    
C27   H5    S    
C5    H3    S    
C41   C43   T    
C38   C40   T    
O4    V2    S    
C9    H7    S    
C1    C44   S    
C10   H8    S    
O11   V4    S    
C34   C47   S    
O16   C48   A    
C30   C51   S    
C50   H17   S    
O15   C47   A    
O6    C4    A    
O19   V4    S    
O1    V2    S    
C5    C21   A    
O14   V4    S    
O2    V1    S    
O13   V3    S    
H1    C23   S    
C50   H16   S    
C17   C31   A    
C15   C19   A    
C20   C28   A    
C18   C32   A    
C20   C22   A    
O17   V3    S    
O3    V1    S    
C28   H6    S    
C29   C49   S    
C6    H4    S    
O3    C1    A    
C52   H21   S    
C8    C45   S    
C9    C11   A    
C10   C12   A    
C17   C25   A    
C12   C14   A    
C6    C22   A    
C8    C30   A    
C1    O8    A    
C21   C23   A    
O8    V2    S    
C14   C16   A    
C13   H9    S    
C51   H23   S    
C8    C28   A    
C49   H19   S    
C24   C26   A    
O7    V1    S    
C51   C52   S    
C25   H13   S    
C46   O17   A    
C50   H15   S    
C42   C44   T    
O9    V2    S    
O10   V1    S    
O12   C48   A    
C16   C18   A    
O11   C47   A    
