data_mof_unit_64548.cif
_audit_creation_date              2012-12-10T19:04:24-0500
_audit_creation_method            fapswitch 2.2
_symmetry_space_group_name_H-M    P1
_symmetry_Int_Tables_number       1
_space_group_crystal_system       triclinic
_cell_length_a                    10.649824
_cell_length_b                    13.044401
_cell_length_c                    13.620337
_cell_angle_alpha                 85.647856
_cell_angle_beta                  90.080388
_cell_angle_gamma                 93.032957
_cell_volume                      1884.03978075

loop_
_atom_site_label
_atom_site_type_symbol
_atom_type_description
_atom_site_fract_x
_atom_site_fract_y
_atom_site_fract_z
_atom_type_partial_charge
C1    C     C_R   0.498531 0.481145 0.685199 0.903548
C2    C     C_1   0.497031 0.466108 0.788398 -0.190055
C3    C     C_2   0.449167 0.031374 0.479217 0.446534
C4    C     C_R   0.742796 0.499958 0.499954 0.850232
C5    C     C_2   0.537026 0.968328 0.517741 -0.325126
C6    C     C_1   0.526311 0.855203 0.516264 0.191910
C7    C     C_1   0.468716 0.144974 0.482862 -0.071706
C8    C     C_R   0.501311 0.518863 0.314798 0.891098
C9    C     C_R   0.257282 0.500582 0.500447 0.852454
C10   C     C_3   0.923742 0.434207 0.591213 -0.408687
C11   C     C_3   0.067874 0.434593 0.591506 -0.373906
C12   C     C_3   0.121164 0.502244 0.500957 0.111350
C13   C     C_3   0.925490 0.457384 0.404902 -0.415426
C14   C     C_3   0.935329 0.612884 0.505000 -0.435725
C15   C     C_3   0.879051 0.500827 0.500202 0.122096
C16   C     C_3   0.254366 0.056407 0.403097 0.114503
C17   C     C_3   0.141602 0.998825 0.360432 -0.861517
C18   C     C_3   0.149010 0.765704 0.573479 0.126379
C19   C     C_3   0.201110 0.809334 0.666468 -0.787758
C20   C     C_3   0.069549 0.457830 0.405425 -0.505400
C21   C     C_3   0.078722 0.614743 0.504660 0.367217
C22   C     C_1   0.502093 0.533932 0.211595 -0.191546
C23   C     C_2   0.502243 0.544711 0.020356 -0.160759
C24   C     C_2   0.495580 0.455393 0.979630 -0.163883
C25   C     C_1   0.496029 0.457285 0.875859 0.006795
C26   C     C_1   0.502420 0.542796 0.124131 0.004734
H1    H     H_    0.884216 0.353578 0.589942 0.182383
H2    H     H_    0.097330 0.354130 0.589596 0.171624
H3    H     H_    0.886099 0.377253 0.399384 0.194655
H4    H     H_    0.099010 0.377738 0.400447 0.203885
H5    H     H_    0.903488 0.662745 0.440676 0.138599
H6    H     H_    0.901475 0.645768 0.572726 0.202300
H7    H     H_    0.296130 0.111201 0.343826 0.150031
H8    H     H_    0.220595 0.099289 0.464747 0.139686
H9    H     H_    0.095721 0.945078 0.418261 0.238146
H10   H     H_    0.072389 0.054459 0.331988 0.211657
H11   H     H_    0.172082 0.954395 0.299084 0.261812
H12   H     H_    0.113548 0.659166 0.435571 0.044319
H13   H     H_    0.060345 0.803557 0.553333 0.118695
H14   H     H_    0.219924 0.783995 0.513826 0.184714
H15   H     H_    0.290380 0.773275 0.687641 0.258640
H16   H     H_    0.219951 0.893814 0.653205 0.212099
H17   H     H_    0.132161 0.793907 0.727590 0.245237
H18   H     H_    0.893402 0.504839 0.339135 0.165394
H19   H     H_    0.107824 0.504835 0.339482 0.162542
H20   H     H_    0.490164 0.382044 0.023442 0.157985
H21   H     H_    0.507741 0.618061 0.976546 0.159492
H22   H     H_    0.620796 0.001704 0.551102 0.116342
H23   H     H_    0.890348 0.464962 0.660056 0.167869
H24   H     H_    0.104919 0.464317 0.660941 0.195951
N1    N     N_1   0.479840 0.234530 0.484780 -0.091712
N2    N     N_1   0.520150 0.765470 0.515220 -0.104694
O1    O     O_R   0.492620 0.402510 0.634760 -0.607423
O2    O     O_3   0.126210 0.658131 0.590910 -0.604950
O3    O     O_R   0.505570 0.572960 0.644530 -0.601699
O4    O     O_R   0.678730 0.414780 0.495130 -0.619261
O5    O     O_R   0.691680 0.585220 0.504900 -0.628381
O6    O     O_R   0.494430 0.427040 0.355470 -0.604757
O7    O     O_R   0.507380 0.597490 0.365240 -0.607858
O8    O     O_R   0.308320 0.414780 0.495100 -0.631343
O9    O     O_R   0.321270 0.585220 0.504870 -0.592535
O10   O     O_3   0.342695 0.984960 0.437188 -0.613583
Zn1   Zn    Zn3+2 0.491360 0.386190 0.493470 0.953977
Zn2   Zn    Zn3+2 0.508640 0.613810 0.506530 0.972811

loop_
_geom_bond_atom_site_label_1
_geom_bond_atom_site_label_2
_ccdc_geom_bond_type
C4    O5    A    
C10   H1    S    
O9    Zn2   S    
C8    C22   S    
C18   H13   S    
C16   H8    S    
C17   H10   S    
C16   H7    S    
C20   H19   S    
C19   H16   S    
C14   H5    S    
C23   C24   D    
C9    O8    A    
C24   H20   S    
O3    Zn2   S    
C12   C20   S    
C4    C15   S    
C1    O3    A    
O4    Zn1   S    
C7    N1    T    
C11   H24   S    
C20   H4    S    
C4    O4    A    
O1    Zn1   S    
C8    O6    A    
O7    Zn2   S    
C5    C6    S    
C16   O10   S    
C11   H2    S    
O8    Zn1   S    
C9    O9    A    
C14   C21   S    
C13   H3    S    
C5    H22   S    
C19   H17   S    
C1    C2    S    
C2    C25   T    
C3    C7    S    
C10   C15   S    
C13   C15   S    
C8    O7    A    
C22   C26   T    
C21   O2    S    
C9    C12   S    
C23   C26   S    
C23   H21   S    
C10   C11   S    
C18   O2    S    
N1    Zn1   S    
C24   C25   S    
O5    Zn2   S    
C18   C19   S    
N2    Zn2   S    
C3    O10   S    
O6    Zn1   S    
C18   H14   S    
C1    O1    A    
C14   C15   S    
C17   H11   S    
C17   H9    S    
C13   C20   S    
C6    N2    T    
C10   H23   S    
C12   C21   S    
C13   H18   S    
C21   H12   S    
C19   H15   S    
C11   C12   S    
C14   H6    S    
C16   C17   S    
C3    C5    D    
