data_mof_unit_10035.cif
_audit_creation_date              2012-12-10T17:21:41-0500
_audit_creation_method            fapswitch 2.2
_symmetry_space_group_name_H-M    P1
_symmetry_Int_Tables_number       1
_space_group_crystal_system       triclinic
_cell_length_a                    10.731952
_cell_length_b                    10.785152
_cell_length_c                    9.608286
_cell_angle_alpha                 90.063122
_cell_angle_beta                  89.942981
_cell_angle_gamma                 92.48521
_cell_volume                      1111.07093269

loop_
_atom_site_label
_atom_site_type_symbol
_atom_type_description
_atom_site_fract_x
_atom_site_fract_y
_atom_site_fract_z
_atom_type_partial_charge
C1    C     C_R   0.495318 0.262642 0.499972 0.789890
C2    C     C_R   0.395798 0.061554 0.580631 0.107999
C3    C     C_R   0.486120 0.128521 0.499781 -0.106949
C4    C     C_R   0.259922 0.499312 0.499818 0.734238
C5    C     C_R   0.570184 0.066973 0.416332 -0.193944
C6    C     C_R   0.570116 0.939104 0.416528 -0.201386
C7    C     C_R   0.486685 0.870634 0.500893 -0.095291
C8    C     C_R   0.667650 0.663161 0.143610 -0.263027
C9    C     C_R   0.751881 0.741945 0.071886 0.006877
C10   C     C_R   0.750180 0.741880 0.927631 -0.197456
C11   C     C_R   0.666594 0.663629 0.856108 -0.202163
C12   C     C_3   0.877969 0.499215 0.498899 0.158284
C13   C     C_R   0.582024 0.580412 0.925245 0.218432
C14   C     C_R   0.582233 0.580302 0.074597 0.220068
C15   C     C_R   0.421655 0.423781 0.073861 -0.059014
C16   C     C_R   0.495525 0.737093 0.500228 0.768104
C17   C     C_R   0.421726 0.423776 0.926025 -0.059010
C18   C     C_R   0.739961 0.499672 0.499730 0.735081
C19   C     C_3   0.066565 0.383354 0.576988 -0.394910
C20   C     C_3   0.922687 0.383501 0.577010 -0.357270
C21   C     C_3   0.076700 0.617659 0.571169 -0.375977
C22   C     C_3   0.071252 0.495844 0.347361 -0.363458
C23   C     C_3   0.932998 0.617628 0.571596 -0.392897
C24   C     C_3   0.121730 0.499004 0.498965 0.161812
C25   C     C_2   0.841623 0.823788 0.149886 0.342730
C26   C     C_3   0.928599 0.496156 0.347334 -0.365279
C27   C     C_R   0.302066 0.121519 0.655669 -0.202214
C28   C     C_R   0.213391 0.053244 0.733200 -0.131044
C29   C     C_R   0.215242 0.924470 0.736303 -0.125096
C30   C     C_R   0.305356 0.863260 0.661276 -0.197998
C31   C     C_R   0.396809 0.930431 0.582343 0.108654
Cu1   Cu    Cu3+1 0.499990 0.499990 0.640660 0.922664
Cu2   Cu    Cu3+1 0.500010 0.500010 0.359340 0.930069
H1    H     H_    0.100816 0.382754 0.686293 0.166889
H2    H     H_    0.637773 0.893313 0.353050 0.134466
H3    H     H_    0.357384 0.361262 0.128945 0.136657
H4    H     H_    0.097420 0.297230 0.525890 0.154150
H5    H     H_    0.672937 0.670573 0.253355 0.189320
H6    H     H_    0.813876 0.802729 0.869161 0.178648
H7    H     H_    0.672933 0.672487 0.746459 0.204716
H8    H     H_    0.357495 0.361249 0.870910 0.131807
H9    H     H_    0.884018 0.297366 0.526212 0.152900
H10   H     H_    0.888356 0.383208 0.686382 0.178720
H11   H     H_    0.111152 0.622616 0.680332 0.168652
H12   H     H_    0.898661 0.578574 0.288630 0.163360
H13   H     H_    0.899367 0.621819 0.680994 0.171715
H14   H     H_    0.109052 0.577984 0.288330 0.180748
H15   H     H_    0.101634 0.411207 0.292644 0.167044
H16   H     H_    0.890570 0.411865 0.292249 0.177323
H17   H     H_    0.843554 0.820875 0.262803 0.035113
H18   H     H_    0.114613 0.701515 0.515501 0.158799
H19   H     H_    0.901581 0.701883 0.517288 0.142232
H20   H     H_    0.638219 0.118420 0.353019 0.155996
H21   H     H_    0.294287 0.220998 0.653072 0.133884
H22   H     H_    0.142141 0.100449 0.789852 0.142341
H23   H     H_    0.145491 0.871584 0.795539 0.151744
H24   H     H_    0.300564 0.763235 0.664141 0.154013
N1    N     N_R   0.501200 0.501210 0.147910 -0.191956
N2    N     N_R   0.501250 0.501290 0.852040 -0.195875
O1    O     O_R   0.499990 0.319640 0.618810 -0.574513
O2    O     O_R   0.500000 0.319660 0.381240 -0.572604
O3    O     O_R   0.317680 0.499970 0.618790 -0.597087
O4    O     O_R   0.317700 0.499990 0.381210 -0.583136
O5    O     O_R   0.500000 0.680340 0.618760 -0.599212
O6    O     O_R   0.500010 0.680360 0.381190 -0.584433
O7    O     O_R   0.682300 0.500010 0.618790 -0.596734
O8    O     O_R   0.682320 0.500030 0.381210 -0.602296
O9    O     O_2   0.914762 0.894966 0.089352 -0.553910

loop_
_geom_bond_atom_site_label_1
_geom_bond_atom_site_label_2
_ccdc_geom_bond_type
C8    C9    A    
C22   H15   S    
C6    C7    A    
C13   N2    A    
C29   H23   S    
C2    C3    A    
C18   O7    A    
C21   H11   S    
C19   H4    S    
C9    C10   A    
C15   H3    S    
Cu1   O7    S    
C20   H9    S    
C19   C20   S    
C4    O4    A    
C29   C30   A    
Cu2   O4    S    
C2    C27   A    
Cu1   Cu2   S    
C12   C20   S    
C22   H14   S    
C27   H21   S    
C9    C25   S    
C23   H13   S    
C13   C14   A    
C26   H16   S    
C11   C13   A    
C12   C23   S    
Cu2   O8    S    
C23   H19   S    
Cu2   N1    S    
C25   O9    D    
C8    H5    S    
C17   N2    A    
C14   N1    A    
C5    C6    A    
C5    H20   S    
C28   C29   A    
C28   H22   S    
C19   C24   S    
C22   C24   S    
C21   C23   S    
C30   C31   A    
C4    C24   S    
C15   N1    A    
C17   H8    S    
C21   C24   S    
C7    C31   A    
C10   C11   A    
Cu1   O1    S    
Cu2   O6    S    
C11   H7    S    
C3    C5    A    
C30   H24   S    
C4    O3    A    
Cu1   O3    S    
C21   H18   S    
C20   H10   S    
C6    H2    S    
Cu1   O5    S    
Cu2   O2    S    
C22   C26   S    
C1    O1    A    
C12   C18   S    
C27   C28   A    
C15   C17   A    
C25   H17   S    
C7    C16   S    
C8    C14   A    
C16   O6    A    
C16   O5    A    
Cu1   N2    S    
C1    C3    S    
C18   O8    A    
C10   H6    S    
C12   C26   S    
C2    C31   A    
C26   H12   S    
C19   H1    S    
C1    O2    A    
