data_mof_unit_68488.cif
_audit_creation_date              2012-12-11T18:21:59-0500
_audit_creation_method            fapswitch 2.2
_symmetry_space_group_name_H-M    P1
_symmetry_Int_Tables_number       1
_space_group_crystal_system       triclinic
_cell_length_a                    8.397708
_cell_length_b                    14.364982
_cell_length_c                    15.084703
_cell_angle_alpha                 95.327072
_cell_angle_beta                  98.212418
_cell_angle_gamma                 91.470549
_cell_volume                      1791.8729492

loop_
_atom_site_label
_atom_site_type_symbol
_atom_type_description
_atom_site_fract_x
_atom_site_fract_y
_atom_site_fract_z
_atom_type_partial_charge
Ba1   Ba    Ba6+2 0.833400 0.543310 0.453520 1.821107
Ba2   Ba    Ba6+2 0.356420 0.456770 0.546480 1.788728
C1    C     C_3   0.474616 0.863037 0.166330 0.184984
C2    C     C_3   0.531144 0.787043 0.227180 0.834753
C3    C     C_3   0.424471 0.293706 0.268108 0.709399
C4    C     C_3   0.344667 0.237471 0.180974 0.684180
C5    C     C_3   0.144463 0.191992 0.797660 0.828184
C6    C     C_3   0.206504 0.133993 0.874746 0.732860
C7    C     C_3   0.703168 0.211509 0.799649 0.968490
C8    C     C_3   0.647518 0.107464 0.802367 1.028626
C9    C     C_R   0.832722 0.440956 0.832840 0.002119
C10   C     C_R   0.899876 0.449780 0.926016 0.021219
C11   C     C_R   0.045884 0.463295 0.111425 -0.074284
C12   C     C_3   0.031741 0.764749 0.201389 0.849803
C13   C     C_R   0.896510 0.417505 0.082567 -0.049058
C14   C     C_R   0.817812 0.416592 0.994085 0.371407
C15   C     C_R   0.112040 0.474371 0.204983 0.082162
C16   C     C_R   0.262076 0.521219 0.228880 0.154099
C17   C     C_R   0.074330 0.521012 0.792513 0.068122
C18   C     C_R   0.139720 0.530639 0.886163 -0.031674
C19   C     C_R   0.056654 0.492649 0.952108 0.007879
C20   C     C_R   0.288218 0.577352 0.915705 -0.082259
C21   C     C_R   0.366356 0.578451 0.004108 0.386372
C22   C     C_R   0.284531 0.544745 0.071713 -0.082758
C23   C     C_3   0.025986 0.816621 0.117035 -0.306455
C24   C     C_R   0.128634 0.500906 0.045250 -0.040079
C25   C     C_R   0.350711 0.554058 0.164914 0.023022
C26   C     C_R   0.922506 0.474453 0.768406 -0.355345
C27   C     C_R   0.701467 0.936253 0.547193 0.004499
C28   C     C_R   0.504960 0.801638 0.504052 0.070639
C29   C     C_R   0.348048 0.770064 0.465808 0.184715
C30   C     C_R   0.241727 0.829477 0.423058 0.002649
C31   C     C_R   0.289710 0.920481 0.416071 -0.131810
C32   C     C_R   0.442580 0.956469 0.457694 -0.030696
C33   C     C_R   0.550759 0.897822 0.504421 -0.154638
C34   C     C_3   0.220052 0.767286 0.686415 0.947197
C35   C     C_R   0.639145 0.089051 0.494897 -0.112867
C36   C     C_R   0.748212 0.030811 0.543318 -0.074710
C37   C     C_R   0.683468 0.185398 0.495366 0.126894
C38   C     C_R   0.834331 0.220147 0.539116 -0.229465
C39   C     C_R   0.947487 0.162073 0.579970 0.004870
C40   C     C_R   0.904376 0.067758 0.584231 0.378526
C41   C     C_R   0.488922 0.049361 0.449593 0.440940
C42   C     C_3   0.242403 0.863522 0.741596 0.274107
C43   C     C_3   0.974615 0.239038 0.327053 0.930183
C44   C     C_3   0.972491 0.136376 0.288746 -0.228043
C45   C     C_3   0.742712 0.669040 0.720343 0.439530
C46   C     C_3   0.791231 0.699679 0.821042 0.605002
H1    H     H_    0.256585 0.185826 0.198420 0.008564
H2    H     H_    0.870156 0.467591 0.698225 0.051685
O1    O     O_2   0.841230 0.444160 0.280430 -0.459544
O2    O     O_3   0.685974 0.746328 0.677071 -0.604732
O3    O     O_3   0.973785 0.823699 0.268229 -0.569924
O4    O     O_2   0.348480 0.555870 0.719620 -0.473319
O5    O     O_3   0.076830 0.552730 0.606300 -0.490160
O6    O     O_3   0.591760 0.384380 0.672320 -0.472292
O7    O     O_3   0.158134 0.703526 0.738943 -0.666991
O8    O     O_3   0.629090 0.386350 0.459240 -0.502428
O9    O     O_3   0.172520 0.335290 0.628920 -0.490610
O10   O     O_2   0.269166 0.172528 0.565905 -0.437686
O11   O     O_3   0.247143 0.182490 0.732052 -0.566313
O12   O     O_3   0.112860 0.447350 0.393710 -0.465431
O13   O     O_3   0.560610 0.613730 0.540770 -0.466384
O14   O     O_2   0.387460 0.270290 0.467210 -0.411499
O15   O     O_3   0.516867 0.232008 0.318929 -0.585885
O16   O     O_2   0.494261 0.447748 0.822417 -0.420723
O17   O     O_3   0.577354 0.272859 0.813444 -0.500591
O18   O     O_3   0.597940 0.615700 0.327690 -0.450272
O19   O     O_2   0.684627 0.544159 0.175190 -0.393782
O20   O     O_3   0.031325 0.295384 0.266733 -0.686085
O21   O     O_3   0.595609 0.715736 0.174365 -0.548398
O22   O     O_2   0.802240 0.729740 0.532850 -0.459470
O23   O     O_3   0.017180 0.664790 0.371080 -0.404810
O24   O     O_2   0.917761 0.830286 0.432970 -0.429494
P1    P     P_3+3 0.018600 0.416790 0.295970 1.041609
P2    P     P_3+3 0.635660 0.716530 0.560900 1.075237
P3    P     P_3+3 0.038056 0.786600 0.374476 1.126152
P4    P     P_3+3 0.171090 0.583290 0.704030 1.020927
P5    P     P_3+3 0.152293 0.213012 0.627924 1.033815
P6    P     P_3+3 0.555445 0.606174 0.210490 1.160713
P7    P     P_3+3 0.556312 0.269477 0.434756 1.076650
P8    P     P_3+3 0.626891 0.387402 0.788542 1.122505
O25   O     O_3   0.652774 0.823774 0.295613 -0.676327
H3    H     H_    0.605247 0.873024 0.332648 0.292024
O26   O     O_3   0.351360 0.860867 0.820922 -0.757208
H4    H     H_    0.291937 0.832440 0.864705 0.314031
H5    H     H_    0.289493 0.915507 0.700674 0.121049
H6    H     H_    0.124285 0.887197 0.758476 0.060001
O27   O     O_3   0.819002 0.261891 0.336725 -0.768172
H7    H     H_    0.762806 0.263526 0.274346 0.316905
O28   O     O_3   0.075325 0.248625 0.409948 -0.728654
H8    H     H_    0.043646 0.304133 0.446073 0.308694
H9    H     H_    0.898995 0.126028 0.220979 0.081440
H10   H     H_    0.919983 0.091058 0.333919 0.083189
H11   H     H_    0.095911 0.113885 0.282787 0.082407
H12   H     H_    0.848438 0.642153 0.691626 -0.062176
H13   H     H_    0.647760 0.612384 0.712459 -0.042222
H14   H     H_    0.579833 0.893403 0.140061 0.089587
O29   O     O_3   0.918304 0.767235 0.833538 -0.729974
H15   H     H_    0.958141 0.775418 0.899061 0.297120
H16   H     H_    0.830927 0.637673 0.855700 -0.065012
O30   O     O_3   0.659141 0.735210 0.858877 -0.761609
H17   H     H_    0.646996 0.800456 0.843066 0.368779
H18   H     H_    0.426400 0.762030 0.257428 -0.207018
O31   O     O_3   0.400581 0.933489 0.214499 -0.751403
H19   H     H_    0.371182 0.981398 0.172307 0.330837
H20   H     H_    0.328970 0.323129 0.304487 -0.104178
O32   O     O_3   0.523492 0.364670 0.244615 -0.775733
H21   H     H_    0.564247 0.404533 0.300450 0.311330
O33   O     O_3   0.264744 0.297272 0.122468 -0.752445
H22   H     H_    0.195703 0.256694 0.074502 0.350082
O34   O     O_3   0.459968 0.187858 0.138863 -0.729386
H23   H     H_    0.528005 0.234333 0.114994 0.335727
H24   H     H_    0.387255 0.831051 0.108393 0.000434
H25   H     H_    0.081396 0.774552 0.064762 0.011366
O35   O     O_3   0.143490 0.285994 0.832472 -0.651901
H26   H     H_    0.086670 0.319901 0.784240 0.252649
H27   H     H_    0.022230 0.163574 0.769395 -0.080898
O36   O     O_3   0.346554 0.177820 0.924327 -0.621538
H28   H     H_    0.384880 0.135819 0.970777 0.331626
O37   O     O_3   0.088920 0.126722 0.931422 -0.752621
H29   H     H_    0.118339 0.074161 0.968110 0.275344
H30   H     H_    0.233353 0.062888 0.845330 -0.029234
O38   O     O_3   0.836170 0.234237 0.866916 -0.764141
H31   H     H_    0.799091 0.230914 0.926103 0.334600
O39   O     O_3   0.746880 0.218162 0.714054 -0.805354
H32   H     H_    0.831696 0.268307 0.718946 0.232440
O40   O     O_3   0.767423 0.047425 0.777704 -0.773960
H33   H     H_    0.850811 0.045610 0.831000 0.320819
O41   O     O_3   0.505549 0.085804 0.741768 -0.677930
H34   H     H_    0.533192 0.084579 0.679870 0.309834
O42   O     O_3   0.933268 0.683169 0.182169 -0.662211
H35   H     H_    0.976492 0.644256 0.134129 0.247839
O43   O     O_3   0.617755 0.092566 0.889360 -0.740803
H36   H     H_    0.581720 0.025908 0.887418 0.337341
H37   H     H_    0.834800 0.383488 0.129197 0.094775
O44   O     O_3   0.659572 0.383659 0.974795 -0.690632
H38   H     H_    0.618289 0.368484 0.030361 0.326005
O45   O     O_3   0.524583 0.610886 0.023373 -0.693801
H39   H     H_    0.568680 0.620710 0.967302 0.333423
H40   H     H_    0.350053 0.612553 0.870003 0.107618
O46   O     O_3   0.325456 0.536254 0.317350 -0.761492
H41   H     H_    0.353386 0.475155 0.338433 0.292567
O47   O     O_3   0.292243 0.682312 0.475977 -0.698530
H42   H     H_    0.348118 0.641434 0.436195 0.346795
H43   H     H_    0.204151 0.961888 0.378024 0.099948
O48   O     O_3   0.017609 0.013771 0.627935 -0.748417
H44   H     H_    0.962792 0.977125 0.667752 0.313947
H45   H     H_    0.158503 0.746575 0.222435 -0.220179
H46   H     H_    0.864636 0.293986 0.541100 0.038637
H47   H     H_    0.783068 0.892175 0.583561 0.145620
O49   O     O_3   0.392289 0.097747 0.390296 -0.696339
H48   H     H_    0.286660 0.102465 0.411829 0.318913
H49   H     H_    0.899210 0.829365 0.089783 0.136888
H50   H     H_    0.093312 0.884972 0.133452 0.099899
O50   O     O_3   0.367413 0.739881 0.663845 -0.737676
H51   H     H_    0.431182 0.725056 0.720818 0.316105
O51   O     O_3   0.111067 0.777131 0.608940 -0.736849
H52   H     H_    0.094390 0.715040 0.574424 0.353225

loop_
_geom_bond_atom_site_label_1
_geom_bond_atom_site_label_2
_ccdc_geom_bond_type
O18   P6    S    
C19   C24   A    
O10   P5    D    
O39   H32   S    
C23   H50   S    
C39   C40   A    
O31   H19   S    
O48   H44   S    
C22   C25   A    
O22   P2    D    
Ba1   O12   S    
C7    O38   S    
C8    O41   S    
C5    C6    S    
C12   O42   S    
O26   H4    S    
C1    O31   S    
C44   H9    S    
C28   C33   A    
O25   H3    S    
C21   O45   S    
O50   H51   S    
C22   C24   A    
C32   C33   A    
Ba2   O5    S    
C23   H25   S    
C28   C29   A    
C6    O37   S    
C27   H47   S    
O13   P2    S    
C13   C14   A    
Ba1   O18   S    
O32   H21   S    
C20   H40   S    
Ba1   Ba2   S    
C29   O47   S    
O33   H22   S    
C5    O11   S    
C30   P3    S    
C26   H2    S    
C44   H11   S    
C10   C14   A    
O42   H35   S    
O24   P3    D    
C27   C36   A    
C43   O28   S    
C21   C22   A    
C42   H5    S    
C43   O27   S    
C7    C8    S    
C34   O51   S    
C23   H49   S    
C4    H1    S    
O40   H33   S    
C4    O33   S    
C5    H27   S    
C8    O40   S    
C40   O48   S    
Ba1   O13   S    
O34   H23   S    
Ba2   O14   S    
C31   C32   A    
C9    P8    S    
O45   H39   S    
Ba1   O22   S    
C32   C41   A    
Ba1   P1    S    
C16   O46   S    
C37   P7    S    
C3    O15   S    
C25   P6    S    
Ba2   O4    S    
O8    P7    S    
O9    P5    S    
O28   H8    S    
O5    P4    S    
Ba2   O9    S    
C13   H37   S    
C43   C44   S    
C10   C19   A    
C5    O35   S    
C35   C41   A    
C17   P4    S    
O3    P3    S    
C7    O17   S    
C35   C36   A    
Ba2   P4    S    
O16   P8    D    
C28   P2    S    
O15   P7    S    
C45   C46   S    
C44   H10   S    
C45   H12   S    
C46   O30   S    
C15   C16   A    
C38   H46   S    
O49   H48   S    
O36   H28   S    
C17   C26   A    
Ba1   O1    S    
O37   H29   S    
C45   O2    S    
C38   C39   A    
C18   C20   A    
C34   O7    S    
C11   C13   A    
O51   H52   S    
C11   C24   A    
C34   C42   S    
C1    C2    S    
C37   C38   A    
Ba2   O13   S    
C34   O50   S    
C3    H20   S    
C46   O29   S    
C14   O44   S    
C43   O20   S    
C20   C21   A    
Ba1   P2    S    
C4    O34   S    
O7    P4    S    
C29   C30   A    
C16   C25   A    
C8    O43   S    
O1    P1    D    
O47   H42   S    
O2    P2    S    
C1    H24   S    
C39   P5    S    
O21   P6    S    
C9    C10   A    
Ba2   O8    S    
C6    H30   S    
O6    P8    S    
O43   H36   S    
O44   H38   S    
C27   C33   A    
C7    O39   S    
C45   H13   S    
O29   H15   S    
C11   C15   A    
Ba1   O23   S    
C30   C31   A    
C17   C18   A    
O41   H34   S    
Ba1   O5    S    
C35   C37   A    
Ba2   O6    S    
Ba1   O8    S    
C1    H14   S    
C3    C4    S    
C2    O25   S    
C9    C26   A    
O11   P5    S    
C46   H16   S    
C2    H18   S    
C12   H45   S    
O35   H26   S    
C12   C23   S    
O30   H17   S    
O12   P1    S    
O14   P7    D    
C31   H43   S    
C36   C40   A    
Ba2   O12   S    
C12   O3    S    
C18   C19   A    
O17   P8    S    
O20   P1    S    
C15   P1    S    
O23   P3    S    
O46   H41   S    
O19   P6    D    
O27   H7    S    
C42   H6    S    
C2    O21   S    
C41   O49   S    
C42   O26   S    
C6    O36   S    
O38   H31   S    
O4    P4    D    
C3    O32   S    
