data_mof_unit_9658.cif
_audit_creation_date              2012-12-11T15:42:51-0500
_audit_creation_method            fapswitch 2.2
_symmetry_space_group_name_H-M    P1
_symmetry_Int_Tables_number       1
_space_group_crystal_system       triclinic
_cell_length_a                    6.931535
_cell_length_b                    14.557772
_cell_length_c                    16.194518
_cell_angle_alpha                 90.428477
_cell_angle_beta                  89.974432
_cell_angle_gamma                 90.038002
_cell_volume                      1634.10544972

loop_
_atom_site_label
_atom_site_type_symbol
_atom_type_description
_atom_site_fract_x
_atom_site_fract_y
_atom_site_fract_z
_atom_type_partial_charge
O1    O     O_R   0.505810 0.583360 0.413880 -0.540693
O2    O     O_R   0.175870 0.595480 0.585520 -0.543423
O3    O     O_R   0.005540 0.416640 0.586120 -0.541104
C1    C     C_R   0.344940 0.617650 0.614659 0.687110
O4    O     O_R   0.176100 0.594390 0.414490 -0.543445
O5    O     O_R   0.005770 0.415540 0.413870 -0.541251
C2    C     C_R   0.345233 0.616474 0.385727 0.686429
O6    O     O_R   0.505580 0.584460 0.586130 -0.540734
O7    O     O_3   0.339190 0.441320 0.500000 -0.369075
V1    V     V_3+5 0.064350 0.510890 0.500000 1.399809
O8    O     O_R   0.676050 0.404520 0.414480 -0.544236
C3    C     C_R   0.845119 0.382082 0.385721 0.685082
O9    O     O_R   0.675830 0.405610 0.585510 -0.539841
C4    C     C_R   0.845040 0.383665 0.613722 0.747005
V2    V     V_3+5 0.564340 0.489110 0.500000 1.403043
O10   O     O_3   0.839370 0.558680 0.500000 -0.371737
C5    C     C_2   0.720500 0.208875 0.786042 -0.129058
C6    C     C_2   0.885785 0.181797 0.822553 -0.311589
H1    H     H_    0.584473 0.180155 0.806943 0.136936
C7    C     C_2   0.708069 0.277332 0.718109 -0.134562
C8    C     C_2   0.861593 0.315450 0.680511 -0.309209
H2    H     H_    0.563950 0.296303 0.698244 0.134958
H3    H     H_    0.006861 0.297159 0.698507 0.129471
C9    C     C_R   0.047424 0.222947 0.219427 -0.156727
H4    H     H_    0.188264 0.204343 0.195715 0.116856
C10   C     C_R   0.036147 0.286938 0.284225 -0.151162
H5    H     H_    0.168881 0.315826 0.308271 0.118961
C11   C     C_R   0.856403 0.313310 0.317343 -0.045504
C12   C     C_R   0.688252 0.273936 0.283794 -0.156563
H6    H     H_    0.547413 0.292540 0.307507 0.116787
C13   C     C_R   0.699530 0.209944 0.218995 -0.150947
H7    H     H_    0.566797 0.181056 0.194949 0.118970
C14   C     C_R   0.879274 0.183572 0.185878 -0.045556
C15   C     C_R   0.188307 0.723597 0.718976 -0.155917
H8    H     H_    0.047436 0.705481 0.694998 0.116181
C16   C     C_R   0.199668 0.785797 0.785318 -0.150046
H9    H     H_    0.066943 0.813919 0.810063 0.118413
C17   C     C_R   0.379381 0.811487 0.819026 -0.047933
C18   C     C_R   0.547395 0.773144 0.784350 -0.155557
H10   H     H_    0.688266 0.791266 0.808323 0.116168
C19   C     C_R   0.536033 0.710941 0.718010 -0.149651
H11   H     H_    0.668758 0.682822 0.693262 0.118355
C20   C     C_R   0.356321 0.685256 0.684298 -0.048076
C21   C     C_R   0.188465 0.723246 0.283837 -0.155778
H12   H     H_    0.047633 0.704923 0.307540 0.116640
C22   C     C_R   0.199698 0.786359 0.219096 -0.150539
H13   H     H_    0.066955 0.814833 0.195129 0.118758
C23   C     C_R   0.379362 0.812406 0.185925 -0.047050
C24   C     C_R   0.547473 0.773530 0.219439 -0.155771
H14   H     H_    0.688299 0.791858 0.195733 0.116614
C25   C     C_R   0.536239 0.710414 0.284183 -0.150576
H15   H     H_    0.668975 0.681937 0.308154 0.118665
C26   C     C_R   0.356571 0.684370 0.317353 -0.047107
O11   O     O_R   0.230120 0.912300 0.917180 -0.540765
O12   O     O_R   0.559740 0.902430 0.088770 -0.543439
O13   O     O_R   0.729930 0.081310 0.089370 -0.541121
C27   C     C_R   0.390642 0.880310 0.117556 0.686782
O14   O     O_R   0.559840 0.901330 0.917750 -0.543480
O15   O     O_R   0.730030 0.080210 0.917120 -0.536976
C28   C     C_R   0.390764 0.879121 0.888642 0.686620
O16   O     O_R   0.230020 0.913400 0.089430 -0.540689
O17   O     O_3   0.396460 0.055470 0.003290 -0.369206
V3    V     V_3+5 0.671360 0.985960 0.003250 1.401464
O18   O     O_R   0.059740 0.091300 0.917690 -0.544417
C29   C     C_R   0.891041 0.113235 0.889463 0.746722
O19   O     O_R   0.059640 0.092400 0.088720 -0.544254
C30   C     C_R   0.890570 0.114801 0.117500 0.685339
V4    V     V_3+5 0.171350 0.007820 0.003190 1.400467
O20   O     O_3   0.896380 0.938200 0.003220 -0.371605
H16   H     H_    0.023507 0.209820 0.803766 0.127763

loop_
_geom_bond_atom_site_label_1
_geom_bond_atom_site_label_2
_ccdc_geom_bond_type
O5    V1    S    
C23   C24   A    
O2    C1    A    
O8    C3    A    
C13   C14   A    
C6    H16   S    
C12   H6    S    
O1    V2    S    
C1    C20   S    
O13   C30   A    
C19   H11   S    
C10   C11   A    
C9    C14   A    
O9    V2    S    
O17   V4    S    
C1    O6    A    
O18   C29   A    
C16   C17   A    
O19   C30   A    
O7    V2    S    
O13   V3    S    
C23   C27   S    
C18   C19   A    
O3    V1    S    
O11   C28   A    
O9    C4    A    
C9    H4    S    
C6    C29   S    
C27   O16   A    
C19   C20   A    
O16   V4    S    
C10   H5    S    
O17   V3    S    
O3    C4    A    
O8    V2    S    
C3    C11   S    
C17   C28   S    
O18   V4    S    
C4    C8    S    
C16   H9    S    
C5    H1    S    
C7    H2    S    
C5    C6    D    
O6    V2    S    
C15   C16   A    
O12   C27   A    
C8    H3    S    
O5    C3    A    
C17   C18   A    
C15   H8    S    
C22   C23   A    
O11   V4    S    
O19   V4    S    
C2    C26   S    
C18   H10   S    
O14   C28   A    
V2    O10   S    
O2    V1    S    
V3    O20   S    
O4    V1    S    
C5    C7    S    
C7    C8    D    
C14   C30   S    
C9    C10   A    
C12   C13   A    
C24   H14   S    
O7    V1    S    
C15   C20   A    
O14   V3    S    
O4    C2    A    
C22   H13   S    
C11   C12   A    
V1    O10   S    
C24   C25   A    
O1    C2    A    
O15   V3    S    
C21   C26   A    
C13   H7    S    
O15   C29   A    
C21   H12   S    
C25   H15   S    
C21   C22   A    
V4    O20   S    
C25   C26   A    
O12   V3    S    
