data_mof_unit_14433.cif
_audit_creation_date              2012-12-11T16:28:06-0500
_audit_creation_method            fapswitch 2.2
_symmetry_space_group_name_H-M    P1
_symmetry_Int_Tables_number       1
_space_group_crystal_system       triclinic
_cell_length_a                    30.342136
_cell_length_b                    22.515342
_cell_length_c                    18.160837
_cell_angle_alpha                 89.428042
_cell_angle_beta                  123.901146
_cell_angle_gamma                 90.165983
_cell_volume                      10297.110052

loop_
_atom_site_label
_atom_site_type_symbol
_atom_type_description
_atom_site_fract_x
_atom_site_fract_y
_atom_site_fract_z
_atom_type_partial_charge
C1    C     C_R   0.543556 0.582219 0.740982 -0.120518
C2    C     C_R   0.616007 0.273574 0.414659 -0.163874
C3    C     C_R   0.799861 0.635574 0.019166 0.013426
C4    C     C_R   0.304410 0.881385 0.041308 0.022774
C5    C     C_R   0.776031 0.305507 0.188474 0.030713
C6    C     C_R   0.770574 0.713707 0.166018 0.018208
C7    C     C_R   0.226812 0.301760 0.816836 0.024306
C8    C     C_R   0.855249 0.356663 0.068156 -0.230470
C9    C     C_R   0.221731 0.823114 0.152515 -0.287787
C10   C     C_R   0.144814 0.354218 0.930536 -0.223757
C11   C     C_R   0.848334 0.661040 0.044217 -0.274766
C12   C     C_R   0.355203 0.859452 0.074123 -0.220005
C13   C     C_R   0.737830 0.585515 0.538859 -0.120307
C14   C     C_R   0.724644 0.326775 0.154296 -0.282363
C15   C     C_R   0.721633 0.688522 0.138944 -0.235320
C16   C     C_R   0.277924 0.323517 0.850660 -0.282039
C17   C     C_R   0.593698 0.581027 0.423362 -0.191180
C18   C     C_R   0.425034 0.391284 0.576601 -0.173973
C19   C     C_R   0.404701 0.582217 0.573073 -0.162335
C20   C     C_R   0.573979 0.390185 0.425820 -0.163463
C21   C     C_R   0.094152 0.081854 0.424469 -0.186827
C22   C     C_R   0.921979 0.894257 0.577171 -0.173222
C23   C     C_R   0.906783 0.085175 0.574740 -0.186289
C24   C     C_R   0.362997 0.286210 0.579212 -0.161153
C25   C     C_R   0.083478 0.898012 0.425793 -0.183893
C26   C     C_R   0.393986 0.609400 0.293603 -0.102464
C27   C     C_R   0.618403 0.420008 0.744736 -0.103808
C28   C     C_R   0.617571 0.580779 0.743590 -0.094341
C29   C     C_R   0.381527 0.421996 0.254528 -0.085157
C30   C     C_R   0.894389 0.109665 0.293538 -0.099175
C31   C     C_R   0.118313 0.922694 0.746733 -0.065389
C32   C     C_R   0.105570 0.109425 0.705738 -0.100085
C33   C     C_R   0.887244 0.902412 0.272108 -0.117635
C34   C     C_R   0.596887 0.596969 0.792028 0.034266
C35   C     C_R   0.790036 0.092219 0.534424 -0.136052
C36   C     C_R   0.401454 0.406521 0.204778 0.036547
C37   C     C_R   0.421799 0.640927 0.265584 0.037407
C38   C     C_R   0.598585 0.404816 0.795174 0.042086
C39   C     C_R   0.078086 0.139897 0.734756 0.035429
C40   C     C_R   0.912160 0.876497 0.235059 0.038793
C41   C     C_R   0.922463 0.141017 0.265873 0.034972
C42   C     C_R   0.098182 0.906404 0.796195 0.031585
C43   C     C_R   0.643731 0.593580 0.494055 -0.006235
C44   C     C_R   0.387533 0.358818 0.504693 -0.024489
C45   C     C_R   0.354480 0.594703 0.498650 -0.016028
C46   C     C_R   0.119932 0.764731 0.464593 -0.161167
C47   C     C_R   0.611981 0.357646 0.499246 -0.010144
C48   C     C_R   0.144313 0.094267 0.496018 -0.006770
C49   C     C_R   0.881832 0.864563 0.505385 -0.020592
C50   C     C_R   0.858683 0.102752 0.501794 -0.021318
C51   C     C_R   0.125735 0.870747 0.499475 -0.031154
C52   C     C_R   0.225166 0.667782 0.420884 0.041153
C53   C     C_R   0.690331 0.215125 0.573536 0.026353
C54   C     C_R   0.719403 0.680684 0.424874 0.036217
C55   C     C_R   0.326580 0.206962 0.438330 0.040828
C56   C     C_R   0.752997 0.206296 0.463239 0.040541
C57   C     C_R   0.237614 0.085394 0.536513 -0.122850
C58   C     C_R   0.230473 0.760347 0.551540 0.037439
C59   C     C_R   0.219767 0.184136 0.428082 0.041652
C60   C     C_R   0.839507 0.705212 0.471225 0.036846
C61   C     C_R   0.268395 0.645727 0.423106 -0.184905
C62   C     C_R   0.661968 0.263755 0.573874 -0.185745
C63   C     C_R   0.677238 0.655111 0.423532 -0.242022
C64   C     C_R   0.353752 0.258388 0.442580 -0.188760
C65   C     C_R   0.796240 0.182603 0.466658 -0.210937
C66   C     C_R   0.205596 0.813984 0.542695 -0.186180
C67   C     C_R   0.178204 0.160144 0.430327 -0.247219
C68   C     C_R   0.840074 0.804764 0.563852 -0.158652
C69   C     C_R   0.862148 0.758547 0.467963 -0.206455
C70   C     C_R   0.307583 0.612584 0.496199 0.164389
C71   C     C_R   0.629883 0.297514 0.496102 0.153662
C72   C     C_R   0.686993 0.610736 0.485314 0.148638
C73   C     C_R   0.368316 0.300145 0.509275 0.163531
C74   C     C_R   0.814730 0.126163 0.502404 0.162519
C75   C     C_R   0.150690 0.816081 0.500160 0.149380
C76   C     C_R   0.187624 0.112979 0.488072 0.147770
C77   C     C_R   0.860027 0.808785 0.510953 0.169759
C78   C     C_R   0.260398 0.624120 0.566850 -0.187489
C79   C     C_R   0.641377 0.223028 0.413221 -0.178693
C80   C     C_R   0.780501 0.612425 0.543234 -0.201074
C81   C     C_R   0.455015 0.420492 0.256469 -0.144307
C82   C     C_R   0.337221 0.234485 0.576512 -0.197230
C83   C     C_R   0.745816 0.114975 0.529447 -0.187421
C84   C     C_R   0.144330 0.711097 0.470682 -0.191032
C85   C     C_R   0.279679 0.109871 0.536160 -0.216561
C86   C     C_R   0.816758 0.752404 0.565820 -0.191186
C87   C     C_R   0.223405 0.660534 0.495981 0.093264
C88   C     C_R   0.682971 0.198293 0.493121 0.098875
C89   C     C_R   0.771425 0.662023 0.489820 0.105313
C90   C     C_R   0.316066 0.196816 0.503453 0.101374
C91   C     C_R   0.727009 0.171851 0.493565 0.108223
C92   C     C_R   0.466911 0.607224 0.291144 -0.123649
C93   C     C_R   0.199463 0.708966 0.513651 0.105101
C94   C     C_R   0.271184 0.160330 0.484262 0.110468
C95   C     C_R   0.813954 0.703854 0.515722 0.104908
C96   C     C_R   0.407279 0.700452 0.222201 0.121453
C97   C     C_R   0.631286 0.389082 0.890968 0.135536
C98   C     C_R   0.629284 0.614361 0.886112 0.120814
C99   C     C_R   0.369008 0.390194 0.109666 0.137165
C100  C     C_R   0.908312 0.200410 0.222203 0.122037
C101  C     C_R   0.130508 0.890670 0.892038 0.135500
C102  C     C_R   0.092833 0.198391 0.779510 0.120673
C103  C     C_R   0.545076 0.419624 0.743713 -0.137859
C104  C     C_R   0.894362 0.822929 0.179424 0.136207
C105  C     C_R   0.421974 0.782533 0.150698 -0.189946
C106  C     C_R   0.640610 0.365049 0.029732 -0.195953
C107  C     C_R   0.639364 0.642267 0.023381 -0.193469
C108  C     C_R   0.360822 0.363766 0.973250 -0.199546
C109  C     C_R   0.922200 0.280298 0.146588 -0.194520
C110  C     C_R   0.138263 0.862535 0.028274 -0.199911
C111  C     C_R   0.078096 0.278230 0.852390 -0.193223
C112  C     C_R   0.910160 0.742973 0.108202 -0.198231
C113  C     C_R   0.438447 0.728726 0.197350 -0.163117
C114  C     C_R   0.033209 0.106120 0.709510 -0.124001
C115  C     C_R   0.609223 0.383923 0.941201 -0.167371
C116  C     C_R   0.607970 0.620037 0.937261 -0.162179
C117  C     C_R   0.391538 0.384064 0.060430 -0.168583
C118  C     C_R   0.938799 0.227133 0.194776 -0.163992
C119  C     C_R   0.107514 0.882867 0.940456 -0.166221
C120  C     C_R   0.061527 0.225581 0.804446 -0.163083
C121  C     C_R   0.925255 0.796969 0.152672 -0.173822
C122  C     C_R   0.361067 0.729094 0.204089 -0.227840
C123  C     C_R   0.685673 0.377795 0.932477 -0.270827
C124  C     C_R   0.682905 0.627472 0.924439 -0.235561
C125  C     C_R   0.960729 0.904524 0.272220 -0.127951
C126  C     C_R   0.314685 0.378408 0.068306 -0.270773
C127  C     C_R   0.862964 0.230245 0.205730 -0.228932
C128  C     C_R   0.185260 0.880786 0.934892 -0.266853
C129  C     C_R   0.139391 0.227025 0.799105 -0.228608
C130  C     C_R   0.848897 0.793440 0.161910 -0.265383
C131  C     C_R   0.345173 0.784706 0.161094 0.087880
C132  C     C_R   0.718650 0.363595 0.023022 0.081071
C133  C     C_R   0.715722 0.645810 0.012074 0.088624
C134  C     C_R   0.282311 0.362224 0.978806 0.079660
C135  C     C_R   0.846753 0.285073 0.160480 0.087312
C136  C     C_R   0.967291 0.107064 0.291376 -0.122937
C137  C     C_R   0.217471 0.864407 0.024776 0.078014
C138  C     C_R   0.155244 0.281798 0.843035 0.087352
C139  C     C_R   0.836439 0.736327 0.126457 0.080179
C140  C     C_R   0.374443 0.809306 0.129139 0.143054
C141  C     C_R   0.694708 0.352484 0.069752 0.185326
C142  C     C_R   0.692407 0.658010 0.059194 0.150612
C143  C     C_R   0.306935 0.350453 0.933532 0.186130
C144  C     C_R   0.875119 0.307831 0.125704 0.147238
C145  C     C_R   0.192566 0.850729 0.069297 0.187932
C146  C     C_R   0.125778 0.305108 0.874940 0.143714
C147  C     C_R   0.044529 0.919713 0.743399 -0.136286
C148  C     C_R   0.865328 0.713080 0.093343 0.181241
C149  C     C_R   0.297460 0.812885 0.139850 0.033247
C150  C     C_R   0.773789 0.352898 0.064875 -0.006967
C151  C     C_R   0.769276 0.660930 0.048264 0.034600
C152  C     C_R   0.227284 0.350467 0.936891 -0.009264
C153  C     C_R   0.799315 0.313879 0.139356 0.031718
C154  C     C_R   0.272745 0.853788 0.067603 -0.008092
C155  C     C_R   0.202833 0.310499 0.864574 0.034610
C156  C     C_R   0.792669 0.704368 0.115097 -0.004733
C157  C     C_R   0.645348 0.579601 0.570262 0.220238
C158  C     C_R   0.302352 0.599590 0.566597 -0.154668
C159  C     C_R   0.371670 0.392302 0.428790 0.226951
C160  C     C_R   0.354295 0.577998 0.425575 0.170731
C161  C     C_R   0.629164 0.393138 0.573553 0.199656
C162  C     C_R   0.145780 0.078361 0.571509 0.179665
C163  C     C_R   0.867387 0.896702 0.429290 0.192102
C164  C     C_R   0.856018 0.084035 0.427428 0.192244
C165  C     C_R   0.135548 0.899934 0.573661 0.234003
C166  C     C_R   0.804534 0.378680 0.035462 0.022187
C167  C     C_R   0.273271 0.802288 0.187077 0.029639
C168  C     C_R   0.195458 0.376548 0.963516 0.022197
H1    H     H_    0.516884 0.580178 0.762691 0.086643
H2    H     H_    0.335080 0.705861 0.217012 0.134510
H3    H     H_    0.712032 0.171058 0.686248 0.110956
H4    H     H_    0.690920 0.763275 0.377880 0.128325
H5    H     H_    0.684424 0.715286 0.301423 0.101344
H6    H     H_    0.280953 0.192179 0.306538 0.128968
H7    H     H_    0.337953 0.152486 0.362862 0.109240
H8    H     H_    0.727166 0.268650 0.366648 0.098351
H9    H     H_    0.768570 0.294214 0.470903 0.116713
H10   H     H_    0.296225 0.787711 0.558534 0.104417
H11   H     H_    0.305044 0.774423 0.657755 0.128876
H12   H     H_    0.195627 0.269407 0.393661 0.123858
H13   H     H_    0.298314 0.377401 0.107743 0.140059
H14   H     H_    0.181738 0.225268 0.308485 0.112368
H15   H     H_    0.818826 0.660760 0.359956 0.128647
H16   H     H_    0.880353 0.645130 0.449575 0.107399
H17   H     H_    0.698197 0.629347 0.883383 0.143928
H18   H     H_    0.202262 0.881160 0.896402 0.143140
H19   H     H_    0.837717 0.208371 0.221516 0.137365
H20   H     H_    0.822352 0.815635 0.174083 0.133262
H21   H     H_    0.165554 0.204350 0.786400 0.138375
H22   H     H_    0.567496 0.392274 0.911782 0.110543
H23   H     H_    0.474622 0.708615 0.210994 0.112250
H24   H     H_    0.433197 0.392702 0.089792 0.111371
H25   H     H_    0.480975 0.424294 0.233495 0.089022
H26   H     H_    0.566798 0.609799 0.909984 0.111744
H27   H     H_    0.065511 0.890028 0.909925 0.113046
H28   H     H_    0.974373 0.206140 0.207222 0.112383
H29   H     H_    0.960837 0.818175 0.165351 0.113106
H30   H     H_    0.025111 0.205479 0.789805 0.115004
H31   H     H_    0.445454 0.802132 0.128680 0.127662
H32   H     H_    0.622208 0.358369 0.065953 0.121804
H33   H     H_    0.621565 0.649697 0.060257 0.121388
H34   H     H_    0.379653 0.356493 0.937978 0.121848
H35   H     H_    0.945010 0.298550 0.122401 0.125913
H36   H     H_    0.497634 0.618474 0.280807 0.092199
H37   H     H_    0.119150 0.853797 0.062909 0.122252
H38   H     H_    0.054450 0.296909 0.874340 0.126682
H39   H     H_    0.933410 0.724689 0.085235 0.126357
H40   H     H_    0.581714 0.577540 0.355208 0.111524
H41   H     H_    0.445048 0.378821 0.645619 0.114941
H42   H     H_    0.416420 0.581678 0.641273 0.103629
H43   H     H_    0.552763 0.377552 0.357275 0.109984
H44   H     H_    0.082497 0.079365 0.356408 0.112594
H45   H     H_    0.940825 0.882564 0.646274 0.117400
H46   H     H_    0.917590 0.083576 0.642407 0.110752
H47   H     H_    0.519366 0.423628 0.767076 0.085123
H48   H     H_    0.068835 0.888286 0.357971 0.113757
H49   H     H_    0.358360 0.622970 0.287969 0.123930
H50   H     H_    0.659438 0.428825 0.771461 0.138520
H51   H     H_    0.658577 0.571759 0.772127 0.137771
H52   H     H_    0.340651 0.433048 0.226465 0.145351
H53   H     H_    0.858829 0.123733 0.287138 0.126357
H54   H     H_    0.158689 0.936321 0.776291 0.140964
H55   H     H_    0.140378 0.124310 0.709948 0.132476
H56   H     H_    0.847060 0.896079 0.251354 0.141528
H57   H     H_    0.272904 0.658233 0.369988 0.131538
H58   H     H_    0.002903 0.116364 0.721050 0.093762
H59   H     H_    0.668117 0.277069 0.635908 0.148686
H60   H     H_    0.637567 0.672933 0.378782 0.122742
H61   H     H_    0.360720 0.267211 0.391144 0.139473
H62   H     H_    0.815909 0.208596 0.442486 0.118489
H63   H     H_    0.229111 0.854061 0.568201 0.149831
H64   H     H_    0.139216 0.180566 0.390641 0.123749
H65   H     H_    0.881167 0.761034 0.432305 0.117743
H66   H     H_    0.332036 0.573542 0.623271 0.113523
H67   H     H_    0.588970 0.295815 0.352140 0.112584
H68   H     H_    0.745078 0.547121 0.580354 0.169682
H69   H     H_    0.987718 0.900081 0.251817 0.085530
H70   H     H_    0.375066 0.317249 0.632385 0.116011
H71   H     H_    0.804441 0.048100 0.561614 0.127601
H72   H     H_    0.077224 0.766406 0.431791 0.126993
H73   H     H_    0.244584 0.045998 0.576081 0.163293
H74   H     H_    0.839929 0.843027 0.599438 0.125469
H75   H     H_    0.726467 0.088642 0.553764 0.133760
H76   H     H_    0.120315 0.672138 0.438486 0.130692
H77   H     H_    0.319202 0.091409 0.579407 0.140044
H78   H     H_    0.796734 0.751321 0.599993 0.140942
H79   H     H_    0.259787 0.619801 0.625741 0.130570
H80   H     H_    0.998118 0.117976 0.281179 0.092397
H81   H     H_    0.634410 0.209024 0.350621 0.133709
H82   H     H_    0.820559 0.597359 0.592152 0.140207
H83   H     H_    0.328744 0.227137 0.626506 0.135714
H84   H     H_    0.878224 0.376352 0.045154 0.142492
H85   H     H_    0.203583 0.814566 0.188802 0.129924
H86   H     H_    0.120967 0.374298 0.951176 0.144077
H87   H     H_    0.871361 0.641497 0.021601 0.140618
H88   H     H_    0.378889 0.880527 0.053516 0.145302
H89   H     H_    0.707235 0.320105 0.192132 0.131357
H90   H     H_    0.705215 0.695886 0.178007 0.138127
H91   H     H_    0.018282 0.923218 0.765746 0.088496
H92   H     H_    0.295842 0.316496 0.813835 0.134103
H93   H     H_    0.760708 0.455932 0.985703 0.121995
H94   H     H_    0.774053 0.420752 0.916796 0.144264
H95   H     H_    0.304420 0.806011 0.318546 0.114097
H96   H     H_    0.280637 0.738801 0.272749 0.103629
H97   H     H_    0.236917 0.455239 0.007479 0.125655
H98   H     H_    0.224842 0.420613 0.079224 0.149163
H99   H     H_    0.782439 0.588254 0.912328 0.151501
H100  H     H_    0.814474 0.549887 0.008889 0.124859
H101  H     H_    0.261448 0.959465 0.996134 0.124242
H102  H     H_    0.701856 0.375805 0.892836 0.137043
H103  H     H_    0.275280 0.927310 0.925932 0.150904
H104  H     H_    0.808427 0.312437 0.320074 0.108677
H105  H     H_    0.784478 0.244487 0.277905 0.117071
H106  H     H_    0.785596 0.785375 0.242759 0.151616
H107  H     H_    0.840019 0.740462 0.279572 0.105485
H108  H     H_    0.194968 0.307784 0.685155 0.117443
H109  H     H_    0.219812 0.240187 0.730669 0.127205
H110  H     H_    0.170228 0.680122 0.289954 0.123918
H111  H     H_    0.207418 0.740589 0.342785 0.094007
H112  H     H_    0.757591 0.219700 0.696401 0.133554
I1    I     I_    0.715760 0.575519 0.699801 -0.509275
I2    I     I_    0.296404 0.380215 0.307911 -0.468827
I3    I     I_    0.286474 0.550198 0.301666 -0.460338
I4    I     I_    0.708489 0.394125 0.687565 -0.500313
I5    I     I_    0.215611 0.063453 0.700318 -0.485428
I6    I     I_    0.787063 0.899784 0.319871 -0.438659
I7    I     I_    0.783044 0.069778 0.303681 -0.410288
I8    I     I_    0.206551 0.888492 0.701852 -0.487319
N1    N     N_R   0.532910 0.558440 0.665240 -0.041376
N2    N     N_R   0.402970 0.441090 0.454460 -0.053757
N3    N     N_R   0.402970 0.558910 0.454460 -0.058774
N4    N     N_R   0.597030 0.441090 0.545540 -0.054947
N5    N     N_R   0.097030 0.058910 0.545540 -0.059793
N6    N     N_R   0.902970 0.941090 0.454460 -0.054978
N7    N     N_R   0.902970 0.058910 0.454460 -0.062424
N8    N     N_R   0.097030 0.941090 0.545540 -0.060233
N9    N     N_R   0.566200 0.559270 0.454460 -0.049787
N10   N     N_R   0.433800 0.440730 0.545540 -0.050552
N11   N     N_R   0.433800 0.559270 0.545540 -0.049451
N12   N     N_R   0.467090 0.441560 0.334760 -0.042390
N13   N     N_R   0.566200 0.440730 0.454460 -0.050549
N14   N     N_R   0.066200 0.059270 0.454460 -0.049277
N15   N     N_R   0.933800 0.940730 0.545540 -0.049691
N16   N     N_R   0.933800 0.059270 0.545540 -0.049278
N17   N     N_R   0.066200 0.940730 0.454460 -0.050126
N18   N     N_R   0.421050 0.559750 0.334770 -0.036294
N19   N     N_R   0.578950 0.440250 0.665230 -0.041641
N20   N     N_R   0.578950 0.559750 0.665230 -0.039224
N21   N     N_R   0.421050 0.440250 0.334770 -0.042469
N22   N     N_R   0.921050 0.059750 0.334770 -0.036732
N23   N     N_R   0.467090 0.558440 0.334760 -0.041531
N24   N     N_R   0.078950 0.940250 0.665230 -0.042323
N25   N     N_R   0.078950 0.059750 0.665230 -0.037655
N26   N     N_R   0.921050 0.940250 0.334770 -0.039196
N27   N     N_3   0.788966 0.431948 0.982396 -0.217551
N28   N     N_3   0.302247 0.775406 0.273705 -0.216542
N29   N     N_3   0.209526 0.430722 0.012833 -0.203965
N30   N     N_3   0.784384 0.581044 0.971020 -0.218574
N31   N     N_3   0.289793 0.936313 0.992059 -0.203663
N32   N     N_3   0.805784 0.280527 0.276340 -0.219324
N33   N     N_3   0.799123 0.741813 0.250746 -0.220095
N34   N     N_R   0.532910 0.441560 0.665240 -0.041175
N35   N     N_3   0.197856 0.276107 0.730166 -0.216311
N36   N     N_3   0.187181 0.704871 0.348054 -0.215011
N37   N     N_3   0.730295 0.187236 0.655454 -0.220265
N38   N     N_3   0.710142 0.729613 0.366712 -0.198390
N39   N     N_3   0.306050 0.167667 0.364692 -0.216108
N40   N     N_3   0.736475 0.265985 0.431383 -0.208602
N41   N     N_3   0.286850 0.758652 0.593117 -0.212285
N42   N     N_3   0.210742 0.235726 0.374432 -0.198190
N43   N     N_3   0.840959 0.653010 0.428189 -0.219083
N44   N     N_R   0.032910 0.058440 0.665240 -0.042410
N45   N     N_R   0.967090 0.941560 0.334760 -0.041084
N46   N     N_R   0.967090 0.058440 0.334760 -0.042611
N47   N     N_R   0.032910 0.941560 0.665240 -0.043162
N48   N     N_R   0.597030 0.558910 0.545540 -0.058956
Ni1   Ni    Ni4+2 0.483090 0.500000 0.604440 0.203798
Ni2   Ni    Ni4+2 0.516910 0.500000 0.395560 0.206323
Ni3   Ni    Ni4+2 0.983090 1.000000 0.604440 0.205001
Ni4   Ni    Ni4+2 0.016910 0.000000 0.395560 0.208338
Ni5   Ni    Ni4+2 0.586780 0.500000 0.604440 0.249235
Ni6   Ni    Ni4+2 0.413220 0.500000 0.395560 0.260323
Ni7   Ni    Ni4+2 0.086780 1.000000 0.604440 0.254050
Ni8   Ni    Ni4+2 0.913220 0.000000 0.395560 0.269089

loop_
_geom_bond_atom_site_label_1
_geom_bond_atom_site_label_2
_ccdc_geom_bond_type
C61   C70   A    
C12   H88   S    
C31   C42   A    
C100  C127  A    
C132  C150  A    
H108  N35   S    
C133  C151  A    
C102  C120  A    
C59   N42   S    
C157  N48   A    
C124  C133  A    
C165  I8    S    
N12   Ni2   S    
C52   C61   A    
C64   H61   S    
C48   C162  A    
C54   C63   A    
C62   H59   S    
C101  C128  A    
C131  C140  A    
C134  C143  A    
C122  H2    S    
C149  C167  A    
H112  N37   S    
C127  H19   S    
C4    C12   A    
C110  C145  A    
C60   N43   S    
C21   C48   A    
H109  N35   S    
C45   C160  A    
C42   C147  A    
C109  C118  A    
C165  N8    A    
H12   N42   S    
C6    N33   S    
C25   N17   A    
H93   N27   S    
C7    N35   S    
C161  N4    A    
C35   H71   S    
N24   Ni7   S    
C37   C96   S    
H111  N36   S    
C17   C43   A    
C117  H24   S    
C18   C44   A    
C15   C142  A    
C109  H35   S    
H15   N43   S    
C41   C100  S    
C1    N1    A    
C84   H76   S    
N23   Ni2   S    
C111  H38   S    
C47   C71   S    
N6    N15   A    
C22   C49   A    
C46   C84   A    
C65   H62   S    
C123  H102  S    
C131  C149  A    
C2    C71   A    
C163  N6    A    
N8    Ni7   S    
C68   C77   A    
C164  I7    S    
N5    Ni7   S    
C17   H40   S    
C9    H85   S    
C14   H89   S    
C13   C72   A    
N4    Ni5   S    
C83   C91   A    
C52   N36   S    
C106  C115  A    
H96   N28   S    
C105  C140  A    
H7    N39   S    
C57   C85   A    
H107  N33   S    
C36   C99   S    
C119  H27   S    
C84   C93   A    
C114  N44   A    
C20   C47   A    
C3    C11   A    
C86   C95   A    
C81   H25   S    
C60   C95   A    
C105  H31   S    
C126  C134  A    
C27   H50   S    
C10   C168  A    
C44   C159  A    
H103  N31   S    
C164  N7    A    
C78   C87   A    
C123  C132  A    
C19   H42   S    
C48   C76   S    
C69   C77   A    
N13   Ni2   S    
C161  I4    S    
C98   C124  A    
C133  C142  A    
N48   Ni5   S    
N24   N47   A    
C167  N28   S    
N25   N44   A    
C105  C113  A    
N20   Ni5   S    
H110  N36   S    
C55   C90   A    
C50   C74   S    
H105  N32   S    
C16   H92   S    
C11   C148  A    
C150  C166  A    
C159  I2    S    
N2    Ni6   S    
C69   H65   S    
C59   C67   A    
C78   C158  A    
C129  H21   S    
C64   C73   A    
C30   C41   A    
N21   Ni6   S    
C23   N16   A    
N15   Ni3   S    
C109  C144  A    
C116  H26   S    
C163  I6    S    
C80   H82   S    
C85   H77   S    
C28   N20   A    
C46   C75   A    
C1    C34   A    
C99   C126  A    
C29   H52   S    
C17   N9    A    
C139  C148  A    
C33   C40   A    
C111  C146  A    
C66   H63   S    
C65   C74   A    
C58   N41   S    
N6    Ni8   S    
C33   H56   S    
C38   C103  A    
C99   C117  A    
H100  N30   S    
C120  H30   S    
H101  N31   S    
C88   C91   S    
C36   C81   A    
C53   N37   S    
N4    N13   A    
H3    N37   S    
H16   N43   S    
H8    N40   S    
N14   Ni4   S    
C10   C146  A    
C26   N18   A    
C51   C165  A    
C97   C115  A    
C42   C101  S    
C122  C131  A    
C39   C102  S    
C106  H32   S    
C132  C141  A    
C8    H84   S    
C37   C92   A    
C108  C117  A    
C168  N29   S    
C112  H39   S    
C43   C157  A    
C110  C119  A    
C19   C45   A    
N18   N23   A    
C21   H44   S    
C159  N2    A    
C112  C121  A    
C97   C123  A    
C158  H66   S    
N22   Ni8   S    
H6    N39   S    
C60   C69   A    
C138  C146  A    
N9    Ni2   S    
C87   C93   S    
C49   C77   S    
C62   C71   A    
C110  H37   S    
C147  H91   S    
C107  C116  A    
C49   C163  A    
N18   Ni6   S    
N46   Ni4   S    
C22   H45   S    
C126  H13   S    
H104  N32   S    
H5    N38   S    
N1    Ni1   S    
C6    C156  A    
C92   N23   A    
C138  C155  A    
C4    C154  A    
C35   C74   A    
C103  N34   A    
N2    N10   A    
H99   N30   S    
N19   Ni5   S    
H106  N33   S    
C128  H18   S    
N17   Ni4   S    
C137  C145  A    
C58   C93   A    
C127  C135  A    
C107  H33   S    
N3    Ni6   S    
C24   C73   A    
C27   C38   A    
N8    N17   A    
C83   H75   S    
C136  H80   S    
C21   N14   A    
C32   C39   A    
C80   C89   A    
C57   H73   S    
C2    C79   A    
N12   N21   A    
C56   C91   A    
C150  C153  A    
C11   H87   S    
C12   C140  A    
C59   C94   A    
C162  N5    A    
C118  H28   S    
C92   H36   S    
C13   C80   A    
C28   C34   A    
C104  C130  A    
C26   H49   S    
C29   N21   A    
C130  C139  A    
N44   Ni3   S    
C79   C88   A    
C152  C168  A    
C90   C94   S    
C30   H53   S    
C25   H48   S    
C18   H41   S    
C81   N12   A    
C35   C83   A    
C23   C50   A    
C50   C164  A    
N25   Ni7   S    
C70   C158  A    
N19   N34   A    
C89   C95   S    
C149  C154  A    
C114  H58   S    
C31   H54   S    
C152  C155  A    
C134  C152  A    
C16   C143  A    
C151  C156  A    
C5    C14   A    
C15   H90   S    
C7    C16   A    
C67   H64   S    
C28   H51   S    
C18   N10   A    
C96   C113  A    
H98   N29   S    
C100  C118  A    
C103  H47   S    
C32   H55   S    
C125  H69   S    
C106  C141  A    
C45   C70   S    
C10   H86   S    
H94   N27   S    
C56   N40   S    
N26   Ni8   S    
C26   C37   A    
C63   H60   S    
C20   N13   A    
C82   C90   A    
N16   Ni3   S    
C96   C122  A    
C22   N15   A    
C32   N25   A    
C66   C75   A    
C9    C145  A    
C34   C98   S    
C27   N19   A    
C137  C154  A    
C44   C73   S    
C47   C161  A    
C162  I5    S    
C7    C155  A    
C63   C72   A    
C108  C143  A    
C56   C65   A    
C5    N32   S    
C23   H46   S    
C147  N47   A    
C43   C72   S    
C160  I3    S    
C68   C86   A    
C54   N38   S    
C102  C129  A    
N9    N48   A    
N1    N20   A    
C29   C36   A    
H97   N29   S    
C125  N45   A    
C51   C75   S    
C124  H17   S    
C130  H20   S    
C20   H43   S    
C40   C125  A    
C166  N27   S    
C3    N30   S    
C24   C82   A    
C108  H34   S    
N26   N45   A    
C6    C15   A    
C115  H22   S    
C58   C66   A    
C129  C138  A    
C68   H74   S    
C46   H72   S    
N3    N11   A    
C14   C141  A    
C86   H78   S    
C79   H81   S    
N10   Ni1   S    
N7    Ni8   S    
C38   C97   S    
C113  H23   S    
C101  C119  A    
C82   H83   S    
C9    C167  A    
C54   C89   A    
C104  C121  A    
N45   Ni4   S    
H14   N42   S    
C55   N39   S    
C112  C148  A    
C111  C120  A    
H9    N40   S    
C128  C137  A    
C25   C51   A    
H4    N38   S    
C33   N26   A    
C40   C104  S    
C85   C94   A    
C98   C116  A    
C39   C114  A    
C55   C64   A    
C78   H79   S    
C8    C144  A    
C107  C142  A    
C136  N46   A    
C30   N22   A    
C4    N31   S    
C121  H29   S    
C8    C166  A    
C135  C144  A    
C57   C76   A    
C13   H68   S    
N11   Ni1   S    
C160  N3    A    
H95   N28   S    
C24   H70   S    
C157  I1    S    
H10   N41   S    
C52   C87   A    
C31   N24   A    
C3    C151  A    
C135  C153  A    
N34   Ni1   S    
N47   Ni3   S    
C61   H57   S    
C139  C156  A    
C5    C153  A    
C1    H1    S    
C19   N11   A    
C53   C88   A    
C2    H67   S    
C53   C62   A    
C67   C76   A    
N5    N14   A    
C41   C136  A    
H11   N41   S    
N7    N16   A    
N22   N46   A    
