data_mof_unit_34741.cif
_audit_creation_date              2013-03-05T15:40:48-0500
_audit_creation_method            fapswitch 2.2
_symmetry_space_group_name_H-M    P1
_symmetry_Int_Tables_number       1
_space_group_crystal_system       triclinic
_cell_length_a                    7.930187
_cell_length_b                    8.695073
_cell_length_c                    14.938926
_cell_angle_alpha                 93.717155
_cell_angle_beta                  86.229427
_cell_angle_gamma                 92.556108
_cell_volume                      1024.85808722

loop_
_atom_site_label
_atom_site_type_symbol
_atom_site_description
_atom_site_fract_x
_atom_site_fract_y
_atom_site_fract_z
_atom_type_partial_charge
O1    O     O_R   0.389250 0.738570 0.505970 -0.601301
O2    O     O_R   0.610750 0.261430 0.494030 -0.601301
O3    O     O_R   0.678390 0.711620 0.490370 -0.597282
O4    O     O_R   0.321610 0.288380 0.509630 -0.597283
C1    C     C_R   0.543521 0.792869 0.496986 0.885920
C2    C     C_R   0.456479 0.207131 0.503015 0.885923
O5    O     O_R   0.355420 0.513510 0.639950 -0.629881
O6    O     O_R   0.644580 0.486490 0.360050 -0.629880
O7    O     O_R   0.644560 0.486560 0.624350 -0.654141
O8    O     O_R   0.355440 0.513440 0.375650 -0.654141
C3    C     C_R   0.501950 0.500602 0.672613 0.874133
C4    C     C_R   0.498050 0.499399 0.327387 0.874131
Zn1   Zn    Zn3+2 0.306940 0.517990 0.510420 1.005050
Zn2   Zn    Zn3+2 0.693060 0.482010 0.489580 1.005050
C5    C     C_R   0.358523 0.432727 0.188144 -0.187179
C6    C     C_R   0.641476 0.567277 0.811856 -0.187175
C7    C     C_R   0.495970 0.500076 0.231683 -0.064088
C8    C     C_R   0.504030 0.499927 0.768317 -0.064085
C9    C     C_R   0.635405 0.564785 0.184036 -0.169889
C10   C     C_R   0.364594 0.435222 0.815965 -0.169899
C11   C     C_R   0.637517 0.565698 0.091624 0.098409
C12   C     C_R   0.362481 0.434312 0.908376 0.098400
C13   C     C_R   0.499071 0.498515 0.046575 0.040459
C14   C     C_R   0.500927 0.501495 0.953425 0.040463
C15   C     C_R   0.359246 0.428231 0.094818 0.009264
C16   C     C_R   0.640753 0.571778 0.905183 0.009272
C17   C     C_R   0.775152 0.635114 0.044313 -0.204598
C18   C     C_R   0.224844 0.364900 0.955688 -0.204609
C19   C     C_R   0.776913 0.641659 0.951387 0.310152
C20   C     C_R   0.223084 0.358355 0.048613 0.310176
H1    H     H_    0.252981 0.383140 0.227480 0.175080
H2    H     H_    0.747019 0.616861 0.772520 0.175080
H3    H     H_    0.741139 0.616901 0.219268 0.164108
H4    H     H_    0.258859 0.383105 0.780732 0.164108
H5    H     H_    0.879472 0.688557 0.080022 0.194366
H6    H     H_    0.120523 0.311460 0.919979 0.194363
C21   C     C_2   0.567136 0.954836 0.501713 -0.025466
C22   C     C_2   0.432864 0.045164 0.498289 -0.025463
N1    N     N_2   0.950330 0.457950 0.475660 -0.024907
N2    N     N_2   0.049670 0.542050 0.524340 -0.024907
N3    N     N_R   0.913450 0.725381 0.906004 0.194126
O9    O     O_R   0.068029 0.710487 0.927455 -0.390847
O10   O     O_R   0.880521 0.840055 0.859055 -0.384119
N4    N     N_R   0.086545 0.274641 0.093997 0.194130
O11   O     O_R   0.931972 0.289561 0.072556 -0.390867
O12   O     O_R   0.119461 0.159957 0.140938 -0.384116
N5    N     N_R   0.735739 0.013805 0.516909 0.225330
O13   O     O_R   0.857383 0.982668 0.456711 -0.310700
O14   O     O_R   0.771917 0.070186 0.596524 -0.343867
N6    N     N_R   0.264261 0.986195 0.483094 0.225331
O15   O     O_R   0.142618 0.017330 0.543293 -0.310700
O16   O     O_R   0.228080 0.929817 0.403479 -0.343869
C23   C     C_3   0.027233 0.398933 0.389997 -0.148735
C24   C     C_3   0.916498 0.282362 0.336901 -0.682139
H7    H     H_    0.815187 0.228912 0.379058 0.297346
H8    H     H_    0.863062 0.336461 0.280367 0.253306
H9    H     H_    0.994452 0.187259 0.306441 0.274372
H10   H     H_    0.060865 0.497123 0.347313 0.186292
H11   H     H_    0.138802 0.334925 0.402021 0.231427
C25   C     C_3   0.972767 0.601067 0.610003 -0.148733
C26   C     C_3   0.083503 0.717636 0.663100 -0.682139
H12   H     H_    0.136934 0.663536 0.719635 0.253298
H13   H     H_    0.184818 0.771082 0.620943 0.297346
H14   H     H_    0.005550 0.812742 0.693558 0.274376
H15   H     H_    0.861198 0.665075 0.597979 0.231427
H16   H     H_    0.939134 0.502876 0.652686 0.186291

loop_
_geom_bond_atom_site_label_1
_geom_bond_atom_site_label_2
_geom_bond_distance
_ccdc_geom_bond_type
C4    C7    1.431278 S    
C26   H14   1.110339 S    
N6    O16   1.301521 A    
O7    Zn2   2.022902 S    
C2    C22   1.410225 S    
C3    C8    1.431279 S    
C5    H1    1.080606 S    
C21   C22   1.356557 D    
C22   N6    1.437296 S    
C23   H10   1.111112 S    
C1    C21   1.410226 S    
C17   C19   1.392181 A    
O7    C3    1.306676 A    
N3    O9    1.301288 A    
N5    O13   1.300085 A    
O6    C4    1.301643 A    
C10   H4    1.085671 S    
C18   C20   1.392181 A    
N6    O15   1.300084 A    
C11   C17   1.396512 A    
C25   H16   1.111112 S    
N5    O14   1.301520 A    
C12   C18   1.396505 A    
C23   C24   1.528285 S    
C24   H9    1.110339 S    
O5    C3    1.301641 A    
N3    O10   1.300889 A    
C20   N4    1.434934 S    
N1    C23   1.453630 S    
O3    Zn2   2.004262 S    
O8    C4    1.306676 A    
O1    C1    1.293338 A    
C12   C14   1.410155 A    
O4    C2    1.302771 A    
C7    C9    1.392422 A    
N4    O12   1.300862 A    
C25   H15   1.096633 S    
C8    C10   1.392418 A    
C11   C13   1.410153 A    
C23   H11   1.096632 S    
C26   H12   1.109279 S    
O2    Zn2   2.002052 S    
C24   H8    1.109278 S    
C19   N3    1.434959 S    
C5    C15   1.391853 A    
C21   N5    1.437298 S    
C10   C12   1.380064 A    
C13   C14   1.392580 A    
N1    N2    1.280316 D    
O3    C1    1.302772 A    
O5    Zn1   2.000663 S    
C13   C15   1.419140 A    
O1    Zn1   2.002050 S    
N4    O11   1.301234 A    
C18   H6    1.084669 S    
C16   C19   1.413045 A    
C6    C8    1.393180 A    
C9    H3    1.085669 S    
N2    C25   1.453630 S    
C5    C7    1.393178 A    
C6    H2    1.080603 S    
C15   C20   1.413034 A    
Zn1   N2    2.055737 S    
O6    Zn2   2.000665 S    
C17   H5    1.084673 S    
Zn2   N1    2.055736 S    
C24   H7    1.093707 S    
O8    Zn1   2.022903 S    
C26   H13   1.093706 S    
O2    C2    1.293338 A    
O4    Zn1   2.004264 S    
C14   C16   1.419142 A    
C25   C26   1.528287 S    
C9    C11   1.380066 A    
C6    C16   1.391856 A    
