data_mof_unit_43773.cif
_audit_creation_date              2012-12-11T16:33:28-0500
_audit_creation_method            fapswitch 2.2
_symmetry_space_group_name_H-M    P1
_symmetry_Int_Tables_number       1
_space_group_crystal_system       triclinic
_cell_length_a                    6.945913
_cell_length_b                    18.258414
_cell_length_c                    20.126731
_cell_angle_alpha                 68.358625
_cell_angle_beta                  90.541129
_cell_angle_gamma                 90.810942
_cell_volume                      2372.31252301

loop_
_atom_site_label
_atom_site_type_symbol
_atom_type_description
_atom_site_fract_x
_atom_site_fract_y
_atom_site_fract_z
_atom_type_partial_charge
O1    O     O_R   0.488960 0.443750 0.941980 -0.535221
O2    O     O_R   0.823890 0.406510 0.087590 -0.536660
O3    O     O_R   0.999680 0.556250 0.058020 -0.535945
C1    C     C_R   0.654993 0.383392 0.114956 0.696074
O4    O     O_R   0.818360 0.434410 0.944340 -0.538283
O5    O     O_R   0.994110 0.584350 0.913750 -0.536205
C2    C     C_R   0.648772 0.420188 0.923958 0.718650
O6    O     O_R   0.494530 0.415650 0.086250 -0.535354
O7    O     O_3   0.662590 0.549160 0.990130 -0.368236
V1    V     V_3+5 0.935320 0.490880 0.001830 1.442136
O8    O     O_R   0.324180 0.593490 0.912410 -0.539494
C3    C     C_R   0.155437 0.616486 0.884926 0.690372
O9    O     O_R   0.329720 0.565590 0.055660 -0.540162
C4    C     C_R   0.162028 0.580002 0.075949 0.722624
V2    V     V_3+5 0.435990 0.509120 0.998170 1.435735
O10   O     O_3   0.158850 0.450840 0.009870 -0.365104
C5    C     C_3   0.078637 0.704449 0.313715 -0.123464
C6    C     C_3   0.260895 0.693894 0.274400 -0.129936
H1    H     H_    0.366383 0.645596 0.295898 0.122254
H2    H     H_    0.033477 0.665233 0.368132 0.124972
H3    H     H_    0.452224 0.808525 0.254976 0.114366
C7    C     C_1   0.155429 0.626570 0.120821 -0.186590
C8    C     C_1   0.110625 0.875421 0.377277 -0.189075
C9    C     C_3   0.958635 0.721417 0.244390 -0.138956
C10   C     C_3   0.140802 0.711419 0.205688 0.161015
C11   C     C_3   0.005706 0.810584 0.221668 -0.137637
C12   C     C_3   0.125804 0.792987 0.290399 0.161288
C13   C     C_3   0.187986 0.799992 0.182310 -0.130282
C14   C     C_3   0.307988 0.783048 0.251676 -0.149215
C15   C     C_1   0.149103 0.665068 0.158797 -0.054583
C16   C     C_1   0.117268 0.838260 0.338176 -0.068377
H4    H     H_    0.232798 0.839181 0.127844 0.120670
H5    H     H_    0.900363 0.858908 0.200095 0.119129
H6    H     H_    0.814390 0.695886 0.241190 0.113543
H7    H     H_    0.001736 0.527036 0.689452 0.116426
C17   C     C_R   0.225989 0.774113 0.879529 -0.143508
C18   C     C_R   0.252781 0.848928 0.880829 -0.178293
C19   C     C_R   0.226782 0.914605 0.819202 -0.103960
C20   C     C_R   0.176522 0.906948 0.754679 0.335695
C21   C     C_R   0.157205 0.830225 0.750529 -0.004752
C22   C     C_R   0.177503 0.762921 0.815484 0.034329
C23   C     C_R   0.116409 0.817819 0.685525 -0.183397
C24   C     C_R   0.086471 0.740102 0.686841 0.053909
C25   C     C_R   0.098950 0.674284 0.752330 0.074758
C26   C     C_R   0.145591 0.685618 0.816434 -0.158264
C27   C     C_R   0.044956 0.726294 0.623289 -0.143255
C28   C     C_R   0.014349 0.650205 0.624581 -0.104975
C29   C     C_R   0.025248 0.586087 0.688703 -0.115363
C30   C     C_R   0.067678 0.597606 0.751928 -0.147270
H8    H     H_    0.243320 0.725124 0.929727 0.111191
H9    H     H_    0.290143 0.856065 0.930465 0.142644
H10   H     H_    0.242649 0.972508 0.822038 0.161207
H11   H     H_    0.035689 0.773902 0.571797 0.087633
H12   H     H_    0.982359 0.640983 0.575474 0.120115
H13   H     H_    0.076753 0.545640 0.800279 0.103764
C31   C     C_R   0.586994 0.095567 0.249856 -0.205276
C32   C     C_R   0.577602 0.082144 0.185687 0.186310
C33   C     C_R   0.589151 0.146989 0.120839 -0.088632
C34   C     C_R   0.610482 0.223243 0.120329 -0.180998
C35   C     C_R   0.621399 0.237471 0.184637 0.060114
C36   C     C_R   0.609409 0.172356 0.250709 0.047097
C37   C     C_R   0.644533 0.315073 0.183903 -0.148031
C38   C     C_R   0.656444 0.327378 0.249404 0.067130
C39   C     C_R   0.644544 0.262166 0.315567 0.005448
C40   C     C_R   0.620738 0.184714 0.316208 -0.136416
C41   C     C_R   0.680069 0.404049 0.250433 -0.220347
C42   C     C_R   0.691777 0.416091 0.314840 -0.155939
C43   C     C_R   0.680142 0.352372 0.379523 0.453874
C44   C     C_R   0.656701 0.276142 0.380108 -0.180711
H14   H     H_    0.577348 0.044809 0.299312 0.100838
H15   H     H_    0.581808 0.139715 0.069954 0.174150
H16   H     H_    0.618879 0.270953 0.068790 0.111767
H17   H     H_    0.689854 0.455462 0.201574 0.123331
H18   H     H_    0.709965 0.475304 0.314318 0.147662
H19   H     H_    0.648110 0.228266 0.431535 0.120491
O11   O     O_R   0.770540 0.084530 0.414050 -0.540752
O12   O     O_R   0.445710 0.065660 0.555720 -0.515024
O13   O     O_R   0.270420 0.915650 0.586190 -0.527284
C45   C     C_R   0.615075 0.079733 0.576395 0.762030
O14   O     O_R   0.441140 0.093540 0.412470 -0.542029
O15   O     O_R   0.265820 0.943740 0.441930 -0.543887
C46   C     C_R   0.610089 0.116538 0.385161 0.676698
O16   O     O_R   0.775150 0.056440 0.558310 -0.513281
O17   O     O_3   0.602370 0.950960 0.510050 -0.380472
V3    V     V_3+5 0.329450 0.009140 0.498150 1.513840
O18   O     O_R   0.935790 0.934280 0.444060 -0.547166
C47   C     C_R   0.103633 0.920475 0.423433 0.696723
O19   O     O_R   0.940370 0.906390 0.587310 -0.533223
C48   C     C_R   0.108744 0.884519 0.615641 0.806357
V4    V     V_3+5 0.828810 0.990710 0.501460 1.490142
O20   O     O_3   0.105780 0.049100 0.489960 -0.348299
C49   C     C_3   0.775836 0.302295 0.732212 -0.198316
C50   C     C_3   0.606593 0.298118 0.682763 -0.087283
H20   H     H_    0.586412 0.338351 0.626381 0.182357
H21   H     H_    0.894856 0.346522 0.716946 0.134049
H22   H     H_    0.323420 0.317248 0.739285 0.137500
C51   C     C_1   0.624653 0.125154 0.622119 -0.079188
C52   C     C_1   0.638597 0.374158 0.878755 -0.175478
C53   C     C_3   0.800284 0.211658 0.757253 -0.155298
C54   C     C_3   0.630781 0.208144 0.708482 0.085263
C55   C     C_3   0.655506 0.200602 0.818044 0.444310
C56   C     C_3   0.631658 0.290074 0.793279 0.086329
C57   C     C_3   0.486297 0.195659 0.769504 -0.162949
C58   C     C_3   0.462495 0.286332 0.744452 -0.201370
C59   C     C_1   0.628825 0.162682 0.660905 0.053096
C60   C     C_1   0.633972 0.336074 0.840440 0.018618
H23   H     H_    0.367704 0.151238 0.785049 0.151603
H24   H     H_    0.939136 0.180504 0.762751 0.152902
Cl1   Cl    Cl    0.127060 0.997625 0.685062 -0.681621
Cl2   Cl    Cl    0.694948 0.367905 0.460449 -0.680953
C61   C     C_3   0.555246 0.997561 0.190237 -0.401006
C62   C     C_3   0.557469 0.985901 0.118809 -0.711710
H25   H     H_    0.433219 0.015897 0.085083 0.245793
H26   H     H_    0.694563 0.008705 0.090204 0.255075
H27   H     H_    0.546069 0.922030 0.128677 0.206216
H28   H     H_    0.674173 0.962382 0.223837 0.177808
H29   H     H_    0.417522 0.973028 0.217684 0.189504
Cl3   Cl    Cl    0.687497 0.135470 0.908332 -0.684169

loop_
_geom_bond_atom_site_label_1
_geom_bond_atom_site_label_2
_ccdc_geom_bond_type
C25   C30   A    
C55   C56   S    
C2    C52   S    
C12   C14   S    
C61   C62   S    
C1    O6    A    
C62   H26   S    
V3    O20   S    
C10   C13   S    
C53   H24   S    
C11   C12   S    
C18   C19   A    
C55   Cl3   S    
C17   C18   A    
C9    C11   S    
O5    C3    A    
C19   C20   A    
C18   H9    S    
C33   H15   S    
C19   H10   S    
V2    O10   S    
C1    C37   S    
C5    H2    S    
C31   C32   A    
C35   C37   A    
C6    H1    S    
O8    V2    S    
C37   C38   A    
C28   C29   A    
C43   C44   A    
C56   C60   S    
C61   H28   S    
O1    V2    S    
O7    V1    S    
C49   C56   S    
C34   H16   S    
C51   C59   T    
C21   C23   A    
C41   C42   A    
C38   C41   A    
O12   V3    S    
C34   C35   A    
C55   C57   S    
C8    C47   S    
O9    C4    A    
C17   C22   A    
C6    C10   S    
O17   V4    S    
H7    C29   S    
C50   C58   S    
C62   H25   S    
O12   C45   A    
O13   C48   A    
C5    C9    S    
C12   C16   S    
C42   C43   A    
C5    C12   S    
C13   H4    S    
C9    C10   S    
O14   C46   A    
O18   V4    S    
O11   C46   A    
C20   C21   A    
C42   H18   S    
O18   C47   A    
C33   C34   A    
C30   H13   S    
C41   H17   S    
H3    C14   S    
C54   C57   S    
C9    H6    S    
C35   C36   A    
C8    C16   T    
O2    C1    A    
C24   C25   A    
O14   V3    S    
C11   H5    S    
C53   C54   S    
C40   C46   S    
C5    C6    S    
C54   C59   S    
C6    C14   S    
C43   Cl2   S    
C39   C44   A    
O17   V3    S    
C56   C58   S    
C50   C54   S    
O15   C47   A    
O3    C4    A    
C28   H12   S    
O13   V3    S    
C21   C22   A    
C53   C55   S    
O19   V4    S    
O6    V2    S    
C31   H14   S    
H22   C58   S    
C23   C24   A    
V4    O20   S    
O2    V1    S    
C17   H8    S    
C25   C26   A    
O4    C2    A    
C10   C15   S    
O16   V4    S    
C27   C28   A    
C13   C14   S    
C7    C15   T    
O1    C2    A    
C45   C51   S    
C3    C26   S    
O5    V1    S    
O8    C3    A    
C50   H20   S    
C11   C13   S    
C52   C60   T    
C61   H29   S    
C23   C48   S    
C39   C40   A    
C4    C7    S    
O9    V2    S    
O7    V2    S    
O4    V1    S    
O3    V1    S    
V1    O10   S    
C45   O16   A    
C32   C33   A    
C32   C61   S    
C29   C30   A    
C27   H11   S    
C49   C50   S    
C44   H19   S    
C49   H21   S    
C24   C27   A    
C38   C39   A    
C36   C40   A    
C20   Cl1   S    
O19   C48   A    
C57   C58   S    
C22   C26   A    
C31   C36   A    
C57   H23   S    
C62   H27   S    
O15   V3    S    
C49   C53   S    
O11   V4    S    
