data_mof_unit_15447.cif
_audit_creation_date              2012-12-11T17:28:22-0500
_audit_creation_method            fapswitch 2.2
_symmetry_space_group_name_H-M    P1
_symmetry_Int_Tables_number       1
_space_group_crystal_system       triclinic
_cell_length_a                    24.220081
_cell_length_b                    24.257274
_cell_length_c                    25.553421
_cell_angle_alpha                 90.495455
_cell_angle_beta                  89.629586
_cell_angle_gamma                 90.114873
_cell_volume                      15012.0670949

loop_
_atom_site_label
_atom_site_type_symbol
_atom_type_description
_atom_site_fract_x
_atom_site_fract_y
_atom_site_fract_z
_atom_type_partial_charge
C1    C     C_R   0.639178 0.425117 0.428612 -0.140313
C2    C     C_R   0.375319 0.438585 0.406107 -0.129968
C3    C     C_R   0.690591 0.233783 0.372914 0.219366
C4    C     C_R   0.763783 0.703356 0.601847 0.198094
C5    C     C_R   0.330053 0.389302 0.244306 0.206047
C6    C     C_R   0.703527 0.237207 0.607527 0.214637
C7    C     C_R   0.365600 0.706615 0.272963 0.204476
C8    C     C_R   0.294566 0.633783 0.271548 0.204433
C9    C     C_R   0.767647 0.313721 0.623044 0.218666
C10   C     C_R   0.382512 0.304140 0.257364 0.215399
C11   C     C_R   0.689798 0.757358 0.644715 0.208305
C12   C     C_R   0.766000 0.297784 0.393432 0.199854
C13   C     C_R   0.442087 0.623393 0.595354 -0.132021
C14   C     C_R   0.324429 0.606803 0.755899 0.224042
C15   C     C_R   0.609304 0.670940 0.244987 0.193689
C16   C     C_R   0.297049 0.236701 0.605883 0.202007
C17   C     C_R   0.741009 0.811958 0.143530 0.207542
C18   C     C_R   0.197070 0.121367 0.759400 0.230896
C19   C     C_R   0.886440 0.185646 0.250603 0.193862
C20   C     C_R   0.191292 0.733993 0.873586 0.234103
C21   C     C_R   0.263189 0.204269 0.101785 0.198242
C22   C     C_R   0.832070 0.888758 0.743234 0.206550
C23   C     C_R   0.198556 0.734095 0.108810 0.214323
C24   C     C_R   0.574224 0.360750 0.428709 -0.140095
C25   C     C_R   0.854888 0.217446 0.784963 0.212844
C26   C     C_R   0.795225 0.135862 0.773674 0.203514
C27   C     C_R   0.267327 0.807724 0.116571 0.215646
C28   C     C_R   0.882582 0.802819 0.758232 0.215300
C29   C     C_R   0.188973 0.257602 0.145051 0.208484
C30   C     C_R   0.266920 0.797603 0.895340 0.179028
C31   C     C_R   0.823596 0.106186 0.255464 0.224333
C32   C     C_R   0.108477 0.167188 0.743110 0.175084
C33   C     C_R   0.797325 0.736691 0.105861 0.201671
C34   C     C_R   0.281077 0.349767 0.627081 -0.202294
C35   C     C_R   0.361445 0.426335 0.573191 -0.150336
C36   C     C_R   0.675018 0.600896 0.305520 -0.265402
C37   C     C_R   0.404130 0.667640 0.700668 -0.199380
C38   C     C_R   0.652576 0.274652 0.386965 -0.266150
C39   C     C_R   0.724229 0.663940 0.587020 -0.198585
C40   C     C_R   0.347506 0.408159 0.293456 -0.228511
C41   C     C_R   0.663712 0.274945 0.591108 -0.222820
C42   C     C_R   0.383141 0.687400 0.321660 -0.205947
C43   C     C_R   0.313526 0.615701 0.320224 -0.205349
C44   C     C_R   0.726968 0.350401 0.607153 -0.234670
C45   C     C_R   0.399156 0.324152 0.306164 -0.237533
C46   C     C_R   0.624856 0.558168 0.405837 -0.132759
C47   C     C_R   0.651634 0.717071 0.629120 -0.203068
C48   C     C_R   0.726878 0.337764 0.407580 -0.226355
C49   C     C_R   0.343408 0.588711 0.706862 -0.227155
C50   C     C_R   0.590830 0.652869 0.293956 -0.228535
C51   C     C_R   0.336742 0.275780 0.590700 -0.198558
C52   C     C_R   0.781692 0.849655 0.127942 -0.202473
C53   C     C_R   0.177054 0.103879 0.807796 -0.262802
C54   C     C_R   0.904617 0.166517 0.201411 -0.198914
C55   C     C_R   0.153211 0.774733 0.887573 -0.262904
C56   C     C_R   0.223892 0.164522 0.087098 -0.198384
C57   C     C_R   0.575078 0.361198 0.570815 -0.128279
C58   C     C_R   0.849239 0.908149 0.792329 -0.228999
C59   C     C_R   0.159552 0.773080 0.093380 -0.226096
C60   C     C_R   0.872466 0.196424 0.832921 -0.204514
C61   C     C_R   0.814272 0.115989 0.821577 -0.202133
C62   C     C_R   0.227364 0.845848 0.101710 -0.229954
C63   C     C_R   0.899061 0.823381 0.806869 -0.237868
C64   C     C_R   0.151075 0.217029 0.129557 -0.203053
C65   C     C_R   0.227392 0.837427 0.909890 -0.190886
C66   C     C_R   0.842730 0.088374 0.206427 -0.227162
C67   C     C_R   0.089518 0.148679 0.792042 -0.198092
C68   C     C_R   0.431817 0.632912 0.415978 -0.136333
C69   C     C_R   0.836927 0.775826 0.090622 -0.199087
C70   C     C_3   0.187785 0.330643 0.671103 -0.335865
C71   C     C_3   0.179488 0.392923 0.676831 -0.944085
C72   C     C_3   0.751181 0.599174 0.238449 -0.368964
C73   C     C_3   0.746721 0.560307 0.191339 -0.894866
C74   C     C_3   0.408623 0.740397 0.773610 -0.338382
C75   C     C_3   0.461656 0.762961 0.748783 -0.935900
C76   C     C_3   0.669176 0.178172 0.354491 -0.373329
C77   C     C_3   0.679564 0.133923 0.395372 -0.900366
C78   C     C_3   0.824790 0.697123 0.587760 -0.323549
C79   C     C_R   0.139306 0.925079 0.928964 -0.141846
C80   C     C_3   0.839368 0.649344 0.550756 -0.948195
C81   C     C_3   0.292675 0.426081 0.212444 -0.384045
C82   C     C_3   0.323430 0.477318 0.193638 -0.871308
C83   C     C_3   0.689504 0.176262 0.606524 -0.377606
C84   C     C_3   0.684049 0.154935 0.550373 -0.891188
C85   C     C_3   0.391976 0.756861 0.247207 -0.334380
C86   C     C_3   0.438585 0.785103 0.277455 -0.950951
C87   C     C_3   0.245454 0.606724 0.244208 -0.332161
C88   C     C_3   0.216802 0.560011 0.273736 -0.952184
C89   C     C_3   0.823148 0.336870 0.639824 -0.377172
C90   C     C_R   0.876786 0.058201 0.095511 -0.128538
C91   C     C_3   0.854694 0.361484 0.593698 -0.906721
C92   C     C_3   0.402687 0.247516 0.240330 -0.370422
C93   C     C_3   0.463869 0.249100 0.225695 -0.895963
C94   C     C_3   0.672306 0.808165 0.676449 -0.337060
C95   C     C_3   0.610212 0.815384 0.685554 -0.942153
C96   C     C_3   0.826674 0.312685 0.397438 -0.376014
C97   C     C_3   0.844141 0.317885 0.454518 -0.894385
C98   C     C_3   0.281315 0.572213 0.783883 -0.386386
C99   C     C_3   0.305561 0.517620 0.802057 -0.884994
C100  C     C_3   0.572382 0.708852 0.213862 -0.385095
C101  C     C_R   0.941925 0.875119 0.905886 -0.133336
C102  C     C_3   0.520711 0.678671 0.194991 -0.868469
C103  C     C_3   0.304964 0.175100 0.595884 -0.333265
C104  C     C_3   0.354637 0.158909 0.561865 -0.948832
C105  C     C_3   0.688825 0.830344 0.172687 -0.335492
C106  C     C_3   0.680909 0.892586 0.179312 -0.946295
C107  C     C_3   0.255372 0.105729 0.743150 -0.368194
C108  C     C_3   0.254962 0.064358 0.697786 -0.898457
C109  C     C_3   0.909495 0.238314 0.275398 -0.339186
C110  C     C_3   0.960208 0.263387 0.248533 -0.939499
C111  C     C_3   0.170040 0.678406 0.854946 -0.372237
C112  C     C_R   0.376796 0.558299 0.595553 -0.129153
C113  C     C_R   0.073824 0.138481 0.073236 -0.148532
C114  C     C_3   0.180296 0.634128 0.895839 -0.902888
C115  C     C_3   0.324163 0.198569 0.087386 -0.324367
C116  C     C_3   0.338873 0.151196 0.049958 -0.946753
C117  C     C_3   0.795944 0.925621 0.710212 -0.382775
C118  C     C_3   0.827981 0.975915 0.691033 -0.874511
C119  C     C_3   0.181441 0.673981 0.111163 -0.375814
C120  C     C_3   0.171560 0.650517 0.056343 -0.894130
C121  C     C_3   0.874544 0.273401 0.765184 -0.344296
C122  C     C_3   0.908540 0.308315 0.803391 -0.940395
C123  C     C_3   0.751257 0.105378 0.742019 -0.332429
C124  C     C_R   0.865824 0.068996 0.917798 -0.142154
C125  C     C_3   0.722939 0.057002 0.769344 -0.951671
C126  C     C_3   0.325437 0.828190 0.127402 -0.376734
C127  C     C_3   0.353269 0.849210 0.077620 -0.900046
C128  C     C_3   0.901747 0.745488 0.742339 -0.370040
C129  C     C_3   0.963093 0.745558 0.728264 -0.896417
C130  C     C_3   0.171197 0.308232 0.176904 -0.337360
C131  C     C_3   0.109094 0.314870 0.186359 -0.941980
C132  C     C_3   0.328803 0.808856 0.898759 -0.334765
C133  C     C_3   0.345535 0.864110 0.923263 -0.941787
C134  C     C_3   0.779840 0.071846 0.282851 -0.386006
C135  C     C_R   0.139188 0.926132 0.070674 -0.127845
C136  C     C_3   0.803180 0.016653 0.300478 -0.885689
C137  C     C_3   0.072560 0.201730 0.707230 -0.341542
C138  C     C_3   0.011497 0.205662 0.722387 -0.919232
C139  C     C_3   0.804930 0.675144 0.095257 -0.331072
C140  C     C_3   0.854758 0.659043 0.061408 -0.949356
C141  C     C_R   0.060895 0.124189 0.905827 -0.134733
C142  C     C_R   0.926688 0.861911 0.073948 -0.127889
C143  C     C_R   0.138286 0.073375 0.073799 -0.128500
C144  C     C_R   0.875869 0.939114 0.905593 -0.130596
C145  C     C_R   0.942082 0.123291 0.095437 -0.132250
C146  C     C_R   0.074446 0.860646 0.929104 -0.137629
C147  C     C_R   0.861498 0.926312 0.073292 -0.150477
C148  C     C_R   0.441688 0.374961 0.405988 -0.132981
C149  C     C_R   0.124793 0.058028 0.905798 -0.130784
C150  C     C_R   0.074528 0.861035 0.070697 -0.126880
C151  C     C_R   0.930780 0.133849 0.917543 -0.136658
C152  C     C_R   0.249457 0.255335 0.632977 -0.041464
C153  C     C_R   0.662520 0.655306 0.227511 0.040962
C154  C     C_R   0.344187 0.657458 0.776278 -0.012076
C155  C     C_R   0.747606 0.246100 0.374341 0.037887
C156  C     C_R   0.746222 0.749164 0.632135 -0.037891
C157  C     C_R   0.345839 0.335961 0.227259 0.017992
C158  C     C_R   0.753925 0.257441 0.627545 0.015624
C159  C     C_R   0.573927 0.638503 0.573144 -0.148616
C160  C     C_R   0.321956 0.678560 0.247611 -0.034050
C161  C     C_R   0.750009 0.755229 0.133419 -0.039442
C162  C     C_R   0.163437 0.155116 0.728140 0.011025
C163  C     C_R   0.843752 0.156420 0.276361 -0.011840
C164  C     C_R   0.248256 0.746336 0.875407 0.008160
C165  C     C_R   0.245400 0.249906 0.132208 -0.037855
C166  C     C_R   0.846963 0.834827 0.727225 0.018034
C167  C     C_R   0.251298 0.752459 0.124457 0.016986
C168  C     C_R   0.818135 0.185342 0.754450 -0.035059
C169  C     C_1   0.214884 0.216220 0.659280 -0.082349
C170  C     C_R   0.366974 0.568025 0.415877 -0.137120
C171  C     C_1   0.689341 0.686228 0.187292 -0.053488
C172  C     C_1   0.314362 0.684776 0.817744 -0.077215
C173  C     C_1   0.785111 0.210536 0.346571 -0.055293
C174  C     C_1   0.786362 0.782748 0.658273 -0.088434
C175  C     C_1   0.315361 0.309339 0.186486 -0.065735
C176  C     C_1   0.781194 0.226725 0.667038 -0.079068
C177  C     C_1   0.301179 0.699774 0.199419 -0.080284
C178  C     C_1   0.715363 0.716010 0.159405 -0.088118
C179  C     C_1   0.189299 0.186357 0.687481 -0.058403
C180  C     C_1   0.813642 0.183832 0.317510 -0.081505
C181  C     C_R   0.639170 0.426899 0.570969 -0.127652
C182  C     C_1   0.285951 0.711201 0.847185 -0.060705
C183  C     C_1   0.285369 0.283796 0.158250 -0.088157
C184  C     C_1   0.816471 0.808130 0.686515 -0.066193
C185  C     C_1   0.280594 0.721265 0.162433 -0.077925
C186  C     C_1   0.799834 0.205980 0.705248 -0.079185
C187  C     C_R   0.329585 0.331841 0.602349 0.031751
C188  C     C_R   0.624117 0.619387 0.325138 0.080450
C189  C     C_R   0.381688 0.619726 0.678115 0.049633
C190  C     C_R   0.670172 0.327134 0.403201 0.078295
C191  C     C_R   0.668771 0.669954 0.601747 0.031409
C192  C     C_R   0.561315 0.624621 0.406218 -0.131812
C193  C     C_R   0.380590 0.375174 0.325234 0.067559
C194  C     C_R   0.674032 0.331760 0.593667 0.063258
C195  C     C_R   0.358161 0.641590 0.345074 0.038872
C196  C     C_R   0.829908 0.831822 0.102673 0.031818
C197  C     C_R   0.124221 0.118859 0.825124 0.063823
C198  C     C_R   0.881641 0.119188 0.178234 0.049187
C199  C     C_R   0.170703 0.826967 0.904440 0.061338
C200  C     C_R   0.168455 0.170100 0.102023 0.031457
C201  C     C_R   0.881332 0.875105 0.824941 0.067765
C202  C     C_R   0.172686 0.829420 0.092525 0.062924
C203  C     C_R   0.426569 0.361878 0.573833 -0.127637
C204  C     C_R   0.853896 0.145119 0.850494 0.035618
C205  C     C_R   0.629009 0.370232 0.415846 0.089097
C206  C     C_R   0.398507 0.602054 0.624732 0.079517
C207  C     C_R   0.397294 0.394462 0.377646 0.080769
C208  C     C_R   0.627852 0.627761 0.587493 0.083662
C209  C     C_R   0.382901 0.616879 0.392092 0.083969
C210  C     C_R   0.630184 0.372019 0.582618 0.080969
C211  C     C_R   0.605244 0.602543 0.377584 0.080808
C212  C     C_R   0.372027 0.372469 0.587640 0.083414
C213  C     C_R   0.129342 0.870085 0.916578 0.089463
C214  C     C_R   0.638311 0.573328 0.573747 -0.128580
C215  C     C_R   0.898515 0.101834 0.124790 0.079620
C216  C     C_R   0.897834 0.894817 0.877279 0.080774
C217  C     C_R   0.127720 0.127780 0.087647 0.083385
C218  C     C_R   0.880802 0.118667 0.895250 0.085542
C219  C     C_R   0.129746 0.871075 0.082170 0.080272
C220  C     C_R   0.104983 0.102134 0.877401 0.080303
C221  C     C_R   0.872198 0.872490 0.087826 0.083669
C222  C     C_R   0.240274 0.312125 0.642551 0.207494
C223  C     C_R   0.694616 0.618270 0.256847 0.216448
C224  C     C_R   0.386314 0.686896 0.749917 0.192991
H1    H     H_    0.679143 0.444675 0.431553 0.082349
H2    H     H_    0.338866 0.461430 0.396449 0.087454
H3    H     H_    0.422995 0.801428 0.315500 0.261667
H4    H     H_    0.473037 0.755964 0.284084 0.260468
H5    H     H_    0.454782 0.820222 0.254332 0.259322
H6    H     H_    0.408595 0.744176 0.208336 0.190027
H7    H     H_    0.359329 0.788183 0.240836 0.188779
H8    H     H_    0.246007 0.525770 0.280883 0.260525
H9    H     H_    0.199637 0.575464 0.311501 0.262253
H10   H     H_    0.182207 0.543653 0.249852 0.259114
H11   H     H_    0.213850 0.638842 0.236754 0.190136
H12   H     H_    0.259549 0.590290 0.205691 0.189319
H13   H     H_    0.469109 0.656999 0.605792 0.091876
H14   H     H_    0.863775 0.328798 0.564271 0.269197
H15   H     H_    0.830710 0.394938 0.575157 0.254260
H16   H     H_    0.894442 0.378971 0.607594 0.253418
H17   H     H_    0.816701 0.369067 0.670457 0.187711
H18   H     H_    0.849967 0.304742 0.656643 0.195328
H19   H     H_    0.470935 0.278501 0.193223 0.264111
H20   H     H_    0.489164 0.261760 0.259867 0.254317
H21   H     H_    0.477402 0.207461 0.212637 0.249039
H22   H     H_    0.396143 0.217826 0.272695 0.184516
H23   H     H_    0.379773 0.231020 0.206256 0.192311
H24   H     H_    0.554776 0.320901 0.432990 0.086081
H25   H     H_    0.588144 0.817214 0.647638 0.260827
H26   H     H_    0.593550 0.781219 0.709674 0.263127
H27   H     H_    0.602710 0.854658 0.707068 0.258240
H28   H     H_    0.692527 0.806936 0.715349 0.193705
H29   H     H_    0.687554 0.845461 0.655867 0.186855
H30   H     H_    0.821064 0.351579 0.474538 0.259614
H31   H     H_    0.836326 0.278525 0.475246 0.265443
H32   H     H_    0.888928 0.327483 0.456488 0.250111
H33   H     H_    0.853725 0.281605 0.378313 0.193149
H34   H     H_    0.834313 0.352400 0.377233 0.185314
H35   H     H_    0.321129 0.445045 0.570013 0.092428
H36   H     H_    0.319651 0.492300 0.768131 0.254586
H37   H     H_    0.340957 0.525346 0.828586 0.263617
H38   H     H_    0.273528 0.494008 0.823672 0.250717
H39   H     H_    0.264053 0.593554 0.818762 0.213025
H40   H     H_    0.246252 0.563935 0.757064 0.185749
H41   H     H_    0.532417 0.641892 0.171234 0.261319
H42   H     H_    0.494727 0.665499 0.228617 0.259690
H43   H     H_    0.495984 0.706616 0.170232 0.247655
H44   H     H_    0.560345 0.744726 0.238674 0.187303
H45   H     H_    0.593652 0.725726 0.178918 0.195801
H46   H     H_    0.658253 0.530834 0.395319 0.095787
H47   H     H_    0.352434 0.179178 0.523120 0.262726
H48   H     H_    0.393802 0.170099 0.581718 0.257913
H49   H     H_    0.354432 0.113575 0.555427 0.259766
H50   H     H_    0.309015 0.154137 0.634126 0.202012
H51   H     H_    0.267349 0.158711 0.576432 0.193789
H52   H     H_    0.714075 0.910461 0.204073 0.261268
H53   H     H_    0.680408 0.912991 0.140568 0.260502
H54   H     H_    0.640734 0.900646 0.199094 0.257570
H55   H     H_    0.652415 0.814014 0.151246 0.186973
H56   H     H_    0.688608 0.811788 0.212314 0.192196
H57   H     H_    0.555512 0.321215 0.568194 0.085371
H58   H     H_    0.232769 0.026236 0.709486 0.263326
H59   H     H_    0.234555 0.082050 0.662987 0.258907
H60   H     H_    0.298055 0.053415 0.686926 0.249936
H61   H     H_    0.279162 0.143066 0.731985 0.187981
H62   H     H_    0.277899 0.086783 0.776212 0.184911
H63   H     H_    0.993943 0.232551 0.245362 0.261658
H64   H     H_    0.949403 0.278865 0.209134 0.258685
H65   H     H_    0.975387 0.298877 0.272156 0.258795
H66   H     H_    0.876439 0.270022 0.276760 0.187040
H67   H     H_    0.921310 0.229067 0.316361 0.191206
H68   H     H_    0.452428 0.672058 0.412347 0.082598
H69   H     H_    0.225032 0.630378 0.904277 0.262001
H70   H     H_    0.157910 0.644523 0.932687 0.264608
H71   H     H_    0.165042 0.593745 0.881053 0.251117
H72   H     H_    0.124904 0.679944 0.847426 0.185173
H73   H     H_    0.189945 0.666643 0.817212 0.185993
H74   H     H_    0.330204 0.110829 0.068517 0.257308
H75   H     H_    0.315513 0.154804 0.012880 0.262160
H76   H     H_    0.383652 0.152947 0.040489 0.259376
H77   H     H_    0.338047 0.237510 0.068769 0.195083
H78   H     H_    0.348275 0.193220 0.123788 0.187177
H79   H     H_    0.179195 0.944784 0.931936 0.082174
H80   H     H_    0.841368 0.002182 0.724435 0.259122
H81   H     H_    0.864862 0.962647 0.668166 0.261971
H82   H     H_    0.801182 0.000844 0.665328 0.248949
H83   H     H_    0.779528 0.903925 0.675242 0.197517
H84   H     H_    0.759568 0.938987 0.733667 0.186707
H85   H     H_    0.137053 0.672289 0.037011 0.252901
H86   H     H_    0.209508 0.654636 0.032006 0.266081
H87   H     H_    0.160703 0.606134 0.059034 0.250873
H88   H     H_    0.213331 0.648117 0.129867 0.194911
H89   H     H_    0.143101 0.670083 0.134994 0.185339
H90   H     H_    0.842621 0.031849 0.105887 0.091370
H91   H     H_    0.884809 0.315999 0.840068 0.263229
H92   H     H_    0.948254 0.287858 0.812387 0.253373
H93   H     H_    0.918068 0.348722 0.785299 0.258777
H94   H     H_    0.899455 0.266801 0.729064 0.190904
H95   H     H_    0.837717 0.298227 0.754883 0.190875
H96   H     H_    0.753077 0.024009 0.777850 0.259242
H97   H     H_    0.702812 0.071137 0.806253 0.263770
H98   H     H_    0.690739 0.039406 0.743319 0.259139
H99   H     H_    0.718204 0.135080 0.731813 0.190974
H100  H     H_    0.770149 0.090288 0.704878 0.189538
H101  H     H_    0.969241 0.841637 0.895617 0.093722
H102  H     H_    0.354196 0.816122 0.047286 0.267489
H103  H     H_    0.331087 0.885571 0.062208 0.250530
H104  H     H_    0.396376 0.861732 0.086380 0.252913
H105  H     H_    0.323919 0.861827 0.157183 0.186752
H106  H     H_    0.352047 0.795156 0.143008 0.194980
H107  H     H_    0.971099 0.774178 0.695352 0.264069
H108  H     H_    0.988280 0.758360 0.762461 0.254275
H109  H     H_    0.975900 0.703416 0.716054 0.249176
H110  H     H_    0.894257 0.716552 0.775142 0.184662
H111  H     H_    0.878848 0.728813 0.708323 0.192488
H112  H     H_    0.342627 0.531987 0.606043 0.091654
H113  H     H_    0.055312 0.178846 0.070065 0.093252
H114  H     H_    0.086772 0.316554 0.148570 0.261014
H115  H     H_    0.092904 0.280518 0.210520 0.262587
H116  H     H_    0.101363 0.354043 0.207969 0.258068
H117  H     H_    0.191667 0.307179 0.215692 0.193564
H118  H     H_    0.185963 0.345672 0.156253 0.186959
H119  H     H_    0.331199 0.898779 0.898735 0.258040
H120  H     H_    0.328293 0.868163 0.963444 0.264451
H121  H     H_    0.391241 0.866411 0.925727 0.259943
H122  H     H_    0.347950 0.775625 0.922164 0.191990
H123  H     H_    0.346864 0.806924 0.858751 0.186034
H124  H     H_    0.826335 0.048637 0.914928 0.085696
H125  H     H_    0.817014 0.991543 0.266319 0.254257
H126  H     H_    0.838581 0.023499 0.327207 0.263989
H127  H     H_    0.770706 0.993256 0.321714 0.250512
H128  H     H_    0.762728 0.092965 0.317920 0.213128
H129  H     H_    0.744801 0.064440 0.255788 0.185570
H130  H     H_    0.992930 0.163905 0.725600 0.265641
H131  H     H_    0.006555 0.228498 0.759911 0.258268
H132  H     H_    0.989025 0.228551 0.691721 0.253422
H133  H     H_    0.089810 0.244162 0.705420 0.186070
H134  H     H_    0.074709 0.183611 0.667154 0.194528
H135  H     H_    0.178725 0.946450 0.067062 0.084460
H136  H     H_    0.852789 0.679495 0.022739 0.262578
H137  H     H_    0.893827 0.670096 0.081497 0.258064
H138  H     H_    0.854519 0.613739 0.054769 0.259802
H139  H     H_    0.808560 0.653652 0.133283 0.200492
H140  H     H_    0.767347 0.659232 0.075405 0.194233
H141  H     H_    0.037600 0.160247 0.895861 0.090037
H142  H     H_    0.947062 0.822305 0.073076 0.086307
H143  H     H_    0.178046 0.053203 0.072728 0.086724
H144  H     H_    0.840027 0.962683 0.895349 0.088094
H145  H     H_    0.969054 0.156917 0.105933 0.091706
H146  H     H_    0.055047 0.820783 0.933509 0.086132
H147  H     H_    0.821139 0.944945 0.070171 0.092629
H148  H     H_    0.468967 0.341484 0.395632 0.093337
H149  H     H_    0.158240 0.030747 0.895236 0.097109
H150  H     H_    0.054388 0.821380 0.067791 0.084638
H151  H     H_    0.951623 0.172893 0.913805 0.082970
H152  H     H_    0.276406 0.393190 0.635579 0.139892
H153  H     H_    0.700706 0.574323 0.328795 0.120679
H154  H     H_    0.433998 0.691161 0.678841 0.138215
H155  H     H_    0.608980 0.265626 0.383684 0.120343
H156  H     H_    0.736155 0.628218 0.564216 0.138909
H157  H     H_    0.334379 0.448477 0.307022 0.128818
H158  H     H_    0.623995 0.259624 0.578431 0.126473
H159  H     H_    0.555464 0.678886 0.569939 0.092990
H160  H     H_    0.417001 0.707473 0.341166 0.138010
H161  H     H_    0.294304 0.580719 0.338543 0.137378
H162  H     H_    0.736360 0.393952 0.608460 0.128757
H163  H     H_    0.425128 0.298367 0.329969 0.127072
H164  H     H_    0.608516 0.720869 0.639577 0.141595
H165  H     H_    0.741288 0.377573 0.421121 0.126419
H166  H     H_    0.326885 0.550760 0.690861 0.128995
H167  H     H_    0.550588 0.665905 0.307879 0.129167
H168  H     H_    0.373604 0.262935 0.570125 0.138665
H169  H     H_    0.777167 0.893041 0.136713 0.140056
H170  H     H_    0.327768 0.547426 0.412122 0.083084
H171  H     H_    0.203723 0.080019 0.832711 0.121113
H172  H     H_    0.935262 0.189600 0.180136 0.138382
H173  H     H_    0.109634 0.765827 0.883769 0.119972
H174  H     H_    0.235983 0.128906 0.064213 0.138944
H175  H     H_    0.836736 0.948914 0.805201 0.127716
H176  H     H_    0.118343 0.759041 0.084213 0.126526
H177  H     H_    0.901652 0.219225 0.856286 0.138756
H178  H     H_    0.799947 0.076721 0.835629 0.136450
H179  H     H_    0.239039 0.888792 0.099858 0.127582
H180  H     H_    0.924164 0.797472 0.831377 0.127218
H181  H     H_    0.678526 0.447535 0.567153 0.084844
H182  H     H_    0.107969 0.220480 0.140171 0.141471
H183  H     H_    0.240506 0.877052 0.924579 0.136536
H184  H     H_    0.825799 0.050817 0.190002 0.128906
H185  H     H_    0.048084 0.157945 0.805143 0.141663
H186  H     H_    0.873564 0.763099 0.069614 0.138775
H187  H     H_    0.212253 0.411320 0.701732 0.260709
H188  H     H_    0.179374 0.412765 0.637815 0.260139
H189  H     H_    0.139037 0.401059 0.696064 0.258547
H190  H     H_    0.151638 0.313811 0.649600 0.187551
H191  H     H_    0.187356 0.312658 0.710969 0.192224
H192  H     H_    0.538506 0.661115 0.396781 0.087645
H193  H     H_    0.721634 0.523550 0.201702 0.263024
H194  H     H_    0.727411 0.581374 0.157709 0.259322
H195  H     H_    0.788612 0.546447 0.179283 0.248936
H196  H     H_    0.777371 0.635240 0.228350 0.186502
H197  H     H_    0.773017 0.576946 0.270041 0.185191
H198  H     H_    0.494194 0.730745 0.747598 0.262171
H199  H     H_    0.453599 0.778212 0.708702 0.257304
H200  H     H_    0.477024 0.798255 0.772563 0.259271
H201  H     H_    0.376125 0.772540 0.771386 0.186360
H202  H     H_    0.417551 0.733260 0.815644 0.191422
H203  H     H_    0.446915 0.322258 0.572916 0.086462
H204  H     H_    0.724293 0.130354 0.403910 0.262998
H205  H     H_    0.657028 0.144198 0.432148 0.264163
H206  H     H_    0.664511 0.093483 0.380540 0.250248
H207  H     H_    0.624009 0.179757 0.347150 0.186042
H208  H     H_    0.688887 0.166328 0.316688 0.185262
H209  H     H_    0.830191 0.609199 0.569530 0.257481
H210  H     H_    0.816337 0.652879 0.513485 0.262069
H211  H     H_    0.884231 0.650635 0.541588 0.259418
H212  H     H_    0.839035 0.735819 0.568929 0.194829
H213  H     H_    0.848687 0.691905 0.624315 0.187621
H214  H     H_    0.678032 0.553089 0.572673 0.086220
H215  H     H_    0.336496 0.503434 0.227266 0.259683
H216  H     H_    0.360394 0.465184 0.170329 0.261824
H217  H     H_    0.295858 0.502002 0.168460 0.248151
H218  H     H_    0.276053 0.404661 0.177411 0.197450
H219  H     H_    0.256514 0.438501 0.236704 0.186340
H220  H     H_    0.649442 0.175678 0.530214 0.252874
H221  H     H_    0.722955 0.162325 0.528217 0.267013
H222  H     H_    0.675634 0.109925 0.550675 0.250432
H223  H     H_    0.721632 0.151224 0.625897 0.195309
H224  H     H_    0.650108 0.169329 0.628043 0.185532
N1    N     N_R   0.592620 0.447430 0.448130 -0.037472
N2    N     N_R   0.407380 0.447430 0.448130 -0.039127
N3    N     N_R   0.447430 0.592620 0.551870 -0.040986
N4    N     N_R   0.552570 0.407380 0.448130 -0.037695
N5    N     N_R   0.407380 0.447430 0.551870 -0.038402
N6    N     N_R   0.592620 0.552570 0.448130 -0.041338
N7    N     N_R   0.552570 0.407380 0.551870 -0.039615
N8    N     N_R   0.447430 0.592620 0.448130 -0.037862
N9    N     N_R   0.092620 0.947430 0.948130 -0.037421
N10   N     N_R   0.907380 0.052570 0.051870 -0.041168
N11   N     N_R   0.947430 0.907380 0.948130 -0.041113
N12   N     N_R   0.407380 0.552570 0.551870 -0.041363
N13   N     N_R   0.052570 0.092620 0.051870 -0.038334
N14   N     N_R   0.907380 0.052570 0.948130 -0.037561
N15   N     N_R   0.092620 0.947430 0.051870 -0.039563
N16   N     N_R   0.052570 0.092620 0.948130 -0.038754
N17   N     N_R   0.947430 0.907380 0.051870 -0.039627
N18   N     N_R   0.092620 0.052570 0.051870 -0.039668
N19   N     N_R   0.907380 0.947430 0.948130 -0.039127
N20   N     N_R   0.947430 0.092620 0.051870 -0.040808
N21   N     N_R   0.052570 0.907380 0.948130 -0.038062
N22   N     N_R   0.907380 0.947430 0.051870 -0.038347
N23   N     N_R   0.447430 0.407380 0.448130 -0.040990
N24   N     N_R   0.092620 0.052570 0.948130 -0.041523
N25   N     N_R   0.052570 0.907380 0.051870 -0.039732
N26   N     N_R   0.947430 0.092620 0.948130 -0.037800
N27   N     N_R   0.552570 0.592620 0.551870 -0.038373
N28   N     N_R   0.407380 0.552570 0.448130 -0.037934
N29   N     N_R   0.592620 0.447430 0.551870 -0.039619
N30   N     N_R   0.552570 0.592620 0.448130 -0.038916
N31   N     N_R   0.447430 0.407380 0.551870 -0.039621
N32   N     N_R   0.592620 0.552570 0.551870 -0.039691
Ni1   Ni    Ni4+2 0.591800 0.500000 0.500000 0.208395
Ni2   Ni    Ni4+2 0.408200 0.500000 0.500000 0.214728
Ni3   Ni    Ni4+2 0.500000 0.408200 0.500000 0.208917
Ni4   Ni    Ni4+2 0.500000 0.591800 0.500000 0.214692
Ni5   Ni    Ni4+2 0.091800 0.000000 0.000000 0.208211
Ni6   Ni    Ni4+2 0.908200 0.000000 0.000000 0.214681
Ni7   Ni    Ni4+2 1.000000 0.908200 0.000000 0.208617
Ni8   Ni    Ni4+2 0.000000 0.091800 0.000000 0.214657

loop_
_geom_bond_atom_site_label_1
_geom_bond_atom_site_label_2
_ccdc_geom_bond_type
C65   H183  S    
C66   H184  S    
C126  C127  S    
C128  H111  S    
C120  H85   S    
C52   C196  A    
C30   C164  A    
C61   H178  S    
N32   Ni1   S    
C123  H99   S    
N3    Ni4   S    
C195  C209  S    
C138  H131  S    
C84   H220  S    
C60   H177  S    
C71   H188  S    
C167  C185  S    
C24   C205  A    
C87   H11   S    
C137  H133  S    
N8    Ni4   S    
C7    C42   A    
C77   H205  S    
C65   C199  A    
C57   H57   S    
C133  H121  S    
C96   H33   S    
C38   C190  A    
C208  C214  A    
C171  C178  T    
C106  H54   S    
C25   C60   A    
C129  H109  S    
C108  H60   S    
C28   C166  A    
N10   Ni6   S    
C29   C64   A    
C192  N30   A    
C114  H71   S    
C203  H203  S    
C77   H204  S    
C40   H157  S    
C17   C52   A    
C150  N25   A    
C75   H198  S    
C124  C218  A    
C100  H45   S    
C165  C183  S    
C107  H62   S    
C166  C184  S    
C174  C184  T    
C92   H22   S    
C13   H13   S    
C142  N17   A    
C79   N9    A    
C36   C188  A    
C33   C161  A    
C4    C78   S    
C55   H173  S    
C20   C111  S    
C39   C191  A    
N30   Ni4   S    
C189  C206  S    
C132  H123  S    
C84   H222  S    
C93   H21   S    
C97   H32   S    
C23   C167  A    
C83   H223  S    
C88   H8    S    
C119  H88   S    
C64   C200  A    
C126  H105  S    
C120  H87   S    
C26   C123  S    
N22   Ni6   S    
C134  H129  S    
C2    H2    S    
C175  C183  T    
C109  H66   S    
C214  H214  S    
C74   H201  S    
C6    C83   S    
C86   H5    S    
N17   N22   A    
C103  H50   S    
C72   C73   S    
C93   H20   S    
C94   H28   S    
C22   C58   A    
C149  H149  S    
C139  C140  S    
C45   H163  S    
C147  H147  S    
C21   C115  S    
C56   H174  S    
C127  H104  S    
C130  C131  S    
C104  H47   S    
C53   C197  A    
C9    C158  A    
C33   C139  S    
C143  N18   A    
C144  N19   A    
C42   C195  A    
C22   C166  A    
C28   C63   A    
C98   H40   S    
C99   H37   S    
C114  H69   S    
C98   C99   S    
C150  H150  S    
C13   C206  A    
C82   H216  S    
C25   C121  S    
C136  H125  S    
C56   C200  A    
C80   H210  S    
C121  H95   S    
C73   H194  S    
N14   Ni6   S    
C81   H218  S    
C85   H7    S    
C16   C51   A    
C35   C212  A    
C50   C188  A    
C128  C129  S    
C72   H196  S    
C113  H113  S    
C85   C86   S    
N14   N26   A    
C23   C59   A    
C88   H9    S    
C128  H110  S    
C125  H98   S    
C135  N15   A    
N6    N30   A    
C59   H176  S    
C125  H96   S    
C159  N27   A    
C141  C220  A    
C23   C119  S    
N20   Ni8   S    
C27   C126  S    
C78   C80   S    
C115  C116  S    
C133  H119  S    
C148  N23   A    
N29   Ni1   S    
C43   C195  A    
C139  H140  S    
C148  C207  A    
C41   H158  S    
C60   C204  A    
C32   C162  A    
C107  C108  S    
N7    N29   A    
C89   C91   S    
C197  C220  S    
N6    Ni1   S    
C159  H159  S    
C47   H164  S    
C68   N8    A    
C78   H213  S    
C192  H192  S    
C149  N24   A    
C145  H145  S    
C46   H46   S    
C14   C154  A    
C139  H139  S    
C86   H3    S    
C31   C134  S    
C95   H26   S    
C6    C158  A    
C14   C98   S    
C40   C193  A    
C19   C109  S    
C25   C168  A    
C151  H151  S    
C140  H137  S    
C55   C199  A    
C146  N21   A    
C168  C186  S    
C154  C172  S    
C37   H154  S    
C127  H102  S    
C51   C187  A    
C130  H117  S    
C13   N3    A    
N2    N23   A    
C144  C216  A    
C75   H199  S    
C100  H44   S    
C204  C218  S    
C181  C210  A    
C49   H166  S    
C201  C216  S    
C27   C62   A    
C194  C210  S    
C72   H197  S    
C83   C84   S    
C117  H84   S    
C147  N22   A    
C10   C45   A    
C19   C163  A    
C66   C198  A    
C136  H127  S    
C17   C161  A    
C32   C67   A    
C19   C54   A    
C110  H65   S    
C132  H122  S    
C102  H43   S    
C44   H162  S    
C70   H191  S    
C63   C201  A    
C199  C213  S    
C120  H86   S    
C58   H175  S    
C54   H172  S    
C69   H186  S    
C124  H124  S    
C33   C69   A    
C67   H185  S    
N1    Ni1   S    
C117  C118  S    
N25   Ni7   S    
C138  H132  S    
C59   C202  A    
N7    Ni3   S    
C30   C132  S    
N18   Ni5   S    
C115  H78   S    
C170  N28   A    
C34   H152  S    
C34   C187  A    
C15   C153  A    
C30   C65   A    
C181  N29   A    
C48   H165  S    
C96   H34   S    
C142  H142  S    
C105  H56   S    
C89   H18   S    
N13   Ni8   S    
C129  H108  S    
C82   H215  S    
C169  C179  T    
C64   H182  S    
C1    N1    A    
C87   C88   S    
C193  C207  S    
N19   Ni6   S    
C152  C222  A    
C31   C66   A    
C11   C47   A    
C8    C43   A    
C15   C100  S    
C12   C48   A    
C52   H169  S    
C151  N26   A    
C156  C174  S    
C122  H91   S    
C107  H61   S    
C26   C61   A    
C62   H179  S    
C61   C204  A    
C123  C125  S    
C46   C211  A    
C20   C164  A    
C118  H81   S    
C74   C224  S    
C63   H180  S    
C21   C165  A    
N17   Ni7   S    
C29   C165  A    
C131  H116  S    
C62   C202  A    
C90   H90   S    
C18   C53   A    
C124  N14   A    
N27   N32   A    
C53   H171  S    
C76   H207  S    
C110  H63   S    
C116  H75   S    
C102  H41   S    
C91   H16   S    
C70   C71   S    
N27   Ni4   S    
C142  C221  A    
C48   C190  A    
C196  C221  S    
C97   H31   S    
N9    Ni5   S    
C141  N16   A    
C10   C92   S    
C126  H106  S    
C200  C217  S    
N11   N19   A    
C198  C215  S    
C90   C215  A    
C45   C193  A    
C123  H100  S    
N15   N25   A    
C74   H202  S    
C203  N31   A    
C159  C208  A    
C106  H52   S    
C93   H19   S    
C94   H29   S    
C95   H27   S    
C138  H130  S    
N15   Ni5   S    
C7    C160  A    
C173  C180  T    
C72   C223  S    
C81   H219  S    
C87   H12   S    
C137  H134  S    
C127  H103  S    
C140  H138  S    
C104  H48   S    
C41   C194  A    
C143  C217  A    
C5    C81   S    
C16   C103  S    
N1    N4    A    
C3    C155  A    
N28   Ni2   S    
C16   C152  A    
C106  H53   S    
C36   C223  A    
N26   Ni8   S    
C121  C122  S    
C108  H59   S    
C214  N32   A    
N16   Ni8   S    
C11   C94   S    
C4    C156  A    
C114  H70   S    
C5    C157  A    
C68   H68   S    
N8    N28   A    
C46   N6    A    
C9    C89   S    
C8    C160  A    
C79   H79   S    
C136  H126  S    
C112  H112  S    
C109  H67   S    
C1    H1    S    
C121  H94   S    
C148  H148  S    
C57   C210  A    
C73   H193  S    
C135  H135  S    
C122  H92   S    
C85   H6    S    
C67   C197  A    
C21   C56   A    
C141  H141  S    
C119  C120  S    
C153  C223  A    
C42   H160  S    
C88   H10   S    
C105  C106  S    
C38   H155  S    
C125  H97   S    
C145  N20   A    
C131  H114  S    
C112  C206  A    
C109  C110  S    
C152  C169  S    
C18   C162  A    
C7    C85   S    
C91   H14   S    
C92   C93   S    
C70   C222  S    
C111  C114  S    
C47   C191  A    
C94   C95   S    
C71   H189  S    
C160  C177  S    
C146  C213  A    
C164  C182  S    
C82   H217  S    
C103  H51   S    
C172  C182  T    
C83   H224  S    
C43   H161  S    
C187  C212  S    
C144  H144  S    
C101  N11   A    
C5    C40   A    
C103  C104  S    
C12   C96   S    
C2    C207  A    
C101  C216  A    
C161  C178  S    
C104  H49   S    
C57   N7    A    
C39   H156  S    
C28   C128  S    
C22   C117  S    
C37   C189  A    
C86   H4    S    
C51   H168  S    
C95   H25   S    
C81   C82   S    
C84   H221  S    
C181  H181  S    
C26   C168  A    
C77   H206  S    
N13   N18   A    
C130  H118  S    
C188  C211  S    
N31   Ni3   S    
C14   C49   A    
C49   C189  A    
C112  N12   A    
C177  C185  T    
C35   N5    A    
C15   C50   A    
C18   C107  S    
C190  C205  S    
C145  C215  A    
C98   H39   S    
C117  H83   S    
C3    C38   A    
C132  C133  S    
C111  H73   S    
C6    C41   A    
C119  H89   S    
C1    C205  A    
N23   Ni3   S    
C147  C221  A    
N5    Ni2   S    
C155  C173  S    
C36   H153  S    
N4    Ni3   S    
C116  H74   S    
C73   H195  S    
C131  H115  S    
C31   C163  A    
C20   C55   A    
C68   C209  A    
C113  C217  A    
C92   H23   S    
C140  H136  S    
C101  H101  S    
C74   C75   S    
C35   H35   S    
C76   C77   S    
C58   C201  A    
C134  C136  S    
N3    N12   A    
C133  H120  S    
C69   C196  A    
C90   N10   A    
C149  C220  A    
C202  C219  S    
C192  C211  A    
C17   C105  S    
C29   C130  S    
C4    C39   A    
C79   C213  A    
C150  C219  A    
C135  C219  A    
C96   C97   S    
C153  C171  S    
C100  C102  S    
N24   Ni5   S    
C151  C218  A    
C118  H80   S    
C115  H77   S    
C3    C76   S    
C10   C157  A    
N9    N21   A    
C162  C179  S    
C11   C156  A    
C157  C175  S    
C78   H212  S    
C158  C176  S    
C50   H167  S    
C105  H55   S    
C89   H17   S    
C203  C212  A    
C24   H24   S    
C24   N4    A    
C12   C155  A    
N12   Ni2   S    
C129  H107  S    
C143  H143  S    
C108  H58   S    
C9    C44   A    
C111  H72   S    
C37   C224  A    
N10   N20   A    
N5    N31   A    
N21   Ni7   S    
C176  C186  T    
C75   H200  S    
C170  H170  S    
C137  C138  S    
C44   C194  A    
C54   C198  A    
C8    C87   S    
N2    Ni2   S    
C32   C137  S    
C80   H209  S    
N11   Ni7   S    
C146  H146  S    
C170  C209  A    
C99   H36   S    
C99   H38   S    
C118  H82   S    
C71   H187  S    
C134  H128  S    
C191  C208  S    
C154  C224  A    
C80   H211  S    
C76   H208  S    
C110  H64   S    
C116  H76   S    
C122  H93   S    
N16   N24   A    
C102  H42   S    
C91   H15   S    
C163  C180  S    
C70   H190  S    
C34   C222  A    
C27   C167  A    
C97   H30   S    
C2    N2    A    
C113  N13   A    
