data_mof_unit_20724.cif
_audit_creation_date              2012-10-26T21:20:03-0400
_audit_creation_method            fapswitch 2.2
_symmetry_space_group_name_H-M    P1
_symmetry_Int_Tables_number       1
_space_group_crystal_system       triclinic
_cell_length_a                    13.117929
_cell_length_b                    10.8279
_cell_length_c                    9.530253
_cell_angle_alpha                 90.581459
_cell_angle_beta                  97.271486
_cell_angle_gamma                 91.13786
_cell_volume                      1342.41250163

loop_
_atom_site_label
_atom_site_type_symbol
_atom_type_description
_atom_site_fract_x
_atom_site_fract_y
_atom_site_fract_z
_atom_type_partial_charge
C1    C     C_R   0.499825 0.262111 0.499520 0.554397
C2    C     C_R   0.699548 0.493417 0.527593 0.544816
C3    C     C_R   0.813182 0.485846 0.545148 -0.025400
C4    C     C_R   0.186817 0.514154 0.454852 -0.025400
C5    C     C_R   0.021641 0.476706 0.313196 -0.128455
C6    C     C_R   0.978359 0.523294 0.686804 -0.128455
C7    C     C_R   0.127414 0.493140 0.321695 -0.031142
C8    C     C_R   0.872586 0.506860 0.678305 -0.031142
C9    C     C_R   0.135376 0.537766 0.574392 -0.030602
C10   C     C_R   0.864624 0.462234 0.425607 -0.030602
C11   C     C_R   0.028555 0.516505 0.565587 0.009492
C12   C     C_R   0.500175 0.737888 0.500480 0.554397
C13   C     C_R   0.971445 0.483495 0.434412 0.009492
C14   C     C_R   0.511677 0.062924 0.375269 -0.115193
C15   C     C_R   0.488323 0.937076 0.624730 -0.115193
C16   C     C_R   0.511849 0.935171 0.375813 -0.126611
C17   C     C_R   0.488151 0.064829 0.624187 -0.126611
C18   C     C_1   0.809769 0.407433 0.296999 0.223002
C19   C     C_1   0.190231 0.592567 0.703001 0.223002
C20   C     C_1   0.830174 0.504851 0.810854 0.245186
C21   C     C_1   0.169826 0.495148 0.189146 0.245186
C22   C     C_1   0.380126 0.322161 0.120092 0.250971
C23   C     C_R   0.500220 0.871757 0.500582 0.026086
C24   C     C_1   0.619874 0.677838 0.879908 0.250971
C25   C     C_R   0.499780 0.128242 0.499418 0.026086
C26   C     C_R   0.442343 0.414638 0.062005 0.113542
C27   C     C_R   0.557657 0.585361 0.937995 0.113542
C28   C     C_R   0.442405 0.415309 0.913545 0.024321
C29   C     C_R   0.557595 0.584691 0.086455 0.024321
C30   C     C_R   0.300452 0.506583 0.472407 0.544816
Cu1   Cu    Cu3+1 0.500000 0.500020 0.640660 1.002712
Cu2   Cu    Cu3+1 0.500000 0.499980 0.359340 1.002712
H1    H     H_    0.396290 0.347958 0.847296 0.118189
H2    H     H_    0.603710 0.652042 0.152704 0.118189
H3    H     H_    0.978502 0.459904 0.209757 0.142845
H4    H     H_    0.021498 0.540096 0.790243 0.142845
H5    H     H_    0.521368 0.110256 0.278097 0.147310
H6    H     H_    0.478631 0.889744 0.721903 0.147310
H7    H     H_    0.521501 0.886340 0.278753 0.133987
H8    H     H_    0.478499 0.113660 0.721247 0.133987
N1    N     N_R   0.500030 0.500030 0.852080 -0.245081
N2    N     N_R   0.499970 0.499970 0.147920 -0.245081
N3    N     N_1   0.766154 0.363207 0.195028 -0.262318
N4    N     N_1   0.233846 0.636793 0.804972 -0.262318
N5    N     N_1   0.797983 0.501858 0.918313 -0.275029
N6    N     N_1   0.202017 0.498141 0.081687 -0.275029
N7    N     N_1   0.329585 0.247422 0.165511 -0.296265
N8    N     N_1   0.670415 0.752578 0.834489 -0.296265
O1    O     O_R   0.499990 0.319660 0.618740 -0.519991
O2    O     O_R   0.500010 0.680340 0.381260 -0.519991
O3    O     O_R   0.499990 0.319630 0.381170 -0.498888
O4    O     O_R   0.500010 0.680370 0.618830 -0.498888
O5    O     O_R   0.349000 0.499990 0.599490 -0.497702
O6    O     O_R   0.651000 0.500010 0.400510 -0.497702
O7    O     O_R   0.348990 0.499960 0.361920 -0.484181
O8    O     O_R   0.651010 0.500040 0.638080 -0.484181

loop_
_geom_bond_atom_site_label_1
_geom_bond_atom_site_label_2
_ccdc_geom_bond_type
C12   O2    A    
C10   C13   A    
C15   H6    S    
C29   N2    A    
C27   C29   A    
C1    O3    A    
C30   O7    A    
C27   N1    A    
Cu2   O7    S    
C5    C13   A    
Cu1   Cu2   S    
C24   C27   S    
Cu1   O4    S    
C17   C25   A    
C15   C23   A    
C2    C3    S    
Cu2   O3    S    
C3    C10   A    
C2    O8    A    
C18   N3    T    
Cu1   O5    S    
C14   H5    S    
C1    C25   S    
C11   C13   A    
C12   C23   S    
Cu2   O2    S    
C8    C20   S    
C1    O1    A    
Cu1   O1    S    
C4    C7    A    
C5    H3    S    
C21   N6    T    
Cu2   O6    S    
C12   O4    A    
C6    H4    S    
C28   H1    S    
C22   N7    T    
C16   C23   A    
C9    C11   A    
C14   C25   A    
C2    O6    A    
C10   C18   S    
C30   O5    A    
C14   C16   A    
C16   H7    S    
C24   N8    T    
C28   N1    A    
C19   N4    T    
C26   N2    A    
C15   C17   A    
C3    C8    A    
C22   C26   S    
C6    C11   A    
C5    C7    A    
Cu2   N2    S    
C6    C8    A    
Cu1   N1    S    
C4    C9    A    
C7    C21   S    
C26   C28   A    
C29   H2    S    
Cu1   O8    S    
C4    C30   S    
C20   N5    T    
C9    C19   S    
C17   H8    S    
