data_mof_unit_28113.cif
_audit_creation_date              2012-12-10T18:07:12-0500
_audit_creation_method            fapswitch 2.2
_symmetry_space_group_name_H-M    P1
_symmetry_Int_Tables_number       1
_space_group_crystal_system       triclinic
_cell_length_a                    18.421895
_cell_length_b                    18.418304
_cell_length_c                    42.908884
_cell_angle_alpha                 89.998601
_cell_angle_beta                  89.998838
_cell_angle_gamma                 90.000503
_cell_volume                      14558.9870094

loop_
_atom_site_label
_atom_site_type_symbol
_atom_type_description
_atom_site_fract_x
_atom_site_fract_y
_atom_site_fract_z
_atom_type_partial_charge
C1    C     C_R   0.460141 0.946200 0.115500 0.335764
C2    C     C_R   0.040028 0.446532 0.384635 0.336049
C3    C     C_R   0.302754 0.749312 0.726745 0.280600
C4    C     C_R   0.260831 0.312304 0.267780 0.290166
C5    C     C_R   0.750428 0.698030 0.726282 0.280522
C6    C     C_R   0.311458 0.739781 0.268392 0.292178
C7    C     C_R   0.697268 0.250665 0.726733 0.280603
C8    C     C_R   0.196043 0.696389 0.250110 -0.371290
C9    C     C_R   0.803329 0.303676 0.750208 -0.372748
C10   C     C_R   0.303803 0.196305 0.249985 -0.369914
C11   C     C_R   0.696587 0.803512 0.749974 -0.370102
C12   C     C_R   0.803959 0.303610 0.250112 -0.371256
C13   C     C_R   0.558087 0.966630 0.615866 0.329613
C14   C     C_R   0.196675 0.696319 0.750214 -0.372653
C15   C     C_R   0.696198 0.803696 0.249987 -0.370002
C16   C     C_R   0.303417 0.196492 0.749978 -0.370043
C17   C     C_R   0.196146 0.303747 0.749986 -0.371822
C18   C     C_R   0.803475 0.696441 0.249980 -0.374808
C19   C     C_R   0.303950 0.803574 0.750121 -0.370314
C20   C     C_R   0.696688 0.196352 0.250200 -0.372225
C21   C     C_R   0.803858 0.696255 0.749984 -0.371750
C22   C     C_R   0.196526 0.303561 0.249977 -0.374777
C23   C     C_R   0.696052 0.196423 0.750118 -0.370404
C24   C     C_R   0.557983 0.033570 0.384137 0.329664
C25   C     C_R   0.303316 0.803646 0.250197 -0.372150
C26   C     C_R   0.500035 0.999920 0.066142 -0.124540
C27   C     C_R   0.499991 0.999953 0.933650 -0.123091
C28   C     C_R   0.000027 0.499963 0.066139 -0.124447
C29   C     C_R   0.000053 0.499930 0.933654 -0.122991
C30   C     C_R   0.999451 0.499774 0.566111 -0.124504
C31   C     C_R   0.999427 0.500050 0.433875 -0.124419
C32   C     C_R   0.499877 0.999956 0.566392 -0.122665
C33   C     C_R   0.499887 0.000065 0.433612 -0.122665
C34   C     C_R   0.397413 0.909504 0.066224 0.171694
C35   C     C_R   0.040267 0.553217 0.615331 0.336278
C36   C     C_R   0.411066 0.840766 0.053213 -0.014606
C37   C     C_R   0.355899 0.803462 0.037568 -0.120882
C38   C     C_R   0.286889 0.834368 0.034865 -0.105131
C39   C     C_R   0.272967 0.902653 0.047752 -0.098511
C40   C     C_R   0.327999 0.940180 0.063370 -0.095394
C41   C     C_R   0.584530 0.892622 0.934083 0.176372
C42   C     C_R   0.556546 0.826849 0.945609 -0.025141
C43   C     C_R   0.601521 0.778894 0.961887 -0.110163
C44   C     C_R   0.674525 0.796178 0.966736 -0.103953
C45   C     C_R   0.702648 0.861519 0.955368 -0.108038
C46   C     C_R   0.959762 0.553740 0.384535 0.336379
C47   C     C_R   0.657837 0.909696 0.939101 -0.085768
C48   C     C_R   0.090395 0.397312 0.066203 0.171725
C49   C     C_R   0.159110 0.410987 0.053183 -0.014722
C50   C     C_R   0.196378 0.355841 0.037505 -0.120789
C51   C     C_R   0.165460 0.286831 0.034776 -0.105194
C52   C     C_R   0.097202 0.272884 0.047674 -0.098696
C53   C     C_R   0.059711 0.327895 0.063326 -0.095347
C54   C     C_R   0.107108 0.584813 0.934102 0.176405
C55   C     C_R   0.172956 0.556990 0.945610 -0.025204
C56   C     C_R   0.220796 0.602089 0.961886 -0.110056
C57   C     C_R   0.441790 0.033330 0.615889 0.329593
C58   C     C_R   0.203319 0.675054 0.966754 -0.103932
C59   C     C_R   0.137901 0.703015 0.955407 -0.108030
C60   C     C_R   0.089841 0.658082 0.939140 -0.085826
C61   C     C_R   0.602728 0.090257 0.066211 0.171620
C62   C     C_R   0.589178 0.158995 0.053176 -0.014543
C63   C     C_R   0.644411 0.196204 0.037531 -0.120949
C64   C     C_R   0.713384 0.165205 0.034850 -0.105149
C65   C     C_R   0.727204 0.096921 0.047759 -0.098481
C66   C     C_R   0.672106 0.059488 0.063377 -0.095496
C67   C     C_R   0.415441 0.107276 0.934098 0.176340
C68   C     C_R   0.441917 0.966465 0.384122 0.329605
C69   C     C_R   0.443415 0.173040 0.945636 -0.025140
C70   C     C_R   0.398425 0.220979 0.961915 -0.110171
C71   C     C_R   0.325417 0.203689 0.966752 -0.103988
C72   C     C_R   0.297304 0.138359 0.955370 -0.108021
C73   C     C_R   0.342129 0.090198 0.939103 -0.085760
C74   C     C_R   0.909661 0.602618 0.066176 0.171750
C75   C     C_R   0.840952 0.588925 0.053155 -0.014746
C76   C     C_R   0.803687 0.644053 0.037463 -0.120772
C77   C     C_R   0.834602 0.713063 0.034721 -0.105183
C78   C     C_R   0.902854 0.727027 0.047621 -0.098739
C79   C     C_R   0.455243 0.950551 0.082728 -0.123070
C80   C     C_R   0.940343 0.672033 0.063286 -0.095364
C81   C     C_R   0.893088 0.414940 0.934090 0.176243
C82   C     C_R   0.827228 0.442626 0.945645 -0.025065
C83   C     C_R   0.779485 0.397394 0.961907 -0.110164
C84   C     C_R   0.797067 0.324431 0.966710 -0.103987
C85   C     C_R   0.862498 0.296607 0.955314 -0.107895
C86   C     C_R   0.910462 0.341674 0.939063 -0.085903
C87   C     C_R   0.897275 0.409283 0.566047 0.170740
C88   C     C_R   0.911619 0.341015 0.552737 -0.017513
C89   C     C_R   0.856864 0.303610 0.536869 -0.120206
C90   C     C_R   0.537223 0.944543 0.917103 -0.125055
C91   C     C_R   0.787605 0.333986 0.534219 -0.106531
C92   C     C_R   0.773008 0.401826 0.547399 -0.098872
C93   C     C_R   0.827615 0.439430 0.563255 -0.093547
C94   C     C_R   0.101415 0.409392 0.434265 0.171367
C95   C     C_R   0.086779 0.341075 0.447472 -0.017547
C96   C     C_R   0.141143 0.303678 0.463590 -0.120014
C97   C     C_R   0.210290 0.334126 0.466604 -0.106431
C98   C     C_R   0.225171 0.402021 0.453534 -0.100001
C99   C     C_R   0.170960 0.439609 0.437422 -0.093960
C100  C     C_R   0.608195 0.916126 0.566220 0.177848
C101  C     C_R   0.049366 0.455141 0.082722 -0.123122
C102  C     C_R   0.674007 0.944518 0.554902 -0.022766
C103  C     C_R   0.722529 0.899814 0.538800 -0.111378
C104  C     C_R   0.705840 0.826656 0.533956 -0.103426
C105  C     C_R   0.640521 0.798112 0.545144 -0.107248
C106  C     C_R   0.591740 0.842661 0.561211 -0.085375
C107  C     C_R   0.607799 0.084413 0.433774 0.177666
C108  C     C_R   0.673729 0.056380 0.445130 -0.022545
C109  C     C_R   0.722002 0.101374 0.461221 -0.111493
C110  C     C_R   0.704948 0.174463 0.466017 -0.103505
C111  C     C_R   0.639511 0.202652 0.454792 -0.107041
C112  C     C_R   0.533925 0.942143 0.884238 0.330921
C113  C     C_R   0.055326 0.537376 0.917112 -0.125134
C114  C     C_R   0.590979 0.157813 0.438736 -0.085645
C115  C     C_R   0.101994 0.589791 0.565694 0.171500
C116  C     C_R   0.087880 0.658186 0.552456 -0.017303
C117  C     C_R   0.142506 0.695088 0.536289 -0.120296
C118  C     C_R   0.211388 0.664058 0.533248 -0.106343
C119  C     C_R   0.225748 0.596082 0.546347 -0.100019
C120  C     C_R   0.171279 0.558994 0.562513 -0.094380
C121  C     C_R   0.897685 0.591015 0.433980 0.170809
C122  C     C_R   0.912374 0.659227 0.447272 -0.017624
C123  C     C_R   0.857842 0.696874 0.463176 -0.119996
C124  C     C_R   0.544829 0.049300 0.082717 -0.122968
C125  C     C_R   0.788465 0.666794 0.465881 -0.106543
C126  C     C_R   0.773526 0.599011 0.452718 -0.099055
C127  C     C_R   0.827909 0.561165 0.436825 -0.093453
C128  C     C_R   0.391426 0.083613 0.566251 0.177956
C129  C     C_R   0.325654 0.055026 0.554982 -0.022968
C130  C     C_R   0.276973 0.099568 0.538886 -0.111175
C131  C     C_R   0.293461 0.172758 0.534002 -0.103167
C132  C     C_R   0.358737 0.201496 0.545143 -0.107347
C133  C     C_R   0.407678 0.157109 0.561203 -0.085210
C134  C     C_R   0.391858 0.915873 0.433762 0.177845
C135  C     C_R   0.462759 0.055376 0.917111 -0.125032
C136  C     C_R   0.325959 0.944095 0.445065 -0.022782
C137  C     C_R   0.277553 0.899276 0.461174 -0.111271
C138  C     C_R   0.294442 0.826172 0.466039 -0.103116
C139  C     C_R   0.359843 0.797795 0.454862 -0.107215
C140  C     C_R   0.408509 0.842458 0.438788 -0.085512
C141  C     C_R   0.950685 0.544808 0.082710 -0.123129
C142  C     C_R   0.944773 0.462505 0.917111 -0.125036
C143  C     C_R   0.954743 0.450508 0.582688 -0.123073
C144  C     C_R   0.044310 0.450688 0.417431 -0.123179
C145  C     C_R   0.555671 0.963166 0.583009 -0.125762
C146  C     C_R   0.555530 0.037075 0.416993 -0.125752
C147  C     C_R   0.044576 0.548942 0.582538 -0.123189
C148  C     C_R   0.053713 0.460028 0.115495 0.335663
C149  C     C_R   0.954924 0.549531 0.417314 -0.123092
C150  C     C_R   0.444103 0.036732 0.583029 -0.125915
C151  C     C_R   0.444270 0.963047 0.416981 -0.125925
C152  C     C_R   0.500006 0.999975 0.131776 -0.323095
C153  C     C_R   0.499997 0.999984 0.868083 -0.314784
C154  C     C_R   0.000016 0.500000 0.131771 -0.322737
C155  C     C_R   0.000010 0.499995 0.868088 -0.314494
C156  C     C_R   0.999979 0.499836 0.631711 -0.322754
C157  C     C_R   0.999961 0.500105 0.368278 -0.322624
C158  C     C_R   0.499966 0.999999 0.631990 -0.313547
C159  C     C_R   0.057723 0.534126 0.884245 0.330770
C160  C     C_R   0.499974 0.999999 0.368014 -0.313686
C161  C     C_R   0.999125 0.499979 0.468402 0.340645
C162  C     C_R   0.999118 0.499836 0.531585 0.340712
C163  C     C_R   0.499880 0.000055 0.468325 0.335935
C164  C     C_R   0.499874 0.999984 0.531675 0.335865
C165  C     C_R   0.499997 0.999942 0.968274 0.337377
C166  C     C_R   0.500024 0.999923 0.031536 0.340036
C167  C     C_R   0.000047 0.499920 0.968277 0.337368
C168  C     C_R   0.000033 0.499943 0.031537 0.339986
C169  C     C_R   0.499999 0.999999 0.334041 1.023819
C170  C     C_R   0.539894 0.053714 0.115487 0.335791
C171  C     C_R   0.500000 0.000001 0.665961 1.024288
C172  C     C_R   0.999997 0.500003 0.334133 1.012890
C173  C     C_R   0.000001 0.499999 0.665864 1.012499
C174  C     C_R   0.000001 0.499999 0.834066 1.021310
C175  C     C_R   0.000001 0.500001 0.165882 1.015159
C176  C     C_R   0.499999 0.999998 0.834063 1.021988
C177  C     C_R   0.500001 0.999998 0.165885 1.015716
C178  C     C_R   0.359884 0.140134 0.249999 0.980168
C179  C     C_R   0.640238 0.859782 0.749993 0.924227
C180  C     C_R   0.859918 0.359858 0.250015 0.979407
C181  C     C_R   0.466063 0.057807 0.884246 0.330901
C182  C     C_R   0.140257 0.640171 0.750050 0.926144
C183  C     C_R   0.640116 0.859865 0.250000 0.980232
C184  C     C_R   0.359762 0.140219 0.749994 0.924199
C185  C     C_R   0.140082 0.640143 0.250015 0.979465
C186  C     C_R   0.859744 0.359827 0.750050 0.926329
C187  C     C_R   0.359913 0.859847 0.750016 0.982344
C188  C     C_R   0.640263 0.140181 0.250048 0.926006
C189  C     C_R   0.859904 0.640114 0.750000 0.981506
C190  C     C_R   0.140217 0.359800 0.249994 0.927927
C191  C     C_R   0.640087 0.140153 0.750016 0.982367
C192  C     C_R   0.946329 0.539961 0.115484 0.335633
C193  C     C_R   0.359738 0.859818 0.250047 0.925939
C194  C     C_R   0.140097 0.359885 0.750000 0.981640
C195  C     C_R   0.859783 0.640201 0.249994 0.928052
C196  C     C_R   0.239363 0.812075 0.232141 0.289162
C197  C     C_R   0.749912 0.197682 0.773661 0.280359
C198  C     C_R   0.187857 0.239259 0.232160 0.290063
C199  C     C_R   0.802101 0.749758 0.773666 0.280322
C200  C     C_R   0.760633 0.187934 0.232137 0.289111
C201  C     C_R   0.250074 0.802328 0.773659 0.280337
C202  C     C_R   0.812141 0.760740 0.232159 0.289975
C203  C     C_R   0.942322 0.465831 0.884248 0.330801
C204  C     C_R   0.197896 0.250240 0.773668 0.280373
C205  C     C_R   0.239795 0.188463 0.768330 0.291809
C206  C     C_R   0.750541 0.802736 0.226646 0.280744
C207  C     C_R   0.188364 0.760331 0.768300 0.292803
C208  C     C_R   0.802540 0.249598 0.226641 0.280741
C209  C     C_R   0.760204 0.811536 0.768328 0.291816
C210  C     C_R   0.249457 0.197262 0.226647 0.280712
C211  C     C_R   0.811625 0.239675 0.768304 0.292715
C212  C     C_R   0.197454 0.750414 0.226643 0.280737
C213  C     C_R   0.739234 0.312279 0.732260 0.289930
C214  C     C_R   0.959610 0.446304 0.615466 0.336608
C215  C     C_R   0.249707 0.697838 0.273726 0.280585
C216  C     C_R   0.688639 0.739898 0.731606 0.291538
C217  C     C_R   0.302863 0.250718 0.273303 0.280861
C218  C     C_R   0.260787 0.687702 0.732280 0.289490
C219  C     C_R   0.750309 0.302145 0.273734 0.280748
C220  C     C_R   0.311374 0.260113 0.731614 0.291634
C221  C     C_R   0.697143 0.749290 0.273310 0.280835
C222  C     C_R   0.739177 0.687703 0.267789 0.290510
C223  C     C_R   0.249585 0.301980 0.726287 0.280302
C224  C     C_R   0.688556 0.260204 0.268404 0.292108
H1    H     H_    0.422955 0.822617 0.181294 0.388783
H2    H     H_    0.077895 0.322950 0.319014 0.389646
H3    H     H_    0.773049 0.921882 0.530079 0.137164
H4    H     H_    0.743548 0.792111 0.521547 0.125563
H5    H     H_    0.627671 0.741461 0.541340 0.144391
H6    H     H_    0.541212 0.820070 0.569729 0.149616
H7    H     H_    0.687338 0.999776 0.441553 0.142715
H8    H     H_    0.772614 0.079582 0.469970 0.137134
H9    H     H_    0.742462 0.209234 0.478418 0.125537
H10   H     H_    0.626376 0.259251 0.458559 0.144502
H11   H     H_    0.540357 0.180130 0.430187 0.149583
H12   H     H_    0.034643 0.682619 0.554669 0.146765
H13   H     H_    0.678690 0.936667 0.683262 0.387298
H14   H     H_    0.131441 0.747702 0.526107 0.135676
H15   H     H_    0.253658 0.692639 0.520752 0.127453
H16   H     H_    0.279084 0.572080 0.543942 0.148131
H17   H     H_    0.182937 0.506252 0.572499 0.150072
H18   H     H_    0.965974 0.682960 0.445290 0.146658
H19   H     H_    0.869351 0.749344 0.473401 0.135865
H20   H     H_    0.746257 0.695974 0.478157 0.127559
H21   H     H_    0.719798 0.575761 0.454851 0.148627
H22   H     H_    0.815784 0.508606 0.426766 0.150465
H23   H     H_    0.312485 0.998340 0.558628 0.142602
H24   H     H_    0.678697 0.063603 0.316782 0.387991
H25   H     H_    0.226487 0.077351 0.530202 0.137165
H26   H     H_    0.255630 0.207176 0.521598 0.125454
H27   H     H_    0.371429 0.258171 0.541308 0.144216
H28   H     H_    0.458172 0.179847 0.569686 0.149491
H29   H     H_    0.312482 0.000711 0.441437 0.142676
H30   H     H_    0.226970 0.921214 0.469886 0.137146
H31   H     H_    0.256828 0.791541 0.478457 0.125439
H32   H     H_    0.372847 0.741187 0.458682 0.144298
H33   H     H_    0.459105 0.820000 0.430280 0.149468
H34   H     H_    0.078534 0.676813 0.680890 0.389119
H35   H     H_    0.922896 0.677438 0.318815 0.389614
H36   H     H_    0.321324 0.063185 0.683331 0.387211
H37   H     H_    0.321373 0.936520 0.316725 0.387877
H38   H     H_    0.197403 0.004910 0.242384 0.413624
H39   H     H_    0.643627 0.138095 0.840939 0.390063
H40   H     H_    0.994795 0.198513 0.242488 0.413021
H41   H     H_    0.564602 0.821295 0.817024 0.387652
H42   H     H_    0.861041 0.642750 0.840837 0.390262
H43   H     H_    0.802619 0.995100 0.242368 0.413636
H44   H     H_    0.356317 0.861937 0.840942 0.390048
H45   H     H_    0.005195 0.801518 0.242487 0.413058
H46   H     H_    0.138947 0.357238 0.840839 0.390223
H47   H     H_    0.196147 0.995685 0.759272 0.413991
H48   H     H_    0.645905 0.863518 0.159104 0.387739
H49   H     H_    0.995276 0.802503 0.759133 0.413299
H50   H     H_    0.862740 0.354907 0.159193 0.387895
H51   H     H_    0.803814 0.004329 0.759279 0.413973
H52   H     H_    0.177343 0.422931 0.181260 0.389518
H53   H     H_    0.354088 0.136480 0.159102 0.387760
H54   H     H_    0.004706 0.197458 0.759151 0.413345
H55   H     H_    0.137241 0.645139 0.159191 0.387902
H56   H     H_    0.699822 0.505781 0.742219 0.412024
H57   H     H_    0.142909 0.638155 0.340828 0.387867
H58   H     H_    0.496414 0.694715 0.740985 0.415260
H59   H     H_    0.363353 0.146281 0.340961 0.390089
H60   H     H_    0.300114 0.494191 0.742273 0.411975
H61   H     H_    0.857145 0.361792 0.340828 0.387674
H62   H     H_    0.503629 0.305187 0.740990 0.415202
H63   H     H_    0.178639 0.564884 0.817075 0.388612
H64   H     H_    0.636662 0.853751 0.340961 0.390081
H65   H     H_    0.699619 0.494270 0.257686 0.411777
H66   H     H_    0.142405 0.361315 0.659245 0.387918
H67   H     H_    0.496334 0.305179 0.258831 0.414794
H68   H     H_    0.362969 0.853920 0.659091 0.390278
H69   H     H_    0.300371 0.505736 0.257657 0.411771
H70   H     H_    0.857639 0.638723 0.659243 0.387702
H71   H     H_    0.503704 0.694906 0.258802 0.414741
H72   H     H_    0.637096 0.145996 0.659091 0.390259
H73   H     H_    0.464390 0.816413 0.055175 0.146849
H74   H     H_    0.577104 0.177320 0.181263 0.388760
H75   H     H_    0.366632 0.750617 0.027545 0.135159
H76   H     H_    0.244178 0.805438 0.022804 0.127137
H77   H     H_    0.219517 0.926531 0.045626 0.147964
H78   H     H_    0.316638 0.993108 0.073236 0.149649
H79   H     H_    0.500020 0.813042 0.941976 0.143017
H80   H     H_    0.579788 0.728343 0.970734 0.138643
H81   H     H_    0.709275 0.758917 0.979289 0.125477
H82   H     H_    0.759172 0.874849 0.959182 0.145001
H83   H     H_    0.680101 0.960244 0.930438 0.150191
H84   H     H_    0.183471 0.464313 0.055165 0.146757
H85   H     H_    0.435374 0.178698 0.817046 0.387680
H86   H     H_    0.249203 0.366592 0.027474 0.135124
H87   H     H_    0.194357 0.244139 0.022683 0.127181
H88   H     H_    0.073314 0.219433 0.045528 0.147939
H89   H     H_    0.006798 0.316519 0.073195 0.149737
H90   H     H_    0.186917 0.500498 0.941960 0.142902
H91   H     H_    0.271408 0.580482 0.970718 0.138587
H92   H     H_    0.240495 0.709900 0.979302 0.125398
H93   H     H_    0.124422 0.759511 0.959235 0.145018
H94   H     H_    0.039233 0.680222 0.930492 0.150199
H95   H     H_    0.535881 0.183419 0.055121 0.146922
H96   H     H_    0.822689 0.577134 0.181237 0.389512
H97   H     H_    0.633757 0.249049 0.027491 0.135167
H98   H     H_    0.756147 0.194060 0.022787 0.127155
H99   H     H_    0.780627 0.072970 0.045650 0.147980
H100  H     H_    0.683388 0.006558 0.073259 0.149649
H101  H     H_    0.499943 0.186853 0.942011 0.143012
H102  H     H_    0.420151 0.271522 0.970773 0.138642
H103  H     H_    0.290655 0.240939 0.979304 0.125465
H104  H     H_    0.240776 0.125027 0.959173 0.145012
H105  H     H_    0.319872 0.039658 0.930428 0.150203
H106  H     H_    0.816593 0.535600 0.055146 0.146741
H107  H     H_    0.821343 0.435101 0.817093 0.388608
H108  H     H_    0.750867 0.633289 0.027431 0.135123
H109  H     H_    0.805706 0.755741 0.022618 0.127163
H110  H     H_    0.926739 0.780477 0.045465 0.147918
H111  H     H_    0.993250 0.683422 0.073157 0.149717
H112  H     H_    0.813184 0.499113 0.942042 0.142990
H113  H     H_    0.728864 0.418894 0.970775 0.138604
H114  H     H_    0.759965 0.289480 0.979246 0.125417
H115  H     H_    0.876058 0.240114 0.959091 0.145109
H116  H     H_    0.961078 0.319639 0.930374 0.150242
H117  H     H_    0.965124 0.317049 0.554679 0.146681
H118  H     H_    0.922517 0.322620 0.681175 0.389079
H119  H     H_    0.868107 0.251095 0.526631 0.135768
H120  H     H_    0.745223 0.304992 0.521972 0.127627
H121  H     H_    0.719371 0.425305 0.545307 0.148701
H122  H     H_    0.815752 0.492033 0.573329 0.150489
H123  H     H_    0.033346 0.317075 0.445264 0.146659
H124  H     H_    0.129677 0.251125 0.473747 0.135805
H125  H     H_    0.252364 0.305150 0.479053 0.127365
H126  H     H_    0.278714 0.425563 0.455914 0.148141
H127  H     H_    0.183028 0.492271 0.427448 0.150122
H128  H     H_    0.687331 0.001178 0.558515 0.142610
N1    N     N_R   0.505185 0.062870 0.015382 -0.184294
N2    N     N_R   0.998421 0.436711 0.484490 -0.184821
N3    N     N_R   0.562917 0.000707 0.515468 -0.182470
N4    N     N_R   0.436835 0.000563 0.484532 -0.182368
N5    N     N_R   0.999399 0.436638 0.515447 -0.185000
N6    N     N_R   0.999737 0.563174 0.484540 -0.184940
N7    N     N_R   0.436834 0.999303 0.515467 -0.182346
N8    N     N_R   0.562922 0.999513 0.484532 -0.182487
N9    N     N_R   0.493735 0.937087 0.984428 -0.183341
N10   N     N_R   0.062985 0.494980 0.015385 -0.184269
N11   N     N_R   0.937184 0.505980 0.984431 -0.183362
N12   N     N_R   0.494846 0.936986 0.015377 -0.184288
N13   N     N_R   0.506272 0.062787 0.984433 -0.183364
N14   N     N_R   0.937087 0.504891 0.015380 -0.184283
N15   N     N_R   0.062903 0.493870 0.984436 -0.183340
N16   N     N_R   0.998753 0.563106 0.515497 -0.184757
O1    O     O_3   0.500000 1.000000 0.250000 -0.584593
O2    O     O_R   0.500000 0.939250 0.680570 -0.588470
O3    O     O_3   0.352672 0.969760 0.328929 -0.570289
O4    O     O_2   0.236839 0.923171 0.191417 -0.142384
O5    O     O_2   0.122159 0.892982 0.217126 -0.205374
O6    O     O_3   0.220113 0.959221 0.249660 -0.544303
O7    O     O_2   0.757712 0.081161 0.811528 -0.199345
O8    O     O_2   0.781894 0.199759 0.835091 -0.194521
O9    O     O_3   0.648682 0.167694 0.821783 -0.522599
O10   O     O_2   0.076467 0.236511 0.191601 -0.143023
O11   O     O_2   0.106749 0.121972 0.217420 -0.205670
O12   O     O_3   0.040836 0.220219 0.249912 -0.542628
O13   O     O_R   0.939250 0.500000 0.319430 -0.587185
O14   O     O_2   0.918186 0.757202 0.811775 -0.199380
O15   O     O_2   0.799343 0.781102 0.835151 -0.194742
O16   O     O_3   0.831600 0.648012 0.821648 -0.523164
O17   O     O_2   0.763142 0.076855 0.191406 -0.142417
O18   O     O_2   0.877833 0.107036 0.217105 -0.205354
O19   O     O_3   0.779895 0.040781 0.249646 -0.544267
O20   O     O_2   0.242251 0.918861 0.811515 -0.199330
O21   O     O_2   0.218054 0.800271 0.835086 -0.194504
O22   O     O_3   0.351274 0.832330 0.821789 -0.522576
O23   O     O_2   0.923528 0.763483 0.191597 -0.142993
O24   O     O_R   0.060750 0.500000 0.680570 -0.586544
O25   O     O_2   0.893248 0.878025 0.217412 -0.205675
O26   O     O_3   0.959162 0.779782 0.249906 -0.542794
O27   O     O_2   0.081802 0.242793 0.811774 -0.199421
O28   O     O_2   0.200639 0.218887 0.835153 -0.194776
O29   O     O_3   0.168388 0.351980 0.821650 -0.523183
O30   O     O_2   0.239516 0.078438 0.809675 -0.144644
O31   O     O_2   0.123430 0.107899 0.784971 -0.206610
O32   O     O_3   0.219565 0.040833 0.751791 -0.543300
O33   O     O_2   0.759431 0.919605 0.189078 -0.196970
O34   O     O_2   0.784018 0.801262 0.165377 -0.194697
O35   O     O_R   1.000000 0.439250 0.819430 -0.587926
O36   O     O_3   0.650515 0.833371 0.178122 -0.528714
O37   O     O_2   0.077978 0.760928 0.809450 -0.145290
O38   O     O_2   0.107555 0.876825 0.784590 -0.206898
O39   O     O_3   0.040876 0.780310 0.751475 -0.541695
O40   O     O_2   0.919020 0.241036 0.188850 -0.196976
O41   O     O_2   0.800457 0.216703 0.165317 -0.194932
O42   O     O_3   0.832731 0.350104 0.178241 -0.529137
O43   O     O_2   0.760486 0.921558 0.809672 -0.144668
O44   O     O_2   0.876571 0.892096 0.784967 -0.206570
O45   O     O_3   0.780437 0.959168 0.751788 -0.543267
O46   O     O_R   1.000000 0.560750 0.180570 -0.587306
O47   O     O_2   0.240564 0.080393 0.189081 -0.196961
O48   O     O_2   0.215977 0.198737 0.165378 -0.194671
O49   O     O_3   0.349481 0.166626 0.178121 -0.528699
O50   O     O_2   0.921988 0.239104 0.809464 -0.145329
O51   O     O_2   0.892422 0.123190 0.784618 -0.206856
O52   O     O_3   0.959120 0.219682 0.751494 -0.541884
O53   O     O_2   0.080966 0.758994 0.188860 -0.196966
O54   O     O_2   0.199522 0.783340 0.165321 -0.194917
O55   O     O_3   0.167252 0.649932 0.178238 -0.529118
O56   O     O_2   0.736494 0.423680 0.691665 -0.143197
O57   O     O_R   0.560750 0.000000 0.819430 -0.587958
O58   O     O_2   0.621991 0.393423 0.717487 -0.206925
O59   O     O_3   0.720210 0.459403 0.749954 -0.543854
O60   O     O_2   0.257407 0.581566 0.311715 -0.196980
O61   O     O_2   0.281193 0.700330 0.335196 -0.195251
O62   O     O_3   0.148130 0.667939 0.321733 -0.528421
O63   O     O_2   0.578674 0.739587 0.690253 -0.144686
O64   O     O_2   0.608231 0.623458 0.714930 -0.205238
O65   O     O_3   0.541096 0.719514 0.748142 -0.542544
O66   O     O_2   0.419808 0.259564 0.310830 -0.198621
O67   O     O_2   0.301563 0.284445 0.334552 -0.194061
O68   O     O_R   0.439250 1.000000 0.180570 -0.587301
O69   O     O_3   0.333404 0.150823 0.321884 -0.522442
O70   O     O_2   0.263607 0.576278 0.691705 -0.142956
O71   O     O_2   0.378056 0.606544 0.717564 -0.206924
O72   O     O_3   0.279764 0.540589 0.750005 -0.543838
O73   O     O_2   0.742632 0.418402 0.311732 -0.197256
O74   O     O_2   0.718861 0.299627 0.335209 -0.195309
O75   O     O_3   0.851916 0.332025 0.321729 -0.528733
O76   O     O_2   0.421361 0.260471 0.690270 -0.144690
O77   O     O_2   0.391789 0.376570 0.714966 -0.205159
O78   O     O_3   0.458911 0.280479 0.748164 -0.542572
O79   O     O_R   1.000000 0.560750 0.819430 -0.587869
O80   O     O_2   0.580201 0.740460 0.310840 -0.198651
O81   O     O_2   0.698446 0.715584 0.334561 -0.194062
O82   O     O_3   0.666608 0.849203 0.321883 -0.522477
O83   O     O_2   0.736470 0.576244 0.308339 -0.142945
O84   O     O_2   0.621968 0.606453 0.282505 -0.207387
O85   O     O_3   0.720272 0.540605 0.250034 -0.543428
O86   O     O_2   0.257081 0.418030 0.688160 -0.196971
O87   O     O_2   0.280731 0.299119 0.664787 -0.195444
O88   O     O_3   0.147743 0.331603 0.678355 -0.529018
O89   O     O_2   0.578429 0.260641 0.309662 -0.144345
O90   O     O_R   1.000000 0.439250 0.180570 -0.587323
O91   O     O_2   0.607994 0.376670 0.284899 -0.205804
O92   O     O_3   0.541069 0.280392 0.251727 -0.542258
O93   O     O_2   0.419543 0.740566 0.689120 -0.198798
O94   O     O_2   0.301193 0.715727 0.665485 -0.194164
O95   O     O_3   0.333080 0.849324 0.678183 -0.522686
O96   O     O_2   0.263570 0.423767 0.308321 -0.142747
O97   O     O_2   0.378050 0.393558 0.282468 -0.207408
O98   O     O_3   0.279715 0.459398 0.250010 -0.543413
O99   O     O_2   0.742951 0.581990 0.688150 -0.197336
O100  O     O_2   0.719315 0.700910 0.664779 -0.195479
O101  O     O_R   0.439250 0.000000 0.819430 -0.587972
O102  O     O_3   0.852295 0.668420 0.678356 -0.529412
O103  O     O_2   0.421610 0.739274 0.309635 -0.144281
O104  O     O_2   0.392029 0.623289 0.284842 -0.205796
O105  O     O_3   0.458937 0.719623 0.251690 -0.542320
O106  O     O_2   0.580498 0.259375 0.689096 -0.198899
O107  O     O_2   0.698859 0.284195 0.665465 -0.194199
O108  O     O_3   0.666968 0.150609 0.678187 -0.522729
O109  O     O_3   0.500000 0.000000 0.750000 -0.584798
O110  O     O_R   0.560750 1.000000 0.180570 -0.587372
O111  O     O_R   0.414500 0.146140 0.268270 -0.582480
O112  O     O_R   0.585500 0.853860 0.731730 -0.574848
O113  O     O_R   0.853860 0.414500 0.268270 -0.585843
O114  O     O_R   0.146140 0.585500 0.731730 -0.577923
O115  O     O_R   0.585500 0.853860 0.268270 -0.582522
O116  O     O_R   0.414500 0.146140 0.731730 -0.574878
O117  O     O_R   0.146140 0.585500 0.268270 -0.585774
O118  O     O_R   0.853860 0.414500 0.731730 -0.577376
O119  O     O_R   0.414500 0.853860 0.731730 -0.582605
O120  O     O_3   1.000000 0.500000 0.250000 -0.584043
O121  O     O_R   0.585500 0.146140 0.268270 -0.574006
O122  O     O_R   0.853860 0.585500 0.731730 -0.586187
O123  O     O_R   0.146140 0.414500 0.268270 -0.576808
O124  O     O_R   0.585500 0.146140 0.731730 -0.582670
O125  O     O_R   0.414500 0.853860 0.268270 -0.574082
O126  O     O_R   0.146140 0.414500 0.731730 -0.586116
O127  O     O_R   0.853860 0.585500 0.268270 -0.576459
O128  O     O_R   0.914500 0.646140 0.768270 -0.584060
O129  O     O_R   0.085500 0.353860 0.231730 -0.575906
O130  O     O_R   0.353860 0.914500 0.768270 -0.584063
O131  O     O_3   1.000000 0.500000 0.750000 -0.584198
O132  O     O_R   0.646140 0.085500 0.231730 -0.576625
O133  O     O_R   0.085500 0.353860 0.768270 -0.584011
O134  O     O_R   0.914500 0.646140 0.231730 -0.575979
O135  O     O_R   0.646140 0.085500 0.768270 -0.584071
O136  O     O_R   0.353860 0.914500 0.231730 -0.576582
O137  O     O_R   0.914500 0.353860 0.231730 -0.584659
O138  O     O_R   0.085500 0.646140 0.768270 -0.574994
O139  O     O_R   0.353860 0.085500 0.231730 -0.584777
O140  O     O_R   0.646140 0.914500 0.768270 -0.575679
O141  O     O_R   0.085500 0.646140 0.231730 -0.584623
O142  O     O_R   0.500000 0.939250 0.319430 -0.588612
O143  O     O_R   0.914500 0.353860 0.768270 -0.575040
O144  O     O_R   0.646140 0.914500 0.231730 -0.584738
O145  O     O_R   0.353860 0.085500 0.768270 -0.575690
O146  O     O_2   0.338764 0.896925 0.142516 -0.211265
O147  O     O_2   0.414203 0.805491 0.116976 -0.269492
O148  O     O_3   0.457314 0.854300 0.169869 -0.567663
O149  O     O_2   0.652049 0.886731 0.856741 -0.216550
O150  O     O_2   0.571643 0.798476 0.881486 -0.262867
O151  O     O_3   0.531220 0.852587 0.829160 -0.570400
O152  O     O_2   0.102568 0.338651 0.142671 -0.211103
O153  O     O_R   0.500000 0.060750 0.680570 -0.588486
O154  O     O_2   0.194235 0.413483 0.116956 -0.269270
O155  O     O_3   0.145742 0.457301 0.169799 -0.567417
O156  O     O_2   0.112471 0.652376 0.856582 -0.216221
O157  O     O_2   0.201160 0.572777 0.881514 -0.262711
O158  O     O_3   0.147443 0.531468 0.829240 -0.570218
O159  O     O_2   0.661264 0.103062 0.142481 -0.211302
O160  O     O_2   0.585784 0.194432 0.116920 -0.269504
O161  O     O_3   0.542708 0.145690 0.169832 -0.567619
O162  O     O_2   0.347937 0.113244 0.856760 -0.216579
O163  O     O_2   0.428347 0.201475 0.881515 -0.262873
O164  O     O_R   0.060750 0.500000 0.319430 -0.586750
O165  O     O_3   0.468764 0.147409 0.829179 -0.570384
O166  O     O_2   0.897511 0.661366 0.142647 -0.211118
O167  O     O_2   0.805824 0.586572 0.116928 -0.269252
O168  O     O_3   0.854267 0.542741 0.169777 -0.567410
O169  O     O_2   0.887403 0.347603 0.856630 -0.216277
O170  O     O_2   0.798845 0.427389 0.881539 -0.262803
O171  O     O_3   0.852590 0.468501 0.829240 -0.570225
O172  O     O_2   0.838265 0.398269 0.642874 -0.210196
O173  O     O_2   0.911961 0.306161 0.616847 -0.268350
O174  O     O_3   0.956949 0.354022 0.669647 -0.567521
O175  O     O_R   0.939250 0.500000 0.680570 -0.586979
O176  O     O_2   0.161643 0.399199 0.357235 -0.210320
O177  O     O_2   0.088738 0.306656 0.383387 -0.267765
O178  O     O_3   0.043190 0.353963 0.330584 -0.567013
O179  O     O_2   0.614605 0.848890 0.643316 -0.217799
O180  O     O_2   0.702192 0.930446 0.618838 -0.263269
O181  O     O_3   0.647241 0.969874 0.671112 -0.570781
O182  O     O_2   0.614187 0.151390 0.356625 -0.217764
O183  O     O_2   0.701978 0.070203 0.381193 -0.263103
O184  O     O_3   0.647247 0.030393 0.328930 -0.570306
O185  O     O_2   0.162018 0.600113 0.642743 -0.209762
O186  O     O_R   0.500000 0.060750 0.319430 -0.588577
O187  O     O_2   0.089600 0.692885 0.616497 -0.268110
O188  O     O_3   0.043696 0.645976 0.669310 -0.567289
O189  O     O_2   0.838519 0.601993 0.357113 -0.210633
O190  O     O_2   0.912340 0.693974 0.383157 -0.267963
O191  O     O_3   0.957300 0.646048 0.330363 -0.567171
O192  O     O_2   0.385472 0.151043 0.643434 -0.217823
O193  O     O_2   0.297718 0.069735 0.618920 -0.263051
O194  O     O_3   0.352701 0.029985 0.671144 -0.570782
O195  O     O_2   0.386003 0.848669 0.356490 -0.217776
O196  O     O_2   0.297982 0.929470 0.381136 -0.262827
S1    S     S_3+6 0.415481 0.873866 0.136011 0.066179
S2    S     S_3+6 0.085581 0.374720 0.364183 0.066715
S3    S     S_3+6 0.632648 0.927066 0.637011 0.061238
S4    S     S_3+6 0.632460 0.073296 0.362994 0.061571
S5    S     S_3+6 0.086086 0.624907 0.635746 0.066775
S6    S     S_3+6 0.914820 0.625809 0.364000 0.066558
S7    S     S_3+6 0.367300 0.072923 0.637073 0.061221
S8    S     S_3+6 0.367526 0.926675 0.362945 0.061543
S9    S     S_3+6 0.202971 0.898215 0.221392 0.155331
S10   S     S_3+6 0.736531 0.159925 0.811527 0.126993
S11   S     S_3+6 0.101620 0.202832 0.221587 0.154948
S12   S     S_3+6 0.574139 0.867881 0.863175 0.061939
S13   S     S_3+6 0.839442 0.735989 0.811580 0.126382
S14   S     S_3+6 0.797023 0.101800 0.221379 0.155316
S15   S     S_3+6 0.263432 0.840097 0.811523 0.127021
S16   S     S_3+6 0.898377 0.797166 0.221582 0.154935
S17   S     S_3+6 0.160547 0.264004 0.811581 0.126337
S18   S     S_3+6 0.203991 0.102606 0.779921 0.155074
S19   S     S_3+6 0.738110 0.840896 0.188809 0.125757
S20   S     S_3+6 0.102384 0.796198 0.779673 0.154696
S21   S     S_3+6 0.840326 0.262385 0.188757 0.125199
S22   S     S_3+6 0.796010 0.897392 0.779918 0.155072
S23   S     S_3+6 0.125927 0.415226 0.136021 0.066220
S24   S     S_3+6 0.261886 0.159102 0.188810 0.125784
S25   S     S_3+6 0.897598 0.203814 0.779690 0.154667
S26   S     S_3+6 0.159659 0.737646 0.188761 0.125220
S27   S     S_3+6 0.702832 0.398543 0.721656 0.154844
S28   S     S_3+6 0.236077 0.660286 0.311610 0.126169
S29   S     S_3+6 0.602853 0.704026 0.719999 0.155602
S30   S     S_3+6 0.341072 0.238381 0.311137 0.126794
S31   S     S_3+6 0.297206 0.601430 0.721704 0.154836
S32   S     S_3+6 0.763962 0.339681 0.311619 0.125938
S33   S     S_3+6 0.397166 0.295997 0.720021 0.155597
S34   S     S_3+6 0.131800 0.574639 0.863169 0.062025
S35   S     S_3+6 0.658937 0.761641 0.311143 0.126805
S36   S     S_3+6 0.702817 0.601398 0.278350 0.154347
S37   S     S_3+6 0.235748 0.339308 0.688375 0.125751
S38   S     S_3+6 0.602697 0.296073 0.279901 0.155109
S39   S     S_3+6 0.340801 0.761742 0.688886 0.126432
S40   S     S_3+6 0.297197 0.398611 0.278326 0.154350
S41   S     S_3+6 0.764284 0.660713 0.688369 0.125497
S42   S     S_3+6 0.397325 0.703894 0.279866 0.155104
S43   S     S_3+6 0.659241 0.238201 0.688873 0.126405
S44   S     S_3+6 0.584535 0.126087 0.135976 0.066200
S45   S     S_3+6 0.425849 0.132087 0.863194 0.061926
S46   S     S_3+6 0.874120 0.584801 0.135999 0.066216
S47   S     S_3+6 0.868191 0.425383 0.863186 0.062038
S48   S     S_3+6 0.914533 0.374325 0.636003 0.066537
Zn1   Zn    Zn3+2 0.413200 0.000000 0.224130 1.136605
Zn2   Zn    Zn3+2 0.086800 0.500000 0.275870 1.136819
Zn3   Zn    Zn3+2 0.500000 0.913200 0.724130 1.138124
Zn4   Zn    Zn3+2 0.500000 0.086800 0.275870 1.138925
Zn5   Zn    Zn3+2 0.086800 0.500000 0.724130 1.135787
Zn6   Zn    Zn3+2 0.913200 0.500000 0.275870 1.136769
Zn7   Zn    Zn3+2 0.500000 0.086800 0.724130 1.138094
Zn8   Zn    Zn3+2 0.500000 0.913200 0.275870 1.138905
Zn9   Zn    Zn3+2 0.586800 0.000000 0.775870 1.137442
Zn10  Zn    Zn3+2 0.000000 0.413200 0.224130 1.137293
Zn11  Zn    Zn3+2 0.000000 0.586800 0.775870 1.138048
Zn12  Zn    Zn3+2 0.586800 0.000000 0.224130 1.136620
Zn13  Zn    Zn3+2 0.413200 0.000000 0.775870 1.137423
Zn14  Zn    Zn3+2 0.000000 0.586800 0.224130 1.137364
Zn15  Zn    Zn3+2 0.000000 0.413200 0.775870 1.138160
Zn16  Zn    Zn3+2 0.913200 0.500000 0.724130 1.135805

loop_
_geom_bond_atom_site_label_1
_geom_bond_atom_site_label_2
_ccdc_geom_bond_type
C118  H15   S    
C31   C161  S    
C101  C148  A    
C126  C127  A    
C179  O140  A    
O94   S39   D    
N6    N16   A    
C173  O175  A    
O60   S28   D    
C55   C56   A    
O25   S16   D    
C159  S34   S    
O109  Zn7   S    
C69   H101  S    
O29   S17   S    
C61   C124  S    
O168  S46   S    
C21   C199  A    
C164  N3    A    
C224  S38   S    
H67   O92   S    
C188  O132  A    
C6    C25   A    
C103  H3    S    
H107  O171  S    
O131  Zn5   S    
C108  C109  A    
C27   C90   A    
C110  C111  A    
C207  S20   S    
C181  S45   S    
O169  S47   D    
C6    C215  A    
C175  O90   A    
O136  Zn1   S    
O1    Zn8   S    
O28   S17   D    
C3    C19   A    
C91   H120  S    
O162  S45   D    
O8    S10   D    
C22   C190  S    
O142  Zn8   S    
C81   C86   A    
O126  Zn5   S    
C179  O112  A    
O21   S15   D    
O120  Zn6   S    
H46   O29   S    
C59   C60   A    
C200  C208  A    
C46   S6    S    
O83   S36   D    
O145  Zn13  S    
C196  S9    S    
O95   S39   S    
H52   O155  S    
O176  S2    D    
C104  C105  A    
C14   C182  S    
C193  O136  A    
H71   O105  S    
C198  S11   S    
C104  H4    S    
O52   S25   S    
C45   C47   A    
O6    S9    S    
C84   H114  S    
O189  S6    D    
H53   O49   S    
C51   C52   A    
O103  S42   D    
C212  S26   S    
O42   S21   S    
H64   O82   S    
O65   S29   S    
O159  S44   D    
H40   O12   S    
C32   C145  A    
O91   S38   D    
C9    C213  A    
O23   S16   D    
C189  O128  A    
O179  S3    D    
C175  O46   A    
N4    N7    A    
C194  O126  A    
C30   C143  A    
C106  H6    S    
C199  C209  A    
C44   H81   S    
C43   C44   A    
C37   C38   A    
C197  C211  A    
C152  C170  A    
O188  S5    S    
O128  Zn11  S    
C193  O125  A    
C167  N15   A    
C20   C224  A    
O161  S44   S    
C123  H19   S    
C133  H28   S    
C27   C165  S    
C128  C150  S    
O129  Zn10  S    
C9    C186  S    
C201  S15   S    
C185  O141  A    
C1    C79   A    
C172  O13   A    
C11   C179  S    
C88   H117  S    
C30   C162  S    
O37   S20   D    
C138  H31   S    
C39   C40   A    
O75   S32   S    
C129  H23   S    
C202  C206  A    
O9    S10   S    
C29   C113  A    
C168  N14   A    
C178  O139  A    
O122  Zn16  S    
C72   C73   A    
C65   H99   S    
O96   S40   D    
C139  C140  A    
C16   C184  S    
C165  N9    A    
C43   H80   S    
C100  C106  A    
C94   C144  S    
C130  C131  A    
O185  S5    D    
C68   C151  A    
C64   C65   A    
O97   S40   D    
O85   S36   S    
C2    C157  A    
C134  C151  S    
H41   O151  S    
C121  C149  S    
C139  H32   S    
C120  H17   S    
O119  Zn3   S    
C69   C70   A    
C178  O111  A    
C15   C206  A    
C28   C168  S    
C102  H128  S    
C163  N4    A    
C196  C212  A    
O125  Zn8   S    
O130  Zn13  S    
C5    C21   A    
C88   C89   A    
C98   C99   A    
O34   S19   D    
C14   C218  A    
C47   H83   S    
C68   C160  A    
O39   S20   S    
H38   O6    S    
H36   O194  S    
C37   H75   S    
C95   H123  S    
O27   S17   D    
C38   H76   S    
C62   H95   S    
O166  S46   D    
O26   S16   S    
C214  S48   S    
O53   S26   D    
C156  C214  A    
C13   C145  A    
C49   H84   S    
C128  C129  A    
C192  S46   S    
C97   C98   A    
O163  S45   D    
C30   C147  A    
C85   C86   A    
O117  Zn2   S    
H85   O165  S    
C189  O122  A    
O5    S9    D    
O131  Zn15  S    
C36   C37   A    
C33   C163  S    
O100  S41   D    
C38   C39   A    
C109  H8    S    
C78   C80   A    
C48   C101  S    
C115  C116  A    
C19   C201  A    
C111  H10   S    
C4    C22   A    
O16   S13   S    
C1    C152  A    
C20   C200  A    
C219  C224  A    
C21   C189  S    
H57   O62   S    
C10   C210  A    
O92   S38   S    
C6    S42   S    
C107  C108  A    
C217  S30   S    
C77   H109  S    
C89   C91   A    
C162  N16   A    
C110  H9    S    
O170  S47   D    
O109  Zn3   S    
H62   O78   S    
C96   C97   A    
O140  Zn9   S    
H118  O174  S    
C17   C194  S    
C141  C192  A    
H70   O102  S    
C164  N7    A    
C155  C203  A    
C169  O142  A    
O89   S38   D    
C42   H79   S    
C48   C53   A    
C155  C159  A    
H51   O45   S    
C136  H29   S    
O64   S29   D    
C148  S23   S    
C16   C205  A    
C2    S2    S    
C55   H90   S    
C91   C92   A    
C107  C146  S    
C173  O24   A    
O13   Zn6   S    
O71   S31   D    
O1    Zn12  S    
C52   H88   S    
H68   O95   S    
C87   C88   A    
C66   H100  S    
C221  C222  A    
C17   C223  A    
C34   C79   S    
C20   C188  S    
O43   S22   D    
C191  O135  A    
O154  S23   D    
O80   S35   D    
O120  Zn2   S    
C83   C84   A    
H65   O85   S    
C100  C145  S    
H63   O158  S    
C41   C47   A    
C32   C150  A    
C170  S44   S    
C127  H22   S    
O57   Zn9   S    
C113  C159  A    
O3    S8    S    
C209  S22   S    
C25   C196  A    
H55   O55   S    
C155  C174  S    
C81   C142  S    
C12   C180  S    
C74   C141  S    
N11   N14   A    
C112  S12   S    
C135  C181  A    
C58   H92   S    
O55   S26   S    
C98   H126  S    
C180  O113  A    
O32   S18   S    
C52   C53   A    
C68   S8    S    
C60   H94   S    
C129  C130  A    
C130  H25   S    
O38   S20   D    
O177  S2    D    
C154  C192  A    
C54   C55   A    
O108  S43   S    
C184  O145  A    
C93   H122  S    
C194  O133  A    
H43   O19   S    
C197  S10   S    
O4    S9    D    
C131  H26   S    
C114  H11   S    
O74   S32   D    
C24   S4    S    
C11   C216  A    
O49   S24   S    
O193  S7    D    
O7    S10   D    
C174  O79   A    
H48   O36   S    
C27   C135  A    
O17   S14   D    
O124  Zn7   S    
C71   C72   A    
C211  S25   S    
C117  C118  A    
C210  S24   S    
O147  S1    D    
O67   S30   D    
C3    C218  A    
C7    C23   A    
C32   C164  S    
C203  S47   S    
C56   C58   A    
C16   C220  A    
C34   C36   A    
C102  C103  A    
C198  C210  A    
C195  O134  A    
O151  S12   S    
C33   C146  A    
C63   C64   A    
C186  O143  A    
C46   C149  A    
O182  S4    D    
C204  C205  A    
C168  N10   A    
C49   C50   A    
C183  O115  A    
O135  Zn9   S    
C74   C80   A    
O195  S8    D    
C191  O124  A    
C8    C212  A    
C220  C223  A    
C132  H27   S    
O48   S24   D    
O20   S15   D    
C57   C158  A    
C76   H108  S    
C213  S27   S    
C71   H103  S    
O148  S1    S    
C41   C42   A    
O175  Zn16  S    
C208  S21   S    
C177  O68   A    
O101  Zn13  S    
C220  S33   S    
C70   H102  S    
H49   O39   S    
C77   C78   A    
O62   S28   S    
O88   S37   S    
O14   S13   D    
O171  S47   S    
O165  S45   S    
H13   O181  S    
O194  S7    S    
C85   H115  S    
O110  Zn12  S    
C121  C127  A    
O41   S21   D    
C216  S29   S    
C166  N12   A    
C31   C149  A    
C123  C125  A    
O118  Zn16  S    
O107  S43   D    
C115  C147  S    
C2    C144  A    
C125  H20   S    
C180  O137  A    
O150  S12   D    
C152  C177  S    
H56   O59   S    
C1    S1    S    
C39   H77   S    
C19   C187  S    
H74   O161  S    
C73   H105  S    
C28   C101  A    
C26   C166  S    
H1    O148  S    
O109  Zn9   S    
O184  S4    S    
C15   C183  S    
C160  C169  S    
C70   C71   A    
C67   C73   A    
O144  Zn12  S    
C137  H30   S    
O44   S22   D    
O106  S43   D    
O50   S25   D    
H44   O22   S    
C14   C207  A    
H37   O3    S    
C126  H21   S    
O131  Zn11  S    
C119  H16   S    
C83   H113  S    
C148  C154  A    
C45   H82   S    
H39   O9    S    
H35   O191  S    
H2    O178  S    
C51   H87   S    
N10   N15   A    
C171  O2    A    
O40   S21   D    
C140  H33   S    
O11   S11   D    
O99   S41   D    
O121  Zn4   S    
O98   S40   S    
C84   C85   A    
C190  O129  A    
C122  H18   S    
O123  Zn2   S    
C136  C137  A    
C190  O123  A    
C58   C59   A    
C156  C173  S    
C188  O121  A    
C9    C211  A    
O149  S12   D    
C105  H5    S    
C67   C135  S    
C63   H97   S    
C107  C114  A    
C62   C63   A    
C221  S35   S    
N1    N13   A    
O183  S4    D    
O120  Zn14  S    
C89   H119  S    
C116  H12   S    
C50   C51   A    
C201  C207  A    
O141  Zn14  S    
C18   C202  A    
C40   H78   S    
H47   O32   S    
O30   S18   D    
C121  C122  A    
C169  O186  A    
C166  N1    A    
O70   S31   D    
C75   H106  S    
C153  C181  A    
C117  H14   S    
O178  S2    S    
C204  S17   S    
C125  C126  A    
O68   Zn1   S    
C162  N5    A    
C42   C43   A    
C131  C132  A    
O105  S42   S    
O127  Zn6   S    
C25   C193  S    
C44   C45   A    
H24   O184  S    
O2    Zn3   S    
O54   S26   D    
O173  S48   D    
C18   C195  S    
C22   C198  A    
O12   S11   S    
C7    C213  A    
O146  S1    D    
O186  Zn4   S    
C5    S41   S    
C119  C120  A    
C4    C217  A    
C177  O110  A    
C72   H104  S    
C7    S43   S    
C105  C106  A    
C26   C79   A    
O156  S34   D    
C46   C157  A    
C187  O119  A    
H45   O26   S    
C29   C167  S    
C82   H112  S    
O73   S32   D    
O180  S3    D    
O109  Zn13  S    
C109  C110  A    
C134  C140  A    
C218  S31   S    
O77   S33   D    
C48   C49   A    
C92   C93   A    
C223  S37   S    
C86   H116  S    
O51   S25   D    
C111  C114  A    
O15   S13   D    
C94   C95   A    
C18   C222  A    
H69   O98   S    
C59   H93   S    
O19   S14   S    
C138  C139  A    
H66   O88   S    
O143  Zn15  S    
O66   S30   D    
O72   S31   S    
C82   C83   A    
O46   Zn14  S    
O113  Zn6   S    
C103  C104  A    
O93   S39   D    
C128  C133  A    
O134  Zn14  S    
C64   H98   S    
O90   Zn10  S    
O76   S33   D    
O174  S48   S    
C95   C96   A    
O139  Zn1   S    
C90   C112  A    
C75   C76   A    
C8    C215  A    
C23   C191  S    
C81   C82   A    
O36   S19   S    
C54   C60   A    
O120  Zn10  S    
C153  C176  S    
O47   S24   D    
C154  C175  S    
C34   C40   A    
C12   C208  A    
C97   H125  S    
O61   S28   D    
O63   S29   D    
C157  C172  S    
O79   Zn11  S    
C92   H121  S    
C99   H127  S    
C158  C171  S    
C57   S7    S    
O164  Zn2   S    
C184  O116  A    
O137  Zn10  S    
C54   C113  S    
C87   C93   A    
C80   H111  S    
H54   O52   S    
C116  C117  A    
C3    S39   S    
O112  Zn3   S    
C31   C144  A    
C118  C119  A    
O196  S8    D    
C61   C66   A    
O138  Zn11  S    
C132  C133  A    
O157  S34   D    
C35   C156  A    
C78   H110  S    
C186  O118  A    
C205  S18   S    
O132  Zn12  S    
C12   C219  A    
C174  O35   A    
H50   O42   S    
C56   H91   S    
O69   S30   S    
O24   Zn5   S    
O172  S48   D    
N3    N8    A    
C182  O138  A    
O10   S11   D    
C26   C124  A    
O190  S6    D    
C167  N11   A    
O115  Zn8   S    
C61   C62   A    
O114  Zn5   S    
H42   O16   S    
C171  O153  A    
C202  S16   S    
C215  S28   S    
O160  S44   D    
C74   C75   A    
O59   S27   S    
O131  Zn16  S    
C10   C178  S    
C76   C77   A    
O158  S34   S    
C161  N2    A    
C176  O101  A    
C134  C136  A    
C5    C216  A    
O152  S23   D    
N9    N12   A    
H61   O75   S    
C67   C69   A    
C15   C221  A    
C17   C204  A    
H59   O69   S    
C165  N13   A    
C57   C150  A    
C100  C102  A    
O58   S27   D    
C35   C147  A    
O111  Zn4   S    
C50   H86   S    
C143  C214  A    
O133  Zn15  S    
C195  O127  A    
C65   C66   A    
C112  C153  A    
C24   C146  A    
C200  S14   S    
O78   S33   S    
O104  S42   D    
C199  S13   S    
C176  O57   A    
C13   C158  A    
C185  O117  A    
O192  S7    D    
C163  N8    A    
H58   O65   S    
O82   S35   S    
C219  S32   S    
O18   S14   D    
O45   S22   S    
C33   C151  A    
C96   H124  S    
H34   O188  S    
C24   C160  A    
O81   S35   D    
C28   C141  A    
O102  S41   S    
C8    C185  S    
O153  Zn7   S    
N2    N5    A    
C137  C138  A    
C23   C197  A    
C222  S36   S    
O87   S37   D    
O35   Zn15  S    
C35   S5    S    
C87   C143  S    
C142  C203  A    
H60   O72   S    
O56   S27   D    
O155  S23   S    
O1    Zn1   S    
C11   C209  A    
O191  S6    S    
C36   H73   S    
C94   C99   A    
H96   O168  S    
C187  O130  A    
C29   C142  A    
O22   S15   S    
C172  O164  A    
O33   S19   D    
O84   S36   D    
O86   S37   D    
O187  S5    D    
O181  S3    S    
O167  S46   D    
C124  C170  A    
C183  O144  A    
C10   C217  A    
O1    Zn4   S    
C115  C120  A    
C206  S19   S    
O31   S18   D    
C53   H89   S    
C182  O114  A    
O116  Zn7   S    
C13   S3    S    
C122  C123  A    
H72   O108  S    
C161  N6    A    
C41   C90   S    
C4    S40   S    
C108  H7    S    
