data_mof_unit_17962.cif
_audit_creation_date              2013-03-05T15:59:35-0500
_audit_creation_method            fapswitch 2.2
_symmetry_space_group_name_H-M    P1
_symmetry_Int_Tables_number       1
_space_group_crystal_system       triclinic
_cell_length_a                    12.752607
_cell_length_b                    13.347874
_cell_length_c                    15.747807
_cell_angle_alpha                 93.853506
_cell_angle_beta                  102.570755
_cell_angle_gamma                 83.418768
_cell_volume                      2596.62475194

loop_
_atom_site_label
_atom_site_type_symbol
_atom_site_description
_atom_site_fract_x
_atom_site_fract_y
_atom_site_fract_z
_atom_type_partial_charge
O1    O     O_R   0.366730 0.627160 0.478790 -0.543513
O2    O     O_R   0.544830 0.662520 0.507160 -0.634518
C1    C     C_R   0.440439 0.690221 0.488080 0.988829
O3    O     O_R   0.410960 0.482330 0.609040 -0.607205
O4    O     O_R   0.589060 0.517690 0.637410 -0.546863
C2    C     C_R   0.501195 0.497981 0.661432 0.931890
Zn1   Zn    Zn3+2 0.381080 0.476390 0.481050 1.091929
Zn2   Zn    Zn3+2 0.618920 0.523610 0.518950 1.074445
O5    O     O_R   0.455170 0.337480 0.492840 -0.553930
O6    O     O_R   0.633270 0.372840 0.521210 -0.540765
O7    O     O_R   0.410940 0.482310 0.362590 -0.598653
O8    O     O_R   0.589040 0.517670 0.390960 -0.605325
C3    C     C_R   0.558838 0.310486 0.516154 0.981197
C4    C     C_R   0.498534 0.499549 0.338121 0.914733
C5    C     C_3   0.392726 0.504189 0.008264 0.057650
C6    C     C_3   0.452189 0.572906 0.964337 0.324914
C7    C     C_1   0.500818 0.489025 0.749330 -0.146038
C8    C     C_1   0.496457 0.495494 0.248473 -0.040387
C9    C     C_3   0.433454 0.410743 0.957280 0.274456
C10   C     C_3   0.492994 0.479613 0.913093 -0.099240
C11   C     C_3   0.536801 0.393444 0.029046 0.314737
C12   C     C_3   0.495286 0.487295 0.081397 -0.237139
C13   C     C_3   0.596087 0.462934 0.985183 0.265762
C14   C     C_3   0.554704 0.555983 0.036038 0.107357
C15   C     C_1   0.496127 0.482112 0.823013 0.152151
C16   C     C_1   0.495770 0.491384 0.172820 0.251980
C17   C     C_R   0.721479 0.064516 0.593124 0.280129
C18   C     C_R   0.590120 0.204282 0.536754 -0.333300
C19   C     C_R   0.318332 0.822998 0.400681 0.175597
C20   C     C_R   0.306874 0.917928 0.364823 0.149224
C21   C     C_R   0.383636 0.986368 0.396569 0.250705
C22   C     C_R   0.465509 0.964728 0.471960 -0.070438
C23   C     C_R   0.476659 0.869842 0.508716 -0.196137
C24   C     C_R   0.539910 0.034015 0.512117 -0.087039
C25   C     C_R   0.642402 0.998005 0.559913 -0.268914
C26   C     C_R   0.658320 0.896777 0.580655 0.525869
C27   C     C_R   0.566595 0.847504 0.577874 0.258899
C28   C     C_R   0.510047 0.136994 0.513695 0.484256
C29   C     C_R   0.695085 0.169039 0.582420 0.188669
C30   C     C_R   0.406424 0.797027 0.470230 -0.197299
C31   C     C_R   0.077192 0.373539 0.354668 0.313728
N1    N     N_R   0.222180 0.444680 0.455580 -0.239557
C32   C     C_R   0.812278 0.604055 0.623722 0.509908
C33   C     C_R   0.923273 0.620252 0.651123 0.174944
C34   C     C_R   0.996281 0.562802 0.610200 0.379027
C35   C     C_R   0.962791 0.525404 0.524540 -0.132616
C36   C     C_R   0.850475 0.515059 0.493985 -0.101341
C37   C     C_R   0.039130 0.485757 0.473861 -0.133570
C38   C     C_R   0.002417 0.433098 0.395211 -0.197056
C39   C     C_R   0.891178 0.441372 0.359153 0.285648
C40   C     C_R   0.819832 0.455885 0.415913 0.296936
C41   C     C_R   0.149500 0.503937 0.494575 0.353905
C42   C     C_R   0.187862 0.385358 0.382586 0.471023
N2    N     N_R   0.776980 0.554790 0.543960 -0.182023
O9    O     O_3   0.411777 0.664275 0.922958 -0.564308
C43   C     C_3   0.369284 0.734595 0.980927 0.200557
H1    H     H_    0.419745 0.733800 0.048235 0.171510
H2    H     H_    0.286294 0.718890 0.983068 0.193877
C44   C     C_3   0.363048 0.840171 0.948102 -0.741086
H3    H     H_    0.311859 0.844519 0.881416 0.257003
H4    H     H_    0.327353 0.896187 0.991996 0.221671
H5    H     H_    0.445282 0.858874 0.946644 0.279270
O10   O     O_3   0.400894 0.170926 0.499983 -0.542507
C45   C     C_3   0.366459 0.169769 0.579388 0.099261
H6    H     H_    0.404655 0.227322 0.627106 0.136934
H7    H     H_    0.386334 0.094061 0.608133 0.148198
C46   C     C_3   0.244481 0.194384 0.562852 -0.750551
H8    H     H_    0.204529 0.139437 0.513721 0.261431
H9    H     H_    0.216213 0.190354 0.624311 0.214922
H10   H     H_    0.221447 0.271638 0.538758 0.229200
N3    N     N_R   0.252380 0.747883 0.355239 0.252459
O11   O     O_R   0.149025 0.758282 0.352181 -0.263195
O12   O     O_R   0.291232 0.681632 0.302680 -0.382941
N4    N     N_R   0.384324 0.071967 0.346302 0.267949
O13   O     O_R   0.295663 0.130084 0.320472 -0.332254
O14   O     O_R   0.472041 0.089210 0.322712 -0.363700
N5    N     N_R   0.225965 0.938703 0.287537 0.259207
O15   O     O_R   0.253721 0.945443 0.213521 -0.343834
O16   O     O_R   0.124358 0.950969 0.291058 -0.350584
N6    N     N_R   0.555995 0.800843 0.655105 0.232715
O17   O     O_R   0.625838 0.815716 0.727228 -0.365600
O18   O     O_R   0.464729 0.769628 0.660449 -0.382825
O19   O     O_3   0.261916 0.341801 0.334356 -0.526843
C47   C     C_3   0.234156 0.374213 0.246917 0.243931
H11   H     H_    0.296150 0.420097 0.235792 0.174145
H12   H     H_    0.156280 0.423060 0.229561 0.168563
C48   C     C_3   0.233002 0.284141 0.182146 -0.690576
H13   H     H_    0.174503 0.232446 0.190921 0.297972
H14   H     H_    0.208631 0.311106 0.114878 0.174651
H15   H     H_    0.314865 0.242482 0.190514 0.276560
N7    N     N_R   0.851130 0.439301 0.266283 0.231737
O20   O     O_R   0.748195 0.439855 0.233986 -0.376062
O21   O     O_R   0.911927 0.464954 0.216565 -0.392651
O22   O     O_3   0.043100 0.306597 0.285908 -0.589598
C49   C     C_3   0.018145 0.218399 0.318702 0.117077
H16   H     H_    0.964423 0.235473 0.366057 0.169107
H17   H     H_    0.093587 0.173663 0.351011 0.198997
C50   C     C_3   0.959258 0.155018 0.243330 -0.644677
H18   H     H_    0.012129 0.131820 0.196462 0.262881
H19   H     H_    0.936413 0.086504 0.268149 0.242919
H20   H     H_    0.884796 0.199510 0.209259 0.249511
N8    N     N_R   0.176763 0.601060 0.532826 0.259805
O23   O     O_R   0.250949 0.609585 0.603109 -0.304691
O24   O     O_R   0.117782 0.682139 0.502703 -0.390935
O25   O     O_3   0.737891 0.633135 0.676485 -0.546114
C51   C     C_3   0.784374 0.628849 0.767311 0.209359
H21   H     H_    0.809939 0.704037 0.792451 0.232673
H22   H     H_    0.853307 0.568737 0.782370 0.143166
C52   C     C_3   0.704226 0.604442 0.818798 -0.681730
H23   H     H_    0.698211 0.522144 0.811488 0.259339
H24   H     H_    0.734632 0.623184 0.888943 0.251529
H25   H     H_    0.624414 0.647794 0.796988 0.303470
N9    N     N_R   0.281866 0.527605 0.019365 0.199204
O26   O     O_R   0.203460 0.538715 0.951302 -0.387294
O27   O     O_R   0.260846 0.540550 0.096733 -0.403868
O28   O     O_3   0.098720 0.536829 0.658731 -0.553817
C53   C     C_3   0.102177 0.440566 0.691909 0.106401
H26   H     H_    0.071965 0.383634 0.639761 0.145001
H27   H     H_    0.053340 0.444821 0.742979 0.180684
C54   C     C_3   0.218526 0.404701 0.732521 -0.670748
H28   H     H_    0.251515 0.459317 0.785217 0.305229
H29   H     H_    0.222226 0.329679 0.759912 0.218749
H30   H     H_    0.268342 0.397831 0.682302 0.241314
O29   O     O_3   0.962950 0.673319 0.728052 -0.626421
C55   C     C_3   0.012078 0.757091 0.710749 0.186664
H31   H     H_    0.950489 0.813140 0.674397 0.225741
H32   H     H_    0.076315 0.734814 0.673295 0.210502
C56   C     C_3   0.063987 0.807481 0.796672 -0.682751
H33   H     H_    0.126783 0.753460 0.834522 0.268089
H34   H     H_    0.102228 0.874134 0.784135 0.216935
H35   H     H_    0.001832 0.832681 0.835344 0.268811
N10   N     N_R   0.766108 0.368489 0.419475 0.221765
O30   O     O_R   0.694559 0.339900 0.352718 -0.353309
O31   O     O_R   0.816426 0.300007 0.472909 -0.381719
N11   N     N_R   0.618930 0.636155 0.078230 0.221607
O32   O     O_R   0.658124 0.692991 0.031464 -0.364725
O33   O     O_R   0.635041 0.653192 0.162097 -0.355910
O34   O     O_3   0.695709 0.440495 0.959340 -0.642583
C57   C     C_3   0.781432 0.435840 0.032485 0.190882
H36   H     H_    0.770491 0.380665 0.078832 0.210833
H37   H     H_    0.788928 0.511576 0.065559 0.236946
C58   C     C_3   0.886016 0.401437 0.002559 -0.746820
H38   H     H_    0.900252 0.455771 0.956847 0.261110
H39   H     H_    0.955073 0.396994 0.059423 0.256231
H40   H     H_    0.881100 0.325652 0.969070 0.249996
O35   O     O_3   0.579652 0.302657 0.070533 -0.578932
C59   C     C_3   0.611679 0.229601 0.009636 0.100184
H41   H     H_    0.681977 0.251193 0.986636 0.177769
H42   H     H_    0.545087 0.218412 0.952415 0.184208
C60   C     C_3   0.644655 0.129205 0.053149 -0.731260
H43   H     H_    0.575143 0.104534 0.075371 0.268609
H44   H     H_    0.670903 0.071043 0.006163 0.223915
H45   H     H_    0.712485 0.136869 0.110091 0.264707
O36   O     O_3   0.373472 0.334966 0.909974 -0.618784
C61   C     C_3   0.319460 0.290281 0.964679 0.119233
H46   H     H_    0.242439 0.336925 0.967901 0.197448
H47   H     H_    0.368657 0.280980 0.031971 0.171466
C62   C     C_3   0.293036 0.186022 0.926809 -0.817076
H48   H     H_    0.368542 0.137199 0.922764 0.256566
H49   H     H_    0.249844 0.150758 0.969248 0.228959
H50   H     H_    0.240690 0.191805 0.860689 0.260634
N12   N     N_R   0.765841 0.238792 0.631933 0.259032
O37   O     O_R   0.728664 0.307864 0.683246 -0.418597
O38   O     O_R   0.869538 0.224555 0.636583 -0.308890
O39   O     O_3   0.756822 0.841497 0.580926 -0.589582
C63   C     C_3   0.760682 0.810895 0.493214 0.007768
H51   H     H_    0.712750 0.864435 0.444126 0.165130
H52   H     H_    0.728682 0.736492 0.477309 0.174072
C64   C     C_3   0.876139 0.802169 0.480562 -0.660826
H53   H     H_    0.927611 0.747623 0.525246 0.233748
H54   H     H_    0.878555 0.775255 0.412668 0.248626
H55   H     H_    0.908400 0.876708 0.493042 0.287890
N13   N     N_R   0.821794 0.028238 0.648270 0.261290
O40   O     O_R   0.910629 0.019302 0.619351 -0.361624
O41   O     O_R   0.823094 0.997120 0.725063 -0.362335

loop_
_geom_bond_atom_site_label_1
_geom_bond_atom_site_label_2
_geom_bond_distance
_ccdc_geom_bond_type
C62   H49   1.110647 S    
O9    C43   1.411237 S    
O39   C63   1.423495 S    
C61   H47   1.114651 S    
C64   H53   1.101979 S    
C4    C8    1.403743 S    
C13   O34   1.410966 S    
C49   H16   1.114084 S    
C8    C16   1.187104 T    
C47   C48   1.522747 S    
C59   H41   1.110200 S    
C48   H13   1.107912 S    
C56   H33   1.110921 S    
C17   N13   1.433922 S    
C49   C50   1.520258 S    
N11   O32   1.299999 A    
N5    O15   1.301137 A    
C43   H1    1.113901 S    
Zn1   O7    1.991787 S    
C41   N8    1.439290 S    
N12   O37   1.301614 A    
N4    O14   1.301412 A    
C26   C27   1.397471 A    
C9    C11   1.544189 S    
C47   H12   1.115106 S    
O35   C59   1.410995 S    
C53   H27   1.114303 S    
N1    C42   1.370391 A    
C20   C21   1.404749 A    
Zn2   O6    2.001779 S    
C57   C58   1.521790 S    
C10   C15   1.430514 S    
C5    C6    1.538816 S    
O28   C53   1.411791 S    
N11   O33   1.300176 A    
C24   C25   1.407934 A    
C32   O25   1.398663 S    
Zn1   N1    2.065494 S    
O5    C3    1.307559 A    
C62   H50   1.110044 S    
O1    Zn1   2.001779 S    
C28   O10   1.388231 S    
C20   N5    1.433866 S    
C5    C12   1.549028 S    
O19   C47   1.428754 S    
C17   C29   1.409770 A    
N10   O30   1.300655 A    
C60   H45   1.110451 S    
C55   C56   1.520304 S    
C13   C14   1.537032 S    
C5    N9    1.458036 S    
C3    C18   1.466235 S    
C54   H30   1.110409 S    
C6    C10   1.540085 S    
N5    O16   1.300111 A    
C55   H31   1.109712 S    
C44   H3    1.110616 S    
C6    C14   1.535942 S    
N13   O40   1.300519 A    
C11   C12   1.558319 S    
C61   C62   1.521300 S    
C63   H52   1.109288 S    
C64   H54   1.110548 S    
C58   H40   1.110743 S    
C63   H51   1.118197 S    
N8    O23   1.298046 A    
O3    Zn1   1.965987 S    
C31   C38   1.404270 A    
C54   H29   1.108800 S    
N12   O38   1.300897 A    
N13   O41   1.300947 A    
C27   N6    1.441539 S    
C35   C37   1.424099 A    
C44   H4    1.110642 S    
C23   C30   1.413605 A    
N4    O13   1.298765 A    
C46   H8    1.110815 S    
C45   C46   1.521012 S    
C59   C60   1.520202 S    
C47   H11   1.102962 S    
N6    O18   1.301475 A    
C52   H25   1.108288 S    
Zn2   N2    2.053287 S    
N7    O20   1.299830 A    
N3    O12   1.300862 A    
C21   N4    1.434942 S    
C36   C40   1.421002 A    
C18   C29   1.418574 A    
C17   C25   1.411339 A    
C34   C35   1.399598 A    
C33   O29   1.387573 S    
C23   C27   1.418437 A    
N9    O27   1.299773 A    
O1    C1    1.310891 A    
C25   C26   1.393255 A    
C22   C24   1.420142 A    
C5    C9    1.539028 S    
C32   C33   1.424171 A    
C19   C20   1.401289 A    
N7    O21   1.300959 A    
C32   N2    1.386900 A    
C31   O22   1.383480 S    
C10   C13   1.544023 S    
C18   C28   1.409339 A    
Zn2   O8    1.965985 S    
C39   C40   1.398077 A    
C29   N12   1.441446 S    
N8    O24   1.299660 A    
C31   C42   1.407714 A    
O36   C61   1.412037 S    
C36   N2    1.389278 A    
C14   N11   1.458066 S    
O3    C2    1.291203 A    
C37   C38   1.397600 A    
O8    C4    1.304581 A    
C1    C30   1.469228 S    
C38   C39   1.403174 A    
C50   H19   1.110246 S    
C48   H14   1.109323 S    
C12   C16   1.435765 S    
C62   H48   1.110497 S    
C64   H55   1.109119 S    
C60   H44   1.110516 S    
C53   C54   1.518219 S    
C56   H35   1.110750 S    
C58   H39   1.110342 S    
C54   H28   1.110896 S    
C57   H36   1.111170 S    
N9    O26   1.300575 A    
Zn1   O5    1.983285 S    
C2    C7    1.398430 S    
C35   C36   1.427777 A    
C44   H5    1.110804 S    
C59   H42   1.110554 S    
C24   C28   1.383690 A    
C21   C22   1.421435 A    
O2    Zn2   1.983285 S    
C33   C34   1.378874 A    
N6    O17   1.301000 A    
O6    C3    1.318830 A    
C56   H34   1.110546 S    
O4    Zn2   1.991786 S    
C40   N10   1.429029 S    
C49   H17   1.112261 S    
C50   H20   1.110879 S    
O25   C51   1.426404 S    
C60   H43   1.110925 S    
C43   C44   1.521104 S    
C42   O19   1.390580 S    
C46   H10   1.108248 S    
C7    C15   1.185059 T    
C22   C23   1.407410 A    
C9    C10   1.543286 S    
C11   C13   1.543779 S    
O2    C1    1.314247 A    
C6    O9    1.412143 S    
N3    O11   1.300061 A    
C45   H7    1.114980 S    
C53   H26   1.116169 S    
C45   H6    1.113984 S    
C57   H37   1.109981 S    
C34   O28   1.381334 S    
O4    C2    1.316553 A    
C51   H22   1.116220 S    
C52   H24   1.109855 S    
C19   C30   1.417020 A    
C26   O39   1.381316 S    
O7    C4    1.306686 A    
C43   H2    1.110172 S    
C12   C14   1.551736 S    
O22   C49   1.411755 S    
O34   C57   1.404158 S    
O10   C45   1.414169 S    
C39   N7    1.439845 S    
C37   C41   1.419207 A    
C11   O35   1.411794 S    
C63   C64   1.518699 S    
N10   O31   1.299723 A    
C50   H18   1.110517 S    
C51   H21   1.111591 S    
C48   H15   1.110559 S    
C61   H46   1.110056 S    
C55   H32   1.112771 S    
C9    O36   1.411094 S    
C58   H38   1.111035 S    
C46   H9    1.110347 S    
C52   H23   1.106489 S    
N1    C41   1.369745 A    
O29   C55   1.411724 S    
C19   N3    1.435135 S    
C51   C52   1.510232 S    
