data_mof_unit_13710.cif
_audit_creation_date              2012-12-11T14:50:40-0500
_audit_creation_method            fapswitch 2.2
_symmetry_space_group_name_H-M    P1
_symmetry_Int_Tables_number       1
_space_group_crystal_system       triclinic
_cell_length_a                    20.721858
_cell_length_b                    7.09738
_cell_length_c                    20.262524
_cell_angle_alpha                 90.115879
_cell_angle_beta                  101.657839
_cell_angle_gamma                 90.216456
_cell_volume                      2918.52230971

loop_
_atom_site_label
_atom_site_type_symbol
_atom_type_description
_atom_site_fract_x
_atom_site_fract_y
_atom_site_fract_z
_atom_type_partial_charge
O1    O     O_R   0.423690 0.494470 0.435930 -0.529867
O2    O     O_R   0.576310 0.994470 0.564070 -0.529934
O3    O     O_R   0.556070 0.822310 0.435760 -0.536543
O4    O     O_R   0.443930 0.322310 0.564240 -0.537319
C1    C     C_R   0.575898 0.655426 0.420946 0.724387
C2    C     C_R   0.424179 0.155144 0.579179 0.728689
O5    O     O_R   0.422940 0.824080 0.428040 -0.540661
O6    O     O_R   0.577060 0.324080 0.571960 -0.544723
O7    O     O_R   0.442240 0.995960 0.556300 -0.536308
O8    O     O_R   0.557760 0.495960 0.443700 -0.538303
C3    C     C_R   0.398516 0.655620 0.410994 0.685814
C4    C     C_R   0.602101 0.156786 0.588258 0.689664
O9    O     O_3   0.506490 0.661310 0.542090 -0.370769
O10   O     O_3   0.493510 0.161310 0.457910 -0.369964
V1    V     V_3+5 0.498800 0.935560 0.492190 1.410373
V2    V     V_3+5 0.501200 0.435560 0.507810 1.404344
C5    C     C_R   0.837518 0.079853 0.857425 -0.261707
C6    C     C_R   0.162595 0.584978 0.141875 -0.258280
C7    C     C_R   0.664193 0.154116 0.639830 -0.112771
C8    C     C_R   0.336389 0.649131 0.359599 -0.108576
C9    C     C_R   0.778061 0.251072 0.681164 -0.144738
C10   C     C_R   0.217970 0.693617 0.325174 -0.145944
C11   C     C_R   0.721778 0.247573 0.629336 0.283247
C12   C     C_R   0.275435 0.699962 0.375652 0.283810
C13   C     C_R   0.664848 0.066245 0.702023 -0.228674
C14   C     C_R   0.338458 0.598583 0.292970 -0.230009
C15   C     C_R   0.721502 0.071319 0.754648 -0.029372
C16   C     C_R   0.280701 0.596400 0.241640 -0.026618
C17   C     C_R   0.779768 0.158067 0.742780 -0.054284
C18   C     C_R   0.219212 0.634619 0.259080 -0.051046
C19   C     C_R   0.838964 0.149766 0.792532 0.342666
C20   C     C_R   0.159836 0.613830 0.210149 0.337594
C21   C     C_R   0.778526 0.000384 0.870185 0.187579
C22   C     C_R   0.224134 0.555816 0.123698 0.182705
C23   C     C_R   0.721436 0.991593 0.818784 0.273843
C24   C     C_R   0.282721 0.556176 0.173421 0.276107
H1    H     H_    0.820911 0.327996 0.672751 0.155772
H2    H     H_    0.171898 0.736996 0.337827 0.151698
H3    H     H_    0.620138 0.996763 0.708847 0.124644
H4    H     H_    0.385845 0.562540 0.281963 0.117936
C25   C     C_3   0.229155 0.323336 0.784923 -0.398194
C26   C     C_3   0.742295 0.772390 0.185319 -0.397570
C27   C     C_3   0.266837 0.992326 0.814786 -0.355036
C28   C     C_3   0.758938 0.428700 0.213832 -0.362052
C29   C     C_3   0.315842 0.006595 0.766230 -0.512892
C30   C     C_3   0.707715 0.443618 0.259937 -0.513400
H5    H     H_    0.329666 0.376100 0.773300 0.101174
H6    H     H_    0.641807 0.730932 0.198219 0.099219
H7    H     H_    0.250999 0.377351 0.836227 0.131083
H8    H     H_    0.717615 0.741625 0.132302 0.132244
H9    H     H_    0.251533 0.842765 0.818369 0.150391
H10   H     H_    0.795483 0.317523 0.233380 0.151071
H11   H     H_    0.291976 0.037608 0.866222 0.159946
H12   H     H_    0.733530 0.384691 0.162334 0.153524
H13   H     H_    0.364445 0.057171 0.794818 0.164849
H14   H     H_    0.657902 0.412049 0.229549 0.163647
H15   H     H_    0.324416 0.863718 0.747492 0.172987
H16   H     H_    0.718473 0.335532 0.300213 0.177988
C31   C     C_1   0.377950 0.145930 0.624125 -0.207208
C32   C     C_1   0.621698 0.646923 0.375619 -0.201195
C33   C     C_3   0.205492 0.116595 0.789942 0.226481
C34   C     C_3   0.794763 0.619258 0.210443 0.228799
C35   C     C_3   0.281960 0.339421 0.739213 0.171231
C36   C     C_3   0.688855 0.781801 0.230316 0.168445
C37   C     C_3   0.289788 0.141900 0.706272 0.200231
C38   C     C_3   0.708052 0.643159 0.291606 0.200484
C39   C     C_3   0.221113 0.062803 0.669210 0.343489
C40   C     C_3   0.780063 0.679819 0.331256 0.351953
C41   C     C_3   0.171537 0.048757 0.718477 -0.426717
C42   C     C_3   0.830735 0.675055 0.282640 -0.429266
C43   C     C_1   0.338441 0.142446 0.661068 -0.018282
C44   C     C_1   0.660339 0.643628 0.337803 -0.010042
C45   C     C_1   0.159104 0.102392 0.837065 -0.049104
C46   C     C_1   0.842039 0.603526 0.164215 -0.052560
C47   C     C_1   0.121299 0.090977 0.875526 -0.188857
C48   C     C_1   0.879895 0.591083 0.125797 -0.187798
H17   H     H_    0.124854 0.126020 0.701832 0.142101
H18   H     H_    0.857929 0.807941 0.279656 0.145221
H19   H     H_    0.156120 0.898962 0.721426 0.119196
H20   H     H_    0.869565 0.569504 0.301439 0.132366
H21   H     H_    0.185523 0.413009 0.765714 0.138324
H22   H     H_    0.767835 0.910442 0.184622 0.138590
H23   H     H_    0.230276 0.913811 0.657511 0.080540
H24   H     H_    0.792595 0.553176 0.363509 0.077037
O11   O     O_R   0.942280 0.741210 0.056360 -0.531878
O12   O     O_R   0.057720 0.241210 0.943640 -0.529032
O13   O     O_R   0.077070 0.409690 0.071960 -0.557004
O14   O     O_R   0.922930 0.909690 0.928040 -0.555695
C49   C     C_R   0.100944 0.578472 0.089655 0.778225
C50   C     C_R   0.898702 0.077404 0.910593 0.777717
O15   O     O_R   0.943940 0.411580 0.064250 -0.547121
O16   O     O_R   0.056060 0.911580 0.935750 -0.543367
O17   O     O_R   0.923670 0.239840 0.935920 -0.520125
O18   O     O_R   0.076330 0.739840 0.064080 -0.528391
C51   C     C_R   0.924504 0.580266 0.079250 0.721237
C52   C     C_R   0.076308 0.080301 0.921629 0.711163
O19   O     O_3   0.993540 0.572620 0.957940 -0.366374
O20   O     O_3   0.006460 0.072620 0.042060 -0.374287
V3    V     V_3+5 0.001200 0.298330 0.007800 1.414635
V4    V     V_3+5 0.998800 0.798330 0.992200 1.416576
O21   O     O_3   0.898615 0.213055 0.779321 -0.570173
C53   C     C_3   0.921860 0.088267 0.734374 0.030442
H25   H     H_    0.961231 0.163639 0.714908 0.149256
H26   H     H_    0.883583 0.049818 0.689535 0.119280
C54   C     C_3   0.951077 0.907747 0.769547 -0.291535
H27   H     H_    0.988322 0.945780 0.814732 0.200538
H28   H     H_    0.911656 0.823265 0.785459 0.192505
C55   C     C_3   0.983733 0.787396 0.723126 -0.827475
H29   H     H_    0.947064 0.745092 0.677544 0.234212
H30   H     H_    0.004376 0.658189 0.750118 0.239334
H31   H     H_    0.024476 0.866853 0.707618 0.220416
O22   O     O_3   0.098531 0.627891 0.227618 -0.577239
C56   C     C_3   0.086135 0.467533 0.265224 0.020801
H32   H     H_    0.047425 0.506972 0.293423 0.147281
H33   H     H_    0.129624 0.423098 0.303698 0.123673
C57   C     C_3   0.060941 0.299817 0.219271 -0.296712
H34   H     H_    0.016173 0.342149 0.182526 0.208754
H35   H     H_    0.099405 0.255434 0.191531 0.198354
C58   C     C_3   0.044170 0.131591 0.259599 -0.806604
H36   H     H_    0.088710 0.083520 0.295727 0.237155
H37   H     H_    0.025663 0.013509 0.224753 0.254221
H38   H     H_    0.005371 0.170037 0.287697 0.223499
O23   O     O_3   0.198342 0.142581 0.603982 -0.567617
C59   C     C_3   0.154447 0.296328 0.600091 0.153237
H39   H     H_    0.172114 0.407771 0.569633 0.146853
H40   H     H_    0.152518 0.363238 0.648978 0.130357
C60   C     C_3   0.085506 0.235231 0.563431 -0.346163
H41   H     H_    0.087436 0.190905 0.511210 0.205310
H42   H     H_    0.068412 0.112768 0.589441 0.194247
C61   C     C_3   0.036003 0.395196 0.560591 -0.863448
H43   H     H_    0.032245 0.439069 0.612350 0.233369
H44   H     H_    0.986695 0.346765 0.533512 0.242036
H45   H     H_    0.051319 0.518003 0.533411 0.234823
O24   O     O_3   0.783803 0.828418 0.379568 -0.570101
C62   C     C_3   0.806928 0.004694 0.361760 0.138022
H46   H     H_    0.777258 0.114560 0.380718 0.131716
H47   H     H_    0.799483 0.028906 0.306744 0.129420
C63   C     C_3   0.878943 0.031849 0.397654 -0.328616
H48   H     H_    0.882383 0.023502 0.453048 0.203856
H49   H     H_    0.910052 0.918117 0.383224 0.195361
C64   C     C_3   0.906026 0.221719 0.380828 -0.887696
H50   H     H_    0.900496 0.236906 0.325445 0.227565
H51   H     H_    0.959158 0.232055 0.404464 0.242569
H52   H     H_    0.879595 0.337485 0.400787 0.231770
N1    N     N_2   0.265555 0.493130 0.690732 -0.531447
H53   H     H_    0.243139 0.605363 0.709279 0.242485
C65   C     C_3   0.316053 0.556659 0.655480 -0.556050
H54   H     H_    0.308094 0.705835 0.640128 0.175473
H55   H     H_    0.312685 0.475607 0.608210 0.227483
H56   H     H_    0.366080 0.545120 0.687687 0.190022
N2    N     N_2   0.678660 0.976389 0.249481 -0.524177
H57   H     H_    0.682968 0.070817 0.211991 0.256243
C66   C     C_3   0.620475 0.016396 0.276741 -0.547179
H58   H     H_    0.601361 0.158923 0.261518 0.172745
H59   H     H_    0.633567 0.015440 0.332571 0.228266
H60   H     H_    0.580046 0.914293 0.258216 0.182966
N3    N     N_2   0.775276 0.928316 0.935079 -0.486332
H61   H     H_    0.814661 0.846725 0.957303 0.255964
C67   C     C_3   0.757189 0.066212 0.980665 -0.522237
H62   H     H_    0.795955 0.176757 0.992732 0.174272
H63   H     H_    0.751762 0.995962 0.028185 0.185162
H64   H     H_    0.709411 0.132582 0.957871 0.210991
N4    N     N_2   0.228058 0.523486 0.055123 -0.489058
H65   H     H_    0.190487 0.442231 0.028033 0.245097
C68   C     C_3   0.240859 0.691048 0.019243 -0.508303
H66   H     H_    0.199198 0.791364 0.015292 0.177696
H67   H     H_    0.246546 0.651986 0.967627 0.182335
H68   H     H_    0.287099 0.760664 0.045462 0.211263
N5    N     N_2   0.664030 0.904344 0.833674 -0.490321
H69   H     H_    0.620621 0.976114 0.817375 0.238998
C69   C     C_3   0.659158 0.704147 0.819981 -0.511286
H70   H     H_    0.615340 0.645911 0.836716 0.184937
H71   H     H_    0.703625 0.630709 0.847924 0.214162
H72   H     H_    0.653944 0.677086 0.765110 0.184315
N6    N     N_2   0.343355 0.520287 0.152903 -0.491599
H73   H     H_    0.381836 0.608451 0.173465 0.238795
C70   C     C_3   0.361235 0.323483 0.153473 -0.522168
H74   H     H_    0.406799 0.307507 0.133108 0.186012
H75   H     H_    0.321352 0.239975 0.121356 0.214523
H76   H     H_    0.370413 0.267894 0.205756 0.180487
N7    N     N_2   0.724825 0.337411 0.567030 -0.525396
H77   H     H_    0.680811 0.381544 0.538281 0.266046
C71   C     C_3   0.765864 0.243679 0.527239 -0.560680
H78   H     H_    0.767721 0.328909 0.481733 0.196572
H79   H     H_    0.745125 0.102486 0.510985 0.205754
H80   H     H_    0.817021 0.228126 0.556437 0.199016
N8    N     N_2   0.270874 0.760522 0.441803 -0.518666
H81   H     H_    0.314045 0.806245 0.472286 0.258480
C72   C     C_3   0.232786 0.638747 0.476745 -0.564578
H82   H     H_    0.229702 0.702878 0.526023 0.210174
H83   H     H_    0.256734 0.498681 0.485562 0.196390
H84   H     H_    0.181739 0.620673 0.447493 0.196320

loop_
_geom_bond_atom_site_label_1
_geom_bond_atom_site_label_2
_ccdc_geom_bond_type
C62   C63   S    
C38   C40   S    
C69   H70   S    
C35   C37   S    
C39   H23   S    
O21   C53   S    
C42   H18   S    
C45   C47   T    
N5    H69   S    
C41   H17   S    
N4    H65   S    
O1    C3    A    
C25   C33   S    
O2    C4    A    
C2    O7    A    
N1    H53   S    
O23   C59   S    
N6    C70   S    
N7    H77   S    
C55   H29   S    
O5    C3    A    
C69   H71   S    
C29   H15   S    
C68   H66   S    
C46   C48   T    
C12   N8    S    
C19   O21   S    
C65   H55   S    
C28   C34   S    
C11   N7    S    
C71   H79   S    
C48   C51   S    
H5    C35   S    
H6    C36   S    
C15   C17   A    
C32   C44   T    
C10   H2    S    
O16   C52   A    
C57   H34   S    
C34   C42   S    
C53   C54   S    
C40   O24   S    
C49   O18   A    
C72   H83   S    
C65   H54   S    
N1    C65   S    
C27   H11   S    
N3    H61   S    
C38   C44   S    
C8    C12   A    
C21   N3    S    
C70   H75   S    
C26   H22   S    
N2    H57   S    
C67   H63   S    
C61   H44   S    
C66   H59   S    
C20   O22   S    
C26   C34   S    
C56   C57   S    
C28   H10   S    
O5    V1    S    
C27   H9    S    
N3    C67   S    
C30   H16   S    
N5    C69   S    
C67   H62   S    
C68   H67   S    
C5    C21   A    
C25   H7    S    
O22   C56   S    
O19   V3    S    
C28   C30   S    
C47   C52   S    
O13   V3    S    
N7    C71   S    
C69   H72   S    
C3    C8    S    
C36   N2    S    
C42   H20   S    
C40   H24   S    
C62   H46   S    
C65   H56   S    
O4    C2    A    
C22   N4    S    
C71   H80   S    
C37   C39   S    
C37   C43   S    
C9    C17   A    
C27   C33   S    
C39   C41   S    
C36   C38   S    
O4    V2    S    
C72   H84   S    
C7    C11   A    
C71   H78   S    
C60   H42   S    
O12   V3    S    
C54   H28   S    
N6    H73   S    
O18   V4    S    
O6    C4    A    
C70   H76   S    
C25   H21   S    
C67   H64   S    
O1    V2    S    
C54   C55   S    
C66   H60   S    
C53   H26   S    
O2    V1    S    
C27   C29   S    
C16   C24   A    
O14   V4    S    
C58   H37   S    
O12   C52   A    
C26   H8    S    
C59   C60   S    
C40   C42   S    
O14   C50   A    
C70   H74   S    
C68   H68   S    
O20   V4    S    
C9    C11   A    
C29   C37   S    
C23   N5    S    
C10   C12   A    
C64   H52   S    
C61   H45   S    
C6    C20   A    
C25   C35   S    
C60   H41   S    
C26   C36   S    
O19   V4    S    
O3    V1    S    
O16   V4    S    
C50   O17   A    
C59   H40   S    
C56   H32   S    
C58   H38   S    
C33   C41   S    
C72   H82   S    
C62   H47   S    
O17   V3    S    
C10   C18   A    
C1    C32   S    
C33   C45   S    
C6    C49   S    
C2    C31   S    
C5    C50   S    
C57   H35   S    
O3    C1    A    
C63   C64   S    
C39   O23   S    
C58   H36   S    
C55   H31   S    
C30   C38   S    
O24   C62   S    
C63   H49   S    
C13   C15   A    
C54   H27   S    
C14   C16   A    
C57   C58   S    
C15   C23   A    
C64   H51   S    
C61   H43   S    
O7    V1    S    
C60   C61   S    
N8    H81   S    
C17   C19   A    
O11   V4    S    
O8    V2    S    
C64   H50   S    
C13   H3    S    
C18   C20   A    
O11   C51   A    
C14   H4    S    
C8    C14   A    
C6    C22   A    
C5    C19   A    
C4    C7    S    
C16   C18   A    
C21   C23   A    
C55   H30   S    
C22   C24   A    
N2    C66   S    
C53   H25   S    
C7    C13   A    
N8    C72   S    
C41   H19   S    
C63   H48   S    
O15   C51   A    
C28   H12   S    
C1    O8    A    
C9    H1    S    
C29   H13   S    
C24   N6    S    
O6    V2    S    
O20   V3    S    
O9    V2    S    
C30   H14   S    
O13   C49   A    
O10   V1    S    
C34   C46   S    
N4    C68   S    
O15   V3    S    
C66   H58   S    
C35   N1    S    
C31   C43   T    
C59   H39   S    
C56   H33   S    
