data_mof_unit_67669.cif
_audit_creation_date              2012-12-10T19:44:27-0500
_audit_creation_method            fapswitch 2.2
_symmetry_space_group_name_H-M    P1
_symmetry_Int_Tables_number       1
_space_group_crystal_system       triclinic
_cell_length_a                    10.983394
_cell_length_b                    12.56367
_cell_length_c                    13.385945
_cell_angle_alpha                 116.952308
_cell_angle_beta                  72.172069
_cell_angle_gamma                 99.739237
_cell_volume                      1566.44849656

loop_
_atom_site_label
_atom_site_type_symbol
_atom_type_description
_atom_site_fract_x
_atom_site_fract_y
_atom_site_fract_z
_atom_type_partial_charge
C1    C     C_R   0.517862 0.855462 0.284702 0.815580
C2    C     C_R   0.614295 0.862664 0.819605 -0.199353
C3    C     C_R   0.033241 0.918487 0.526419 0.164731
C4    C     C_R   0.125879 0.001836 0.500249 -0.161221
C5    C     C_R   0.082949 0.094806 0.488310 0.024577
C6    C     C_R   0.952145 0.106011 0.506005 0.167155
C7    C     C_R   0.864109 0.017325 0.524562 -0.187251
C8    C     C_R   0.902400 0.938461 0.556539 -0.051119
C9    C     C_R   0.187516 0.294823 0.528940 0.088825
C10   C     C_R   0.214493 0.385431 0.490969 0.168223
C11   C     C_R   0.270045 0.356818 0.372597 0.068700
C12   C     C_R   0.733559 0.007048 0.510857 0.847747
C13   C     C_R   0.274724 0.236393 0.291347 0.090880
C14   C     C_R   0.209989 0.149369 0.327989 0.181862
C15   C     C_R   0.171018 0.177398 0.447550 -0.005698
C16   C     C_R   0.262010 0.336431 0.000638 0.138031
C17   C     C_R   0.444384 0.237946 0.839289 -0.098996
C18   C     C_R   0.675845 0.774457 0.088470 0.113925
C19   C     C_R   0.740036 0.667434 0.018062 0.224735
C20   C     C_R   0.671931 0.559423 0.997555 -0.169588
C21   C     C_R   0.537328 0.556398 0.028718 0.045861
C22   C     C_R   0.475192 0.663908 0.114405 -0.009651
C23   C     C_R   0.478679 0.146256 0.714695 0.801046
C24   C     C_R   0.464020 0.449321 0.979886 0.017758
C25   C     C_R   0.330097 0.447893 0.029545 0.013374
C26   C     C_R   0.268501 0.557618 0.103686 0.181394
C27   C     C_R   0.340518 0.664131 0.145804 0.129831
C28   C     C_R   0.516859 0.347955 0.875633 0.067431
C29   C     C_R   0.322047 0.232538 0.910709 0.091246
C30   C     C_R   0.549496 0.771734 0.156728 -0.176116
C31   C     C_R   0.704718 0.327002 0.309551 0.057611
C32   C     C_R   0.337851 0.767429 0.663685 0.407550
C33   C     C_R   0.338568 0.696630 0.719824 0.090864
C34   C     C_R   0.262451 0.999369 0.498232 0.808106
C35   C     C_R   0.405566 0.592043 0.658018 -0.245918
C36   C     C_R   0.483752 0.564427 0.546174 -0.046605
C37   C     C_R   0.510984 0.656794 0.504973 0.180957
C38   C     C_R   0.543200 0.450705 0.478591 -0.059350
C39   C     C_R   0.647172 0.438110 0.382769 0.037839
C40   C     C_R   0.705179 0.540080 0.371318 0.070481
C41   C     C_R   0.631183 0.640937 0.412733 0.153617
C42   C     C_R   0.505833 0.348540 0.502716 -0.031168
C43   C     C_R   0.678052 0.238333 0.348433 0.391812
C44   C     C_R   0.656703 0.980839 0.841790 0.263949
C45   C     C_R   0.760618 0.004570 0.761535 0.176621
C46   C     C_R   0.811796 0.910538 0.651453 0.057980
C47   C     C_R   0.768868 0.792855 0.632370 -0.083447
C48   C     C_R   0.674010 0.769060 0.717329 -0.152599
Cu1   Cu    Cu3+1 0.529370 0.098270 0.475420 0.978260
Cu2   Cu    Cu3+1 0.470630 0.901730 0.524580 1.023582
H1    H     H_    0.536588 0.843414 0.882584 0.147307
H2    H     H_    0.725755 0.479037 0.952685 0.209855
H3    H     H_    0.425612 0.349835 0.573720 0.154541
H4    H     H_    0.397641 0.533961 0.699594 0.162528
H5    H     H_    0.806750 0.718916 0.551648 0.154950
H6    H     H_    0.644243 0.677699 0.702245 0.162720
N1    N     N_R   0.573890 0.246290 0.438210 -0.210076
N2    N     N_R   0.426890 0.754320 0.561170 -0.222837
O1    O     O_R   0.536940 0.972510 0.318130 -0.588139
O2    O     O_R   0.487330 0.806530 0.359650 -0.523836
O3    O     O_R   0.705160 0.082990 0.479250 -0.541622
O4    O     O_R   0.655550 0.917010 0.520760 -0.574914
O5    O     O_R   0.512670 0.193470 0.640350 -0.588727
O6    O     O_R   0.463060 0.027490 0.681870 -0.560076
O7    O     O_R   0.344450 0.082990 0.479240 -0.576291
O8    O     O_R   0.294840 0.917010 0.520750 -0.529898
I1    I     I_    0.333412 0.492096 0.313263 -0.372616
N3    N     N_3   0.332430 0.202682 0.170363 -0.569049
H7    H     H_    0.284702 0.244111 0.142008 0.256322
H8    H     H_    0.427676 0.234381 0.160297 0.246387
I2    I     I_    0.142045 0.991194 0.203449 -0.333454
N4    N     N_3   0.251140 0.122446 0.884432 -0.544544
H9    H     H_    0.226273 0.104007 0.957081 0.268464
H10   H     H_    0.166995 0.132954 0.869072 0.263477
N5    N     N_3   0.132555 0.563430 0.128312 -0.573789
H11   H     H_    0.094490 0.600928 0.218119 0.276895
H12   H     H_    0.113717 0.619031 0.096116 0.281186
N6    N     N_3   0.132576 0.323549 0.063339 -0.597838
H13   H     H_    0.122809 0.370435 0.152711 0.256778
H14   H     H_    0.069893 0.353840 0.037538 0.276704
N7    N     N_3   0.633788 0.364353 0.797881 -0.570699
H15   H     H_    0.684641 0.286157 0.752607 0.238954
H16   H     H_    0.611907 0.387487 0.739698 0.265312
I3    I     I_    0.754539 0.924427 0.055876 -0.339205
I4    I     I_    0.940469 0.662080 0.944514 -0.182406
N8    N     N_3   0.593146 0.077791 0.944862 -0.555416
H17   H     H_    0.592659 0.065022 0.016789 0.251368
H18   H     H_    0.498009 0.073954 0.942952 0.226369
N9    N     N_3   0.274341 0.773596 0.210843 -0.566105
H19   H     H_    0.321679 0.833909 0.176651 0.236597
H20   H     H_    0.278460 0.807436 0.296376 0.241410
N10   N     N_3   0.772298 0.152014 0.309308 -0.505780
H21   H     H_    0.730217 0.067489 0.284660 0.280042
H22   H     H_    0.847097 0.153185 0.239355 0.252643
N11   N     N_3   0.843070 0.541721 0.324996 -0.569412
H23   H     H_    0.881108 0.628255 0.358602 0.249867
H24   H     H_    0.882813 0.501753 0.360933 0.239419
N12   N     N_3   0.786574 0.301321 0.194853 -0.571832
H25   H     H_    0.760457 0.350573 0.159678 0.274310
H26   H     H_    0.881434 0.322897 0.199055 0.249369
I5    I     I_    0.177197 0.874556 0.735977 -0.204768
N13   N     N_3   0.261034 0.726028 0.836423 -0.491592
H27   H     H_    0.298241 0.806386 0.890839 0.224340
H28   H     H_    0.268407 0.662127 0.863886 0.242637
I6    I     I_    0.733859 0.723838 0.298591 -0.317793
N14   N     N_3   0.816539 0.123324 0.795853 -0.544496
H29   H     H_    0.913934 0.118603 0.786034 0.246901
H30   H     H_    0.807951 0.158483 0.741563 0.209025
I7    I     I_    0.081014 0.740093 0.470274 -0.326640
I8    I     I_    0.889471 0.273071 0.530235 -0.313607
I9    I     I_    0.140462 0.336528 0.710311 -0.369700
I10   I     I_    0.108484 0.541599 0.597299 -0.173578

loop_
_geom_bond_atom_site_label_1
_geom_bond_atom_site_label_2
_ccdc_geom_bond_type
C9    I9    S    
Cu1   O5    S    
Cu2   O6    S    
C14   I2    S    
N11   H23   S    
C32   I5    S    
C32   N2    A    
C34   O8    A    
N7    H15   S    
Cu1   N1    S    
C7    C8    A    
C45   C46   A    
C44   C45   A    
C26   C27   A    
C17   C23   S    
C31   C43   A    
C36   C37   A    
C38   C42   A    
C1    O1    A    
C42   H3    S    
C5    C6    A    
N6    H14   S    
N14   H29   S    
C17   C29   A    
C42   N1    A    
C18   C19   A    
C31   N12   S    
N5    H12   S    
C1    C30   S    
C35   C36   A    
C2    C44   A    
N3    H7    S    
C18   I3    S    
C10   I10   S    
C18   C30   A    
N9    H20   S    
C9    C10   A    
C16   N6    S    
C37   N2    A    
C29   N4    S    
C23   O5    A    
C21   C22   A    
C35   H4    S    
C37   C41   A    
C6    I8    S    
C44   N8    S    
C34   O7    A    
N7    H16   S    
C11   I1    S    
C41   I6    S    
C7    C12   S    
C4    C34   S    
Cu1   O3    S    
C33   N13   S    
Cu2   N2    S    
C24   C25   A    
N4    H10   S    
C3    C8    A    
C10   C11   A    
C1    O2    A    
C39   C40   A    
N8    H17   S    
N4    H9    S    
C2    C48   A    
C25   C26   A    
N5    H11   S    
C12   O4    A    
C47   C48   A    
N10   H22   S    
C26   N5    S    
N13   H28   S    
Cu2   O8    S    
Cu1   O7    S    
C23   O6    A    
N12   H25   S    
N12   H26   S    
C22   C27   A    
Cu2   O4    S    
C40   N11   S    
C3    C4    A    
C45   N14   S    
C47   H5    S    
C16   C25   A    
C48   H6    S    
C46   C47   A    
C40   C41   A    
C22   C30   A    
C28   N7    S    
N6    H13   S    
C17   C28   A    
C24   C28   A    
C4    C5    A    
C19   I4    S    
N11   H24   S    
C6    C7    A    
C43   N10   S    
Cu1   O1    S    
Cu2   O2    S    
C32   C33   A    
C19   C20   A    
C36   C38   A    
C16   C29   A    
C20   H2    S    
C12   O3    A    
C11   C13   A    
C38   C39   A    
N14   H30   S    
C3    I7    S    
N10   H21   S    
C33   C35   A    
C31   C39   A    
C27   N9    S    
N8    H18   S    
C9    C15   A    
N13   H27   S    
C8    C46   S    
C5    C15   S    
C2    H1    S    
C43   N1    A    
C20   C21   A    
N3    H8    S    
Cu1   Cu2   S    
C21   C24   A    
C14   C15   A    
N9    H19   S    
C13   C14   A    
C13   N3    S    
