data_mof_unit_34535.cif
_audit_creation_date              2012-12-11T14:45:31-0500
_audit_creation_method            fapswitch 2.2
_symmetry_space_group_name_H-M    P1
_symmetry_Int_Tables_number       1
_space_group_crystal_system       triclinic
_cell_length_a                    24.918274
_cell_length_b                    7.174646
_cell_length_c                    14.433945
_cell_angle_alpha                 90.737149
_cell_angle_beta                  102.886905
_cell_angle_gamma                 91.729575
_cell_volume                      2513.84603458

loop_
_atom_site_label
_atom_site_type_symbol
_atom_type_description
_atom_site_fract_x
_atom_site_fract_y
_atom_site_fract_z
_atom_type_partial_charge
O1    O     O_R   0.319150 0.364170 0.330530 -0.538393
O2    O     O_R   0.680850 0.635830 0.669470 -0.538393
O3    O     O_R   0.180850 0.864170 0.169470 -0.541284
O4    O     O_R   0.819150 0.135830 0.830530 -0.541284
O5    O     O_R   0.210330 0.696850 0.354180 -0.536594
O6    O     O_R   0.789670 0.303150 0.645820 -0.536594
O7    O     O_R   0.289670 0.196850 0.145820 -0.538398
O8    O     O_R   0.710330 0.803150 0.854180 -0.538398
C1    C     C_R   0.197437 0.525051 0.378357 0.690185
C2    C     C_R   0.802563 0.474949 0.621642 0.690184
C3    C     C_R   0.302727 0.025784 0.121957 0.686607
C4    C     C_R   0.697273 0.974216 0.878043 0.686608
O9    O     O_R   0.320550 0.694110 0.341970 -0.546113
O10   O     O_R   0.679450 0.305890 0.658030 -0.546113
O11   O     O_R   0.179450 0.194110 0.158030 -0.541560
O12   O     O_R   0.820550 0.805890 0.841970 -0.541559
O13   O     O_R   0.291860 0.861000 0.157170 -0.534827
O14   O     O_R   0.708140 0.139000 0.842830 -0.534827
O15   O     O_R   0.208140 0.361000 0.342830 -0.536585
O16   O     O_R   0.791860 0.639000 0.657170 -0.536585
C5    C     C_R   0.342109 0.529388 0.362420 0.688295
C6    C     C_R   0.657891 0.470612 0.637580 0.688295
C7    C     C_R   0.158205 0.021608 0.137469 0.687909
C8    C     C_R   0.841795 0.978391 0.862531 0.687909
O17   O     O_3   0.240460 0.529330 0.189380 -0.375971
O18   O     O_3   0.759540 0.470670 0.810620 -0.375971
O19   O     O_3   0.259540 0.029330 0.310620 -0.375606
O20   O     O_3   0.740460 0.970670 0.689380 -0.375606
V1    V     V_3+5 0.251770 0.805510 0.261240 1.419849
V2    V     V_3+5 0.748230 0.194490 0.738760 1.419849
V3    V     V_3+5 0.248230 0.305510 0.238760 1.418886
V4    V     V_3+5 0.751770 0.694490 0.761240 1.418886
C9    C     C_R   0.102562 0.996409 0.074569 -0.058038
C10   C     C_R   0.897438 0.003591 0.925430 -0.058038
C11   C     C_R   0.398299 0.536725 0.425030 -0.060436
C12   C     C_R   0.601700 0.463275 0.574970 -0.060436
C13   C     C_R   0.965064 0.208948 0.030564 -0.196578
C14   C     C_R   0.034936 0.791052 0.969436 -0.196578
C15   C     C_R   0.529795 0.285626 0.462747 -0.193527
C16   C     C_R   0.470205 0.714374 0.537253 -0.193527
C17   C     C_R   0.911157 0.169338 0.980194 -0.168241
C18   C     C_R   0.088843 0.830661 0.019806 -0.168241
C19   C     C_R   0.584179 0.306637 0.514620 -0.170821
C20   C     C_R   0.415821 0.693363 0.485380 -0.170821
C21   C     C_R   0.938718 0.875546 0.923554 -0.234605
C22   C     C_R   0.061281 0.124454 0.076446 -0.234604
C23   C     C_R   0.563631 0.601035 0.581015 -0.231540
C24   C     C_R   0.436369 0.398964 0.418985 -0.231540
C25   C     C_R   0.993312 0.915711 0.973213 0.156804
C26   C     C_R   0.006687 0.084289 0.026787 0.156804
C27   C     C_R   0.508579 0.579722 0.529654 0.154703
C28   C     C_R   0.491420 0.420278 0.470346 0.154703
H1    H     H_    0.071135 0.251295 0.119340 0.118230
H2    H     H_    0.928865 0.748704 0.880660 0.118230
H3    H     H_    0.423724 0.278738 0.372047 0.120197
H4    H     H_    0.576276 0.721261 0.627953 0.120197
H5    H     H_    0.119889 0.729492 0.017063 0.130856
H6    H     H_    0.880111 0.270508 0.982937 0.130856
H7    H     H_    0.387446 0.801723 0.491779 0.131067
H8    H     H_    0.612554 0.198277 0.508221 0.131067
H9    H     H_    0.974292 0.338265 0.071477 0.117395
H10   H     H_    0.025708 0.661735 0.928523 0.117395
H11   H     H_    0.517653 0.162946 0.417427 0.117160
H12   H     H_    0.482347 0.837054 0.582573 0.117160
C29   C     C_R   0.664921 0.981365 0.950753 -0.065854
C30   C     C_R   0.335079 0.018634 0.049246 -0.065854
C31   C     C_R   0.834715 0.482060 0.548612 -0.067894
C32   C     C_R   0.165285 0.517940 0.451388 -0.067894
C33   C     C_R   0.660259 0.992506 0.116546 0.176907
C34   C     C_R   0.339741 0.007493 0.883454 0.176908
C35   C     C_R   0.839924 0.441665 0.384008 0.176650
C36   C     C_R   0.160075 0.558335 0.615992 0.176650
C37   C     C_R   0.691022 0.983721 0.046575 -0.166280
C38   C     C_R   0.308978 0.016279 0.953425 -0.166280
C39   C     C_R   0.808925 0.450874 0.453588 -0.165408
C40   C     C_R   0.191075 0.549126 0.546412 -0.165409
C41   C     C_R   0.607746 0.986454 0.923076 -0.216310
C42   C     C_R   0.392254 0.013546 0.076924 -0.216310
C43   C     C_R   0.891810 0.504299 0.575865 -0.215869
C44   C     C_R   0.108190 0.495701 0.424135 -0.215869
C45   C     C_R   0.574649 0.992897 0.990905 0.048820
C46   C     C_R   0.425351 0.007103 0.009095 0.048820
C47   C     C_R   0.925174 0.492497 0.508637 0.048629
C48   C     C_R   0.074826 0.507503 0.491363 0.048629
C49   C     C_R   0.601795 0.997113 0.088982 0.121604
C50   C     C_R   0.398205 0.002886 0.911018 0.121604
C51   C     C_R   0.898363 0.460879 0.411365 0.121526
C52   C     C_R   0.101637 0.539121 0.588635 0.121526
C53   C     C_R   0.515626 0.995690 0.964171 0.073663
C54   C     C_R   0.484373 0.004310 0.035828 0.073663
C55   C     C_R   0.984194 0.508174 0.535404 0.073617
C56   C     C_R   0.015805 0.491825 0.464596 0.073618
C57   C     C_R   0.513186 0.010367 0.131966 -0.190329
C58   C     C_R   0.486814 0.989632 0.868034 -0.190329
C59   C     C_R   0.987343 0.461045 0.369190 -0.190076
C60   C     C_R   0.012657 0.538955 0.630810 -0.190075
C61   C     C_R   0.570121 0.006275 0.157575 -0.197806
C62   C     C_R   0.429879 0.993723 0.842425 -0.197806
C63   C     C_R   0.930377 0.446736 0.343502 -0.197920
C64   C     C_R   0.069623 0.553263 0.656497 -0.197920
H13   H     H_    0.589006 0.010784 0.232761 0.137491
H14   H     H_    0.410994 0.989214 0.767239 0.137491
H15   H     H_    0.911767 0.422766 0.268939 0.137835
H16   H     H_    0.088233 0.577234 0.731061 0.137836
H17   H     H_    0.409182 0.014880 0.152343 0.101067
H18   H     H_    0.590818 0.985121 0.847657 0.101067
H19   H     H_    0.091454 0.474562 0.349195 0.102005
H20   H     H_    0.908546 0.525437 0.650805 0.102005
H21   H     H_    0.264419 0.020051 0.933504 0.104578
H22   H     H_    0.735581 0.979948 0.066496 0.104578
H23   H     H_    0.235535 0.568112 0.565895 0.104528
H24   H     H_    0.764465 0.431888 0.434105 0.104528
H25   H     H_    0.493192 0.018699 0.190572 0.120861
H26   H     H_    0.506808 0.981300 0.809428 0.120861
H27   H     H_    0.007644 0.446303 0.311262 0.121166
H28   H     H_    0.992356 0.553697 0.688738 0.121165
C65   C     C_3   0.690777 0.996912 0.219534 -0.810452
H29   H     H_    0.736084 0.992443 0.227164 0.215273
H30   H     H_    0.682114 0.127399 0.254919 0.205620
H31   H     H_    0.677729 0.874395 0.256365 0.210933
C66   C     C_3   0.309223 0.003087 0.780466 -0.810452
H32   H     H_    0.263916 0.007556 0.772836 0.215273
H33   H     H_    0.322271 0.125603 0.743635 0.210933
H34   H     H_    0.317886 0.872599 0.745081 0.205620
C67   C     C_3   0.809739 0.408149 0.281871 -0.810276
H35   H     H_    0.764385 0.397615 0.274268 0.215287
H36   H     H_    0.818786 0.525541 0.237712 0.209623
H37   H     H_    0.822693 0.275465 0.254439 0.207763
C68   C     C_3   0.190260 0.591851 0.718129 -0.810275
H38   H     H_    0.235615 0.602385 0.725732 0.215286
H39   H     H_    0.177307 0.724535 0.745561 0.207763
H40   H     H_    0.181214 0.474459 0.762288 0.209623

loop_
_geom_bond_atom_site_label_1
_geom_bond_atom_site_label_2
_ccdc_geom_bond_type
O17   V3    S    
C24   H3    S    
C63   H15   S    
O1    C5    A    
O19   V1    S    
O13   V1    S    
O3    C7    A    
C64   H16   S    
C44   C48   A    
O15   V3    S    
C38   H21   S    
C58   H26   S    
O4    V2    S    
C37   H22   S    
C14   C25   A    
C2    C31   S    
O7    C3    A    
C44   H19   S    
C39   H24   S    
C42   H17   S    
C9    C18   A    
O9    V1    S    
C41   H18   S    
C17   H6    S    
C14   C18   A    
C65   H30   S    
O4    C8    A    
C59   C63   A    
C58   C62   A    
C20   H7    S    
C30   C38   A    
O1    V3    S    
C29   C37   A    
C12   C23   A    
O2    V4    S    
C53   C58   A    
O3    V1    S    
C66   H34   S    
C55   C60   A    
C1    O15   A    
C59   H27   S    
C7    C9    S    
O2    C6    A    
C67   H37   S    
C33   C37   A    
O14   V2    S    
C21   C25   A    
C16   C20   A    
O5    V1    S    
C3    C30   S    
C36   C40   A    
C68   H40   S    
C45   C53   A    
O11   C7    A    
C15   C28   A    
O12   C8    A    
C9    C22   A    
C10   C17   A    
O10   V2    S    
C11   C24   A    
C18   H5    S    
C36   C52   A    
C51   C63   A    
C30   C42   A    
O7    V3    S    
C27   C28   A    
O8    V4    S    
C36   C68   S    
C31   C43   A    
C65   H31   S    
C2    O16   A    
C55   C56   A    
O18   V4    S    
C15   C19   A    
C46   C50   A    
C56   C59   A    
C8    C10   S    
C34   C38   A    
C29   C41   A    
C42   C46   A    
C13   H9    S    
C6    C12   S    
C41   C45   A    
O8    C4    A    
O9    C5    A    
C10   C21   A    
C57   H25   S    
C32   C40   A    
C11   C20   A    
C66   H32   S    
C52   C64   A    
C19   H8    S    
C35   C51   A    
O6    V2    S    
C21   H2    S    
C67   H35   S    
C31   C39   A    
C32   C44   A    
C34   C50   A    
C57   C61   A    
C33   C49   A    
C54   C57   A    
C68   H38   S    
O16   V4    S    
C3    O13   A    
C60   H28   S    
C48   C52   A    
O5    C1    A    
C46   C54   A    
C47   C51   A    
O6    C2    A    
C23   C27   A    
O11   V3    S    
C5    C11   S    
O12   V4    S    
C16   C27   A    
C15   H11   S    
C4    C29   S    
C22   C26   A    
C16   H12   S    
O10   C6    A    
O20   V2    S    
C1    C32   S    
C62   H14   S    
C65   H29   S    
C35   C39   A    
C13   C26   A    
C34   C66   S    
C40   H23   S    
C60   C64   A    
C22   H1    S    
C33   C65   S    
C43   H20   S    
C47   C55   A    
C13   C17   A    
C50   C62   A    
C45   C49   A    
C66   H33   S    
C49   C61   A    
C43   C47   A    
C24   C28   A    
C25   C26   A    
C4    O14   A    
C67   H36   S    
C35   C67   S    
C12   C19   A    
C48   C56   A    
C68   H39   S    
C53   C54   A    
C61   H13   S    
C23   H4    S    
C14   H10   S    
