data_mof_unit_62686.cif
_audit_creation_date              2012-12-10T18:48:46-0500
_audit_creation_method            fapswitch 2.2
_symmetry_space_group_name_H-M    P1
_symmetry_Int_Tables_number       1
_space_group_crystal_system       triclinic
_cell_length_a                    25.544766
_cell_length_b                    25.552842
_cell_length_c                    25.548219
_cell_angle_alpha                 119.995511
_cell_angle_beta                  90.037703
_cell_angle_gamma                 59.971262
_cell_volume                      11791.5349789

loop_
_atom_site_label
_atom_site_type_symbol
_atom_type_description
_atom_site_fract_x
_atom_site_fract_y
_atom_site_fract_z
_atom_type_partial_charge
C1    C     C_R   0.849967 0.499994 0.849788 0.510780
C2    C     C_3   0.547719 0.430259 0.476465 0.034160
C3    C     C_2   0.550803 0.575787 0.498556 0.618837
C4    C     C_2   0.602954 0.351222 0.904051 0.576446
C5    C     C_2   0.397046 0.648778 0.095949 0.576445
C6    C     C_2   0.575452 0.431775 0.057034 0.271284
C7    C     C_2   0.424548 0.568225 0.942966 0.271284
C8    C     C_2   0.452466 0.419804 0.921968 0.272986
C9    C     C_2   0.547534 0.580196 0.078032 0.272986
C10   C     C_3   0.465075 0.534092 0.560708 -0.162144
C11   C     C_3   0.534925 0.465908 0.439292 -0.162144
C12   C     C_1   0.610640 0.499949 0.610581 0.094271
C13   C     C_1   0.389360 0.500050 0.389419 0.094271
C14   C     C_3   0.524206 0.535678 0.499968 0.034886
C15   C     C_3   0.475794 0.464321 0.500032 0.034886
C16   C     C_3   0.537326 0.499616 0.536307 -0.017529
C17   C     C_3   0.462674 0.500384 0.463693 -0.017529
C18   C     C_1   0.577507 0.499831 0.577125 0.082234
C19   C     C_R   0.150033 0.500006 0.150211 0.510781
C20   C     C_1   0.422493 0.500169 0.422875 0.082234
C21   C     C_3   0.534658 0.467962 0.027429 -0.043281
C22   C     C_3   0.465342 0.532038 0.972570 -0.043281
C23   C     C_R   0.650160 0.500026 0.650250 0.518649
C24   C     C_R   0.349840 0.499974 0.349750 0.518648
C25   C     C_3   0.548889 0.430163 0.954406 0.007824
C26   C     C_3   0.451111 0.569837 0.045594 0.007824
C27   C     C_1   0.610791 0.500002 0.889352 0.112151
C28   C     C_1   0.389209 0.499997 0.110648 0.112151
C29   C     C_3   0.522977 0.537643 0.035867 -0.044494
C30   C     C_3   0.525657 0.975778 0.035319 0.033979
C31   C     C_3   0.477023 0.462357 0.964133 -0.044494
C32   C     C_3   0.537104 0.499879 0.962947 0.018805
C33   C     C_3   0.462896 0.500121 0.037053 0.018805
C34   C     C_1   0.577547 0.499966 0.922561 0.126620
C35   C     C_1   0.422453 0.500034 0.077439 0.126620
C36   C     C_3   0.997998 0.562098 0.027222 -0.130188
C37   C     C_3   0.002002 0.437902 0.972778 -0.130188
C38   C     C_3   0.021032 0.503047 0.953844 -0.128839
C39   C     C_3   0.978968 0.496953 0.046156 -0.128839
C40   C     C_1   0.889631 0.499987 0.889426 0.059035
C41   C     C_3   0.474342 0.024222 0.964681 0.033979
C42   C     C_1   0.110369 0.500013 0.110574 0.059035
C43   C     C_3   0.940181 0.558778 0.036060 0.080157
C44   C     C_3   0.059819 0.441222 0.963940 0.080157
C45   C     C_3   0.963029 0.500488 0.963738 0.010808
C46   C     C_3   0.036971 0.499512 0.036262 0.010807
C47   C     C_R   0.849856 0.500023 0.650107 0.514744
C48   C     C_R   0.150144 0.499977 0.349893 0.514744
C49   C     C_1   0.922830 0.500129 0.922883 0.025831
C50   C     C_1   0.077170 0.499871 0.077117 0.025831
C51   C     C_3   0.026876 0.974223 0.439370 -0.165199
C52   C     C_3   0.537351 0.926390 0.963291 -0.017399
C53   C     C_3   0.973124 0.025777 0.560630 -0.165199
C54   C     C_3   0.954002 0.024296 0.476308 -0.008027
C55   C     C_3   0.045997 0.975704 0.523692 -0.008027
C56   C     C_1   0.889499 0.221186 0.610537 0.084821
C57   C     C_1   0.110501 0.778814 0.389462 0.084821
C58   C     C_3   0.035876 0.024063 0.500266 0.043580
C59   C     C_3   0.964124 0.975937 0.499734 0.043580
C60   C     C_3   0.963412 0.073630 0.536354 0.014182
C61   C     C_3   0.036588 0.926370 0.463646 0.014182
C62   C     C_1   0.922827 0.154616 0.577112 0.074884
C63   C     C_3   0.462649 0.073610 0.036709 -0.017399
C64   C     C_1   0.077173 0.845383 0.422888 0.074884
C65   C     C_3   0.045523 0.504303 0.524663 -0.129785
C66   C     C_3   0.954477 0.495697 0.475336 -0.129785
C67   C     C_3   0.971897 0.562706 0.559791 -0.130662
C68   C     C_3   0.028102 0.437294 0.440209 -0.130662
C69   C     C_1   0.889509 0.500003 0.610441 0.049711
C70   C     C_1   0.110491 0.499997 0.389559 0.049711
C71   C     C_R   0.650319 0.499991 0.849827 0.517084
C72   C     C_R   0.349681 0.500009 0.150173 0.517084
C73   C     C_3   0.036262 0.441958 0.501967 0.037008
C74   C     C_1   0.577552 0.845402 0.922700 0.082580
C75   C     C_3   0.963738 0.558042 0.498033 0.037008
C76   C     C_3   0.963713 0.499585 0.536529 0.043364
C77   C     C_3   0.036287 0.500415 0.463470 0.043364
C78   C     C_1   0.922933 0.499877 0.577098 0.016733
C79   C     C_1   0.077067 0.500123 0.422902 0.016733
C80   C     C_R   0.849892 0.300361 0.650201 0.515616
C81   C     C_R   0.150108 0.699639 0.349799 0.515616
C82   C     C_R   0.650206 0.699650 0.849804 0.516034
C83   C     C_R   0.349794 0.300350 0.150196 0.516034
C84   C     C_3   0.453335 0.024086 0.047181 0.034902
C85   C     C_1   0.422448 0.154598 0.077300 0.082580
C86   C     C_3   0.546665 0.975914 0.952819 0.034902
C87   C     C_3   0.464696 0.974195 0.974752 -0.161622
C88   C     C_3   0.535304 0.025805 0.025248 -0.161623
C89   C     C_1   0.610689 0.778829 0.889381 0.093338
C90   C     C_1   0.389311 0.221171 0.110619 0.093338
C91   C     C_2   0.126843 0.374346 0.921891 0.594870
C92   C     C_2   0.873157 0.625654 0.078109 0.594870
C93   C     C_2   0.903360 0.048955 0.447780 0.282143
C94   C     C_2   0.096640 0.951045 0.552220 0.282143
C95   C     C_2   0.922363 0.950913 0.500758 0.586108
C96   C     C_3   0.452281 0.569741 0.523535 0.034160
C97   C     C_2   0.077637 0.049087 0.499242 0.586108
C98   C     C_2   0.921015 0.624217 0.497175 0.250610
C99   C     C_2   0.078985 0.375782 0.502825 0.250610
C100  C     C_2   0.401357 0.049160 0.099355 0.619070
C101  C     C_2   0.598643 0.950840 0.900645 0.619070
C102  C     C_2   0.446097 0.049458 0.923610 0.620415
C103  C     C_2   0.553903 0.950542 0.076390 0.620415
C104  C     C_2   0.399107 0.648785 0.551510 0.619840
C105  C     C_2   0.600893 0.351215 0.448490 0.619840
C106  C     C_2   0.449196 0.424213 0.501444 0.618837
H1    H     H_    0.435759 0.953014 0.954036 0.160751
H2    H     H_    0.051675 0.385571 0.391013 0.129633
H3    H     H_    0.083339 0.507386 0.544536 0.131143
H4    H     H_    0.916661 0.492614 0.455464 0.131143
H5    H     H_    0.436461 0.562043 0.610500 0.159886
H6    H     H_    0.563539 0.437957 0.389499 0.159886
H7    H     H_    0.219176 0.313253 0.914736 0.360201
H8    H     H_    0.780824 0.686747 0.085264 0.360202
H9    H     H_    0.902331 0.007942 0.404993 0.122580
H10   H     H_    0.097669 0.992058 0.595007 0.122580
H11   H     H_    0.915560 0.865725 0.470545 0.363495
H12   H     H_    0.564241 0.046986 0.045964 0.160751
H13   H     H_    0.084440 0.134275 0.529455 0.363495
H14   H     H_    0.870169 0.660671 0.523974 0.117228
H15   H     H_    0.129831 0.339328 0.476026 0.117228
H16   H     H_    0.322810 0.134384 0.178005 0.353705
H17   H     H_    0.677190 0.865616 0.821995 0.353705
H18   H     H_    0.389057 0.134832 0.917537 0.360905
H19   H     H_    0.610943 0.865168 0.082463 0.360904
H20   H     H_    0.319491 0.720679 0.545753 0.365753
H21   H     H_    0.680509 0.279321 0.454246 0.365753
H22   H     H_    0.393706 0.387853 0.471573 0.357405
H23   H     H_    0.038320 0.505093 0.915494 0.147111
H24   H     H_    0.606294 0.612147 0.528427 0.357405
H25   H     H_    0.683149 0.279752 0.827197 0.359044
H26   H     H_    0.316851 0.720248 0.172803 0.359043
H27   H     H_    0.625531 0.411535 0.046041 0.129423
H28   H     H_    0.374469 0.588465 0.953959 0.129423
H29   H     H_    0.466283 0.396049 0.871167 0.136235
H30   H     H_    0.533717 0.603951 0.128833 0.136235
H31   H     H_    0.961680 0.494907 0.084506 0.147112
H32   H     H_    0.996256 0.613302 0.050105 0.145199
H33   H     H_    0.003743 0.386698 0.949894 0.145199
H34   H     H_    0.048906 0.953117 0.389658 0.142680
H35   H     H_    0.951094 0.046882 0.610342 0.142680
H36   H     H_    0.948325 0.614429 0.608987 0.129633
O1    O     O_3   0.750050 0.500010 0.750000 -0.468731
O2    O     O_R   0.332180 0.543100 0.332140 -0.519067
O3    O     O_R   0.789210 0.543100 0.875260 -0.515734
O4    O     O_R   0.210790 0.456900 0.124740 -0.515734
O5    O     O_R   0.667790 0.543110 0.667830 -0.523736
O6    O     O_R   0.332210 0.456890 0.332170 -0.523736
O7    O     O_R   0.875320 0.456920 0.667760 -0.513303
O8    O     O_R   0.124680 0.543080 0.332240 -0.513303
O9    O     O_R   0.667890 0.456890 0.789150 -0.525660
O10   O     O_R   0.332110 0.543110 0.210850 -0.525659
O11   O     O_R   0.875360 0.335610 0.667790 -0.522696
O12   O     O_3   0.249950 0.499990 0.250000 -0.468730
O13   O     O_R   0.124640 0.664390 0.332210 -0.522695
O14   O     O_R   0.667870 0.664400 0.875290 -0.517365
O15   O     O_R   0.332130 0.335600 0.124710 -0.517365
O16   O     O_R   0.789160 0.335600 0.667830 -0.521008
O17   O     O_R   0.210840 0.664400 0.332170 -0.521008
O18   O     O_R   0.667820 0.664410 0.789090 -0.527781
O19   O     O_R   0.332180 0.335590 0.210910 -0.527781
O20   O     O_2   0.137937 0.332554 0.864698 -0.480806
O21   O     O_R   0.176215 0.359998 0.948015 -0.676432
O22   O     O_2   0.862063 0.667445 0.135301 -0.480806
O23   O     O_R   0.789090 0.543120 0.667780 -0.535601
O24   O     O_R   0.823785 0.640002 0.051985 -0.676432
O25   O     O_2   0.863295 0.114637 0.472211 -0.457364
O26   O     O_2   0.136705 0.885363 0.527789 -0.457364
O27   O     O_2   0.865327 0.996941 0.532210 -0.465880
O28   O     O_R   0.948620 0.875446 0.465968 -0.680824
O29   O     O_2   0.134673 0.003059 0.467790 -0.465880
O30   O     O_R   0.051379 0.124554 0.534032 -0.680824
O31   O     O_2   0.942816 0.637519 0.466663 -0.462233
O32   O     O_2   0.057184 0.362481 0.533337 -0.462233
O33   O     O_2   0.399678 0.003158 0.101250 -0.461897
O34   O     O_R   0.210910 0.456880 0.332220 -0.535601
O35   O     O_R   0.355219 0.124634 0.145415 -0.680914
O36   O     O_2   0.600322 0.996842 0.898750 -0.461897
O37   O     O_R   0.644781 0.875366 0.854585 -0.680914
O38   O     O_2   0.459382 0.003558 0.866897 -0.461842
O39   O     O_R   0.404873 0.124967 0.950132 -0.670434
O40   O     O_2   0.540618 0.996442 0.133103 -0.461842
O41   O     O_R   0.595126 0.875033 0.049868 -0.670434
O42   O     O_2   0.396666 0.698385 0.599909 -0.463612
O43   O     O_R   0.352734 0.665450 0.522346 -0.670108
O44   O     O_2   0.603334 0.301615 0.400091 -0.463612
O45   O     O_R   0.667910 0.543090 0.875320 -0.518943
O46   O     O_R   0.647266 0.334550 0.477654 -0.670108
O47   O     O_2   0.463480 0.398905 0.533124 -0.463164
O48   O     O_R   0.408367 0.415927 0.466738 -0.675588
O49   O     O_2   0.536520 0.601095 0.466876 -0.463164
O50   O     O_R   0.591633 0.584072 0.533262 -0.675588
O51   O     O_2   0.606140 0.301453 0.903203 -0.452853
O52   O     O_R   0.649268 0.334898 0.858495 -0.693968
O53   O     O_2   0.393859 0.698547 0.096797 -0.452853
O54   O     O_R   0.350731 0.665102 0.141505 -0.693968
O55   O     O_2   0.552884 0.424877 0.093308 -0.463704
O56   O     O_R   0.332090 0.456910 0.124680 -0.518943
O57   O     O_2   0.447116 0.575123 0.906692 -0.463703
O58   O     O_2   0.417154 0.411641 0.944222 -0.457227
O59   O     O_2   0.582845 0.588359 0.055778 -0.457227
O60   O     O_R   0.875390 0.456910 0.789050 -0.535315
O61   O     O_R   0.124610 0.543090 0.210950 -0.535315
O62   O     O_R   0.667820 0.456900 0.667860 -0.519067
Zn1   Zn    Zn3+2 0.719220 0.561590 0.719210 0.986086
Zn2   Zn    Zn3+2 0.280780 0.438410 0.280790 0.986085
Zn3   Zn    Zn3+2 0.842430 0.438430 0.719180 0.989446
Zn4   Zn    Zn3+2 0.157570 0.561570 0.280820 0.989447
Zn5   Zn    Zn3+2 0.719260 0.438420 0.719240 1.001351
Zn6   Zn    Zn3+2 0.280740 0.561580 0.280760 1.001351
Zn7   Zn    Zn3+2 0.719300 0.561580 0.842360 1.002321
Zn8   Zn    Zn3+2 0.280700 0.438420 0.157640 1.002321

loop_
_geom_bond_atom_site_label_1
_geom_bond_atom_site_label_2
_ccdc_geom_bond_type
C25   C31   S    
H16   O35   S    
C66   C68   S    
C39   H31   S    
C81   O17   A    
C37   C45   S    
C48   O8    A    
C63   C88   S    
H19   O41   S    
C103  O40   D    
C102  O38   D    
C1    O3    A    
C51   C61   S    
C84   C87   S    
O7    Zn3   S    
O16   Zn5   S    
O2    Zn6   S    
C4    C25   S    
C53   C59   S    
C27   C71   S    
C80   O11   A    
O1    Zn5   S    
C54   C60   S    
C4    O52   S    
C104  O43   S    
C12   C23   S    
C97   O30   S    
C22   C32   S    
C103  O41   S    
C15   C106  S    
C48   C70   S    
C36   H32   S    
C76   C78   S    
C6    H27   S    
C52   C74   S    
C10   C15   S    
C47   O23   A    
C11   C14   S    
C86   C88   S    
C21   C33   S    
C1    O60   A    
C58   C60   S    
C40   C49   T    
C52   C87   S    
C17   C20   S    
C65   C73   S    
C41   C102  S    
C60   C62   S    
C93   H9    S    
O34   Zn2   S    
O5    Zn1   S    
C47   C69   S    
C38   C45   S    
O12   Zn8   S    
C101  O36   D    
C1    C40   S    
O18   Zn1   S    
O11   Zn3   S    
C23   O62   A    
O10   Zn6   S    
H11   O28   S    
C71   O9    A    
C47   O7    A    
C28   C35   T    
H24   O50   S    
C72   O10   A    
O62   Zn5   S    
C31   C33   S    
C91   O20   D    
C36   C46   S    
C26   C29   S    
C10   C96   S    
C53   H35   S    
C2    C16   S    
C39   C46   S    
C19   C42   S    
C9    C29   S    
H13   O30   S    
C99   H15   S    
C56   C62   T    
C82   O14   A    
C51   H34   S    
C92   O22   D    
C25   C32   S    
C53   C55   S    
C83   O19   A    
C63   C85   S    
O14   Zn7   S    
C7    O57   D    
C8    C31   S    
C91   O21   S    
C69   C78   T    
C28   C72   S    
C58   C97   S    
C59   C95   S    
C55   C94   S    
C8    H29   S    
C2    C11   S    
C14   C96   S    
C95   O28   S    
C53   C60   S    
C44   C46   S    
H8    O24   S    
C54   C59   S    
C77   C79   S    
C27   C34   T    
C4    O51   D    
C41   C87   S    
O1    Zn3   S    
C59   C61   S    
C19   O4    A    
C65   C77   S    
C22   C31   S    
C84   C100  S    
C38   H23   S    
C82   C89   S    
C7    H28   S    
H17   O37   S    
O13   Zn4   S    
C24   O6    A    
C94   O26   D    
C51   C58   S    
C98   O31   D    
C94   H10   S    
C75   C77   S    
C39   C43   S    
C65   C67   S    
C68   C73   S    
C6    C21   S    
C21   C29   S    
C75   C98   S    
C13   C24   S    
C32   C34   S    
C105  O44   D    
C30   C103  S    
C61   C64   S    
C38   C44   S    
C41   C86   S    
C3    O49   D    
C101  O37   S    
H7    O21   S    
C82   O18   A    
C26   C33   S    
C80   O16   A    
C83   O15   A    
C45   C49   S    
C56   C80   S    
C66   C76   S    
C100  O33   D    
C19   O61   A    
H21   O46   S    
C10   H5    S    
C17   C96   S    
C66   H4    S    
C98   H14   S    
C2    C15   S    
C95   O27   D    
C65   H3    S    
O12   Zn2   S    
C3    C14   S    
C9    O59   D    
C42   C50   T    
C5    O54   S    
C16   C18   S    
C104  O42   D    
O45   Zn7   S    
O60   Zn3   S    
C96   C104  S    
C37   H33   S    
C73   C76   S    
C14   C16   S    
O19   Zn2   S    
C8    O58   D    
H25   O52   S    
C67   C75   S    
C106  O48   S    
C30   C88   S    
C81   O13   A    
O56   Zn8   S    
C105  O46   S    
C57   C64   T    
C68   C77   S    
C73   C99   S    
C83   C90   S    
C21   C25   S    
C11   C17   S    
O9    Zn5   S    
C13   C20   T    
C70   C79   T    
C102  O39   S    
H20   O43   S    
C71   O45   A    
C97   O29   D    
C6    O55   D    
O1    Zn7   S    
C85   C90   T    
C15   C17   S    
C74   C89   T    
O4    Zn8   S    
C29   C32   S    
C7    C22   S    
O61   Zn4   S    
C46   C50   S    
C2    C105  S    
O17   Zn6   S    
C43   C92   S    
C54   C93   S    
C5    O53   D    
C63   C84   S    
C51   C54   S    
O6    Zn2   S    
C37   C44   S    
C52   C86   S    
O8    Zn4   S    
H18   O39   S    
O12   Zn6   S    
C10   C16   S    
C3    O50   S    
C11   H6    S    
C86   C101  S    
O1    Zn1   S    
C99   O32   D    
C23   O5    A    
C24   O2    A    
C66   C75   S    
C55   C61   S    
C36   C38   S    
C33   C35   S    
C88   H12   S    
H22   O48   S    
C30   C84   S    
C57   C81   S    
C44   C91   S    
C100  O35   S    
C72   O56   A    
C5    C26   S    
C9    H30   S    
C92   O24   S    
C87   H1    S    
C93   O25   D    
O15   Zn8   S    
C37   C39   S    
C22   C26   S    
C55   C58   S    
C12   C18   T    
H26   O54   S    
C41   C63   S    
C36   C43   S    
C67   C76   S    
C68   H2    S    
C106  O47   D    
C48   O34   A    
C67   H36   S    
O23   Zn1   S    
C43   C45   S    
O12   Zn4   S    
C30   C52   S    
O3    Zn7   S    
