data_mof_unit_20723.cif
_audit_creation_date              2012-12-10T18:29:35-0500
_audit_creation_method            fapswitch 2.2
_symmetry_space_group_name_H-M    P1
_symmetry_Int_Tables_number       1
_space_group_crystal_system       triclinic
_cell_length_a                    11.539852
_cell_length_b                    15.020427
_cell_length_c                    15.379898
_cell_angle_alpha                 81.956258
_cell_angle_beta                  89.32368
_cell_angle_gamma                 104.71225
_cell_volume                      2549.95848666

loop_
_atom_site_label
_atom_site_type_symbol
_atom_type_description
_atom_site_fract_x
_atom_site_fract_y
_atom_site_fract_z
_atom_type_partial_charge
C1    C     C_R   0.481061 0.441546 0.662547 0.858481
C2    C     C_R   0.513490 0.558355 0.337668 0.859033
C3    C     C_R   0.362167 0.354955 0.931358 0.064588
C4    C     C_R   0.488582 0.654134 0.066035 0.066889
C5    C     C_R   0.428303 0.519001 0.953063 0.006990
C6    C     C_R   0.404641 0.491654 0.043779 0.008282
C7    C     C_R   0.341582 0.398662 0.075087 -0.329047
C8    C     C_R   0.460735 0.614997 0.919415 -0.329991
C9    C     C_R   0.321670 0.329670 0.020070 0.466726
C10   C     C_R   0.492607 0.682693 0.974949 0.464321
C11   C     C_R   0.702865 0.848994 0.616307 0.354663
C12   C     C_R   0.297913 0.151218 0.382166 0.354200
C13   C     C_R   0.661013 0.756846 0.602977 -0.113427
C14   C     C_R   0.339549 0.243525 0.396470 -0.133081
C15   C     C_R   0.506287 0.792404 0.515455 -0.084623
C16   C     C_R   0.494280 0.207722 0.483765 -0.082310
C17   C     C_R   0.540685 0.886361 0.528600 -0.063540
C18   C     C_R   0.461372 0.114325 0.468973 -0.069358
C19   C     C_R   0.640967 0.913998 0.580533 0.063613
C20   C     C_R   0.361316 0.086829 0.416774 0.079540
C21   C     C_R   0.480758 0.953357 0.490831 0.120636
C22   C     C_R   0.522154 0.047549 0.505894 0.121475
C23   C     C_R   0.718044 0.501145 0.500112 0.902935
C24   C     C_R   0.281952 0.498850 0.499890 0.901659
C25   C     C_R   0.622772 0.071897 0.557446 -0.252255
C26   C     C_R   0.380894 0.929209 0.438576 -0.262117
C27   C     C_R   0.680077 0.006333 0.594314 -0.201853
C28   C     C_R   0.323204 0.994669 0.402119 -0.185867
C29   C     C_1   0.839240 0.502829 0.500539 -0.198863
C30   C     C_1   0.160765 0.497159 0.499427 -0.195482
C31   C     C_1   0.941081 0.501448 0.500272 -0.003379
C32   C     C_1   0.058922 0.498525 0.499671 -0.002964
C33   C     C_R   0.450584 0.406630 0.755805 -0.059686
C34   C     C_R   0.505094 0.593733 0.245141 -0.056338
C35   C     C_R   0.348824 0.287681 0.874295 -0.168240
C36   C     C_R   0.530101 0.719144 0.123579 -0.176374
C37   C     C_R   0.390868 0.313763 0.786442 -0.217760
C38   C     C_R   0.538342 0.689032 0.212718 -0.220778
C39   C     C_R   0.468555 0.471979 0.813271 -0.222186
C40   C     C_R   0.457396 0.529751 0.189337 -0.231601
C41   C     C_R   0.418003 0.449483 0.898645 0.054655
C42   C     C_R   0.446093 0.558184 0.100327 0.056489
H1    H     H_    0.661105 0.141579 0.570424 0.142481
H2    H     H_    0.343575 0.859787 0.424563 0.141663
H3    H     H_    0.434894 0.456631 0.215406 0.157931
H4    H     H_    0.523342 0.541290 0.790347 0.155223
H5    H     H_    0.572957 0.739936 0.255669 0.161218
H6    H     H_    0.375270 0.261934 0.742555 0.162264
H7    H     H_    0.304855 0.215222 0.896986 0.178302
H8    H     H_    0.559927 0.792948 0.099577 0.176233
H9    H     H_    0.302238 0.379882 0.141269 0.149411
H10   H     H_    0.458363 0.638868 0.850006 0.160664
H11   H     H_    0.564989 0.234608 0.525281 0.144974
H12   H     H_    0.434887 0.765157 0.474624 0.145643
H13   H     H_    0.294731 0.295475 0.369335 0.138880
H14   H     H_    0.707089 0.705589 0.629876 0.151649
N1    N     N_R   0.566020 0.731700 0.552730 -0.118982
N2    N     N_R   0.433980 0.268300 0.447270 -0.113209
O1    O     O_R   0.466720 0.383110 0.605620 -0.612075
O2    O     O_R   0.533280 0.616890 0.394380 -0.613064
O3    O     O_R   0.509090 0.531900 0.639510 -0.614291
O4    O     O_R   0.490910 0.468100 0.360490 -0.614963
O5    O     O_R   0.644370 0.425610 0.483050 -0.606715
O6    O     O_R   0.355630 0.574390 0.516950 -0.606784
O7    O     O_R   0.686740 0.574390 0.516930 -0.615531
O8    O     O_R   0.313260 0.425610 0.483070 -0.616905
Zn1   Zn    Zn3+2 0.471710 0.400660 0.477370 0.936169
Zn2   Zn    Zn3+2 0.528290 0.599340 0.522630 0.936725
O9    O     O_3   0.254388 0.239364 0.049669 -0.659562
C43   C     C_3   0.306656 0.196485 0.121426 0.107019
H15   H     H_    0.237425 0.133708 0.152107 0.206606
H16   H     H_    0.331615 0.240425 0.174131 0.144072
C44   C     C_3   0.414957 0.165159 0.090801 -0.405846
H17   H     H_    0.387596 0.119119 0.039970 0.231620
H18   H     H_    0.486837 0.226819 0.061310 0.218279
C45   C     C_3   0.464709 0.112600 0.167565 -0.894722
H19   H     H_    0.494001 0.157864 0.218722 0.265168
H20   H     H_    0.543121 0.091005 0.143745 0.261423
H21   H     H_    0.395357 0.049366 0.197171 0.268535
O10   O     O_3   0.521472 0.776822 0.941275 -0.655788
C46   C     C_3   0.628350 0.802490 0.886959 0.102552
H22   H     H_    0.626905 0.866598 0.841591 0.187728
H23   H     H_    0.635965 0.749950 0.844299 0.135403
C47   C     C_3   0.738952 0.824213 0.942196 -0.395535
H24   H     H_    0.732236 0.878939 0.982301 0.227325
H25   H     H_    0.742995 0.760612 0.987353 0.217335
C48   C     C_3   0.854192 0.857947 0.884027 -0.887144
H26   H     H_    0.863574 0.803597 0.844316 0.275252
H27   H     H_    0.932609 0.872881 0.925789 0.255123
H28   H     H_    0.853623 0.922687 0.839348 0.279681
H29   H     H_    0.756794 0.028921 0.633266 0.181650
H30   H     H_    0.246750 0.971985 0.362964 0.187215
O11   O     O_3   0.803457 0.875087 0.664210 -0.667599
C49   C     C_3   0.906334 0.890690 0.607653 0.053419
H31   H     H_    0.902594 0.941213 0.547873 0.146937
H32   H     H_    0.914088 0.824002 0.587318 0.146505
C50   C     C_3   0.017996 0.931084 0.656059 -0.333594
H33   H     H_    0.010135 0.996709 0.678300 0.222526
H34   H     H_    0.024938 0.880856 0.714863 0.231740
C51   C     C_3   0.131672 0.951425 0.596921 -0.939409
H35   H     H_    0.142682 0.886446 0.575168 0.269537
H36   H     H_    0.211134 0.981021 0.633648 0.269529
H37   H     H_    0.127378 0.002563 0.538285 0.263112
O12   O     O_3   0.198194 0.123051 0.333319 -0.678599
C52   C     C_3   0.097362 0.145907 0.368515 0.060533
H38   H     H_    0.094322 0.216449 0.336752 0.152831
H39   H     H_    0.098954 0.144673 0.441310 0.134065
C53   C     C_3   0.983472 0.075126 0.349058 -0.331875
H40   H     H_    0.977737 0.076581 0.276795 0.232851
H41   H     H_    0.987456 0.004228 0.379006 0.214147
C54   C     C_3   0.871334 0.095784 0.386123 -0.954565
H42   H     H_    0.875654 0.095143 0.458291 0.263053
H43   H     H_    0.790501 0.041851 0.373003 0.270016
H44   H     H_    0.862940 0.164924 0.354651 0.270484

loop_
_geom_bond_atom_site_label_1
_geom_bond_atom_site_label_2
_ccdc_geom_bond_type
C21   C26   A    
C4    C36   A    
O11   C49   S    
C15   N1    A    
C44   H17   S    
C54   H42   S    
C47   C48   S    
C48   H26   S    
C25   H1    S    
C50   H33   S    
C26   H2    S    
C39   C41   A    
C52   H39   S    
C11   C19   A    
C33   C39   A    
O4    Zn1   S    
C34   C40   A    
C23   C29   S    
C35   C37   A    
C9    O9    S    
C12   O12   S    
C1    O1    A    
C5    C6    A    
C2    O2    A    
C13   N1    A    
C53   H40   S    
C15   C17   A    
C16   H11   S    
C46   H23   S    
C22   C25   A    
C35   H7    S    
C45   H21   S    
C27   H29   S    
C43   H15   S    
C19   C27   A    
C8    H10   S    
C24   O8    A    
C13   H14   S    
O1    Zn1   S    
C11   O11   S    
C23   O5    A    
C14   H13   S    
C24   O6    A    
C34   C38   A    
C21   C22   A    
C44   H18   S    
O9    C43   S    
O12   C52   S    
C50   H34   S    
C46   H22   S    
C24   C30   S    
C40   H3    S    
C14   N2    A    
C52   C53   S    
O5    Zn1   S    
C1    C33   S    
C15   H12   S    
C47   H24   S    
C54   H43   S    
C10   O10   S    
C20   C28   A    
C49   C50   S    
C51   H37   S    
C17   C21   A    
C3    C9    A    
C31   C32   S    
C3    C35   A    
O7    Zn2   S    
C12   C20   A    
C43   C44   S    
C51   H36   S    
C28   H30   S    
C16   N2    A    
C45   H19   S    
C37   H6    S    
C49   H32   S    
C38   H5    S    
C39   H4    S    
C16   C18   A    
C12   C14   A    
C48   H27   S    
C44   C45   S    
N1    Zn2   S    
C4    C10   A    
O6    Zn2   S    
C46   C47   S    
C36   H8    S    
C7    C9    A    
C5    C41   A    
C3    C41   A    
C50   C51   S    
C18   C22   A    
C45   H20   S    
O10   C46   S    
C1    O3    A    
C5    C8    A    
C6    C7    A    
C25   C27   A    
C52   H38   S    
C26   C28   A    
C53   C54   S    
C23   O7    A    
C36   C38   A    
C7    H9    S    
C29   C31   T    
C30   C32   T    
C11   C13   A    
O3    Zn2   S    
C2    C34   S    
C4    C42   A    
C40   C42   A    
C51   H35   S    
C17   C19   A    
C53   H41   S    
O8    Zn1   S    
C54   H44   S    
C18   C20   A    
C49   H31   S    
C33   C37   A    
N2    Zn1   S    
O2    Zn2   S    
C8    C10   A    
C6    C42   A    
C48   H28   S    
C47   H25   S    
C43   H16   S    
C2    O4    A    
