data_mof_unit_10376.cif
_audit_creation_date              2012-12-10T16:59:12-0500
_audit_creation_method            fapswitch 2.2
_symmetry_space_group_name_H-M    P1
_symmetry_Int_Tables_number       1
_space_group_crystal_system       triclinic
_cell_length_a                    7.742687
_cell_length_b                    8.557249
_cell_length_c                    27.700707
_cell_angle_alpha                 91.034113
_cell_angle_beta                  86.008798
_cell_angle_gamma                 93.732742
_cell_volume                      1826.83715588

loop_
_atom_site_label
_atom_site_type_symbol
_atom_type_description
_atom_site_fract_x
_atom_site_fract_y
_atom_site_fract_z
_atom_type_partial_charge
C1    C     C_R   0.545919 0.794842 0.498736 0.974457
C2    C     C_R   0.429387 0.623935 0.129640 -0.020262
C3    C     C_R   0.510131 0.503459 0.646404 -0.048835
C4    C     C_R   0.489818 0.496433 0.353596 -0.048850
C5    C     C_R   0.451904 0.634904 0.027410 0.048024
C6    C     C_R   0.547530 0.364627 0.972596 0.048024
C7    C     C_R   0.532058 0.359254 0.023853 0.049003
C8    C     C_R   0.467381 0.640278 0.976153 0.049006
C9    C     C_R   0.485671 0.494814 0.050908 0.073197
C10   C     C_R   0.513787 0.504725 0.949097 0.073197
C11   C     C_R   0.402534 0.765027 0.056295 -0.225950
C12   C     C_R   0.454081 0.205158 0.501264 0.974444
C13   C     C_R   0.596894 0.234503 0.943710 -0.225951
C14   C     C_R   0.392380 0.759484 0.106343 -0.132919
C15   C     C_R   0.607110 0.240068 0.893661 -0.132909
C16   C     C_R   0.502780 0.500508 0.593910 0.881329
C17   C     C_R   0.497214 0.499478 0.406090 0.881353
C18   C     C_R   0.438929 0.777408 0.950719 -0.223415
C19   C     C_R   0.560522 0.222130 0.049288 -0.223416
C20   C     C_2   0.570174 0.958333 0.498003 -0.370754
C21   C     C_2   0.429826 0.041667 0.501997 -0.370751
C22   C     C_R   0.498335 0.646388 0.823290 0.517985
C23   C     C_R   0.525806 0.509089 0.897829 -0.048563
C24   C     C_R   0.501314 0.353220 0.176716 0.518051
C25   C     C_R   0.574117 0.380394 0.819883 0.525844
C26   C     C_R   0.425539 0.619215 0.180120 0.525831
C27   C     C_R   0.364032 0.487756 0.726504 0.045916
C28   C     C_R   0.635831 0.511663 0.273476 0.045968
C29   C     C_R   0.356771 0.484786 0.676415 -0.242348
C30   C     C_R   0.643167 0.514738 0.323565 -0.242368
C31   C     C_R   0.670882 0.525953 0.666843 -0.211632
C32   C     C_R   0.329009 0.474190 0.333176 -0.211642
C33   C     C_R   0.678223 0.530537 0.716750 -0.097421
C34   C     C_R   0.473713 0.490471 0.102177 -0.048561
C35   C     C_R   0.321595 0.469491 0.283273 -0.097456
C36   C     C_R   0.525607 0.511441 0.746568 0.275568
C37   C     C_R   0.474193 0.488228 0.253435 0.275519
C38   C     C_1   0.793937 0.534954 0.242951 0.186160
C39   C     C_1   0.205908 0.464148 0.757006 0.186069
C40   C     C_R   0.492143 0.646516 0.873850 -0.020154
C41   C     C_R   0.507415 0.353059 0.126157 -0.020151
C42   C     C_R   0.450711 0.779933 0.900624 -0.139270
C43   C     C_R   0.548799 0.219626 0.099384 -0.139246
C44   C     C_R   0.570166 0.375637 0.870365 -0.020286
H1    H     H_    0.790691 0.541384 0.644326 0.160364
H2    H     H_    0.232079 0.466300 0.660943 0.163109
H3    H     H_    0.355758 0.862827 0.126755 0.195907
H4    H     H_    0.643739 0.136729 0.873250 0.195912
H5    H     H_    0.370003 0.874025 0.041700 0.142481
H6    H     H_    0.629382 0.125491 0.958305 0.142476
H7    H     H_    0.406965 0.886043 0.968140 0.138979
H8    H     H_    0.592464 0.113488 0.031868 0.138984
H9    H     H_    0.702659 0.009552 0.494189 0.180868
H10   H     H_    0.297341 0.990448 0.505811 0.180868
H11   H     H_    0.209201 0.459050 0.355706 0.160405
H12   H     H_    0.014088 0.383062 0.463387 0.190568
H13   H     H_    0.985912 0.616938 0.536613 0.190572
H14   H     H_    0.802354 0.548865 0.732364 0.156505
H15   H     H_    0.197416 0.451367 0.267677 0.156566
H16   H     H_    0.425662 0.887287 0.882938 0.191804
H17   H     H_    0.573868 0.112279 0.117071 0.191812
H18   H     H_    0.767907 0.533021 0.339020 0.163083
N1    N     N_R   0.535613 0.513620 0.797717 -0.360093
N2    N     N_R   0.464098 0.486008 0.202288 -0.360079
N3    N     N_2   0.950320 0.457960 0.486880 -0.174697
N4    N     N_2   0.049680 0.542040 0.513120 -0.174692
N5    N     N_1   0.920332 0.553793 0.218333 -0.183700
N6    N     N_1   0.079491 0.445058 0.781601 -0.183506
O1    O     O_R   0.389250 0.738570 0.503220 -0.610890
O2    O     O_2   0.534277 0.222775 0.200255 -0.532068
O3    O     O_2   0.386475 0.747108 0.206923 -0.526186
O4    O     O_2   0.613232 0.252521 0.793078 -0.526154
O5    O     O_R   0.610750 0.261430 0.496780 -0.610892
O6    O     O_R   0.678390 0.711630 0.494810 -0.630074
O7    O     O_R   0.321610 0.288370 0.505190 -0.630078
O8    O     O_R   0.355440 0.513440 0.575450 -0.620253
O9    O     O_R   0.644560 0.486560 0.424550 -0.620258
O10   O     O_R   0.644590 0.486500 0.567040 -0.629751
O11   O     O_R   0.355410 0.513500 0.432960 -0.629775
O12   O     O_2   0.465396 0.776843 0.799753 -0.532080
Zn1   Zn    Zn3+2 0.306940 0.517990 0.505620 0.951064
Zn2   Zn    Zn3+2 0.693060 0.482010 0.494380 0.951067

loop_
_geom_bond_atom_site_label_1
_geom_bond_atom_site_label_2
_ccdc_geom_bond_type
C33   H14   S    
C24   C41   A    
C27   C29   A    
C39   N6    T    
H13   N4    S    
C24   O2    S    
C1    O6    A    
O9    Zn2   S    
C35   C37   A    
C15   C44   A    
C5    C11   A    
C18   C42   A    
C21   H10   S    
C11   C14   A    
H12   N3    S    
C17   O11   A    
C33   C36   A    
C35   H15   S    
C25   N1    A    
C3    C29   A    
C26   N2    A    
C22   N1    A    
C14   H3    S    
C19   H8    S    
C27   C39   S    
C31   C33   A    
C36   N1    S    
C32   H11   S    
C2    C34   A    
C40   C42   A    
C24   N2    A    
C12   O5    A    
C26   O3    S    
C41   C43   A    
C34   C41   A    
C15   H4    S    
O6    Zn2   S    
C25   C44   A    
C19   C43   A    
C18   H7    S    
C32   C35   A    
C42   H16   S    
O11   Zn1   S    
O7    Zn1   S    
C12   C21   S    
C8    C18   A    
C23   C44   A    
C5    C9    A    
C11   H5    S    
O10   Zn2   S    
C28   C38   S    
C22   C40   A    
C17   O9    A    
C2    C26   A    
C25   O4    S    
C38   N5    T    
C3    C31   A    
C4    C32   A    
C4    C17   S    
C7    C19   A    
C13   C15   A    
C9    C34   A    
C10   C23   A    
O5    Zn2   S    
C37   N2    S    
C43   H17   S    
C7    C9    A    
C1    C20   S    
C16   O8    A    
C20   H9    S    
O8    Zn1   S    
C6    C10   A    
C5    C8    A    
C6    C7    A    
C27   C36   A    
C29   H2    S    
C30   H18   S    
C22   O12   S    
N4    Zn1   S    
N3    Zn2   S    
C28   C37   A    
C28   C30   A    
C16   O10   A    
C2    C14   A    
C1    O1    A    
O1    Zn1   S    
C13   H6    S    
C20   C21   D    
C8    C10   A    
N3    N4    D    
C31   H1    S    
C12   O7    A    
C4    C30   A    
C3    C16   S    
C23   C40   A    
C6    C13   A    
