data_mof_unit_61347.cif
_audit_creation_date              2012-10-26T19:30:38-0400
_audit_creation_method            fapswitch 2.2
_symmetry_space_group_name_H-M    P1
_symmetry_Int_Tables_number       1
_space_group_crystal_system       triclinic
_cell_length_a                    19.389072
_cell_length_b                    10.662294
_cell_length_c                    9.465361
_cell_angle_alpha                 90.48826
_cell_angle_beta                  89.972429
_cell_angle_gamma                 91.132293
_cell_volume                      1956.33964895

loop_
_atom_site_label
_atom_site_type_symbol
_atom_type_description
_atom_site_fract_x
_atom_site_fract_y
_atom_site_fract_z
_atom_type_partial_charge
C1    C     C_R   0.500855 0.260070 0.499224 0.604004
C2    C     C_3   0.503557 0.037601 0.366866 0.207414
C3    C     C_3   0.481022 0.604959 0.049874 0.302548
C4    C     C_3   0.518976 0.395042 0.950122 0.302580
C5    C     C_3   0.438709 0.521258 0.949200 -0.040007
C6    C     C_3   0.561288 0.478736 0.050795 -0.039759
C7    C     C_3   0.541822 0.585773 0.950948 0.178426
C8    C     C_3   0.458179 0.414224 0.049048 0.177981
C9    C     C_R   0.367310 0.505189 0.499686 0.589590
C10   C     C_R   0.632701 0.494927 0.500327 0.589035
C11   C     C_R   0.254188 0.544164 0.623838 0.219202
C12   C     C_R   0.499149 0.739929 0.500777 0.604067
C13   C     C_R   0.746025 0.457603 0.376147 0.219082
C14   C     C_R   0.181203 0.544779 0.623554 0.065993
C15   C     C_R   0.818994 0.457188 0.376740 0.066283
C16   C     C_R   0.144973 0.510045 0.500305 -0.040638
C17   C     C_R   0.855084 0.491465 0.500300 -0.040863
C18   C     C_R   0.180636 0.483478 0.375218 0.131639
C19   C     C_R   0.819270 0.517209 0.625425 0.131865
C20   C     C_R   0.252471 0.492884 0.371713 0.205191
C21   C     C_R   0.747448 0.507128 0.628707 0.205371
C22   C     C_R   0.290481 0.514967 0.498123 0.023501
C23   C     C_3   0.556206 0.043540 0.573037 0.049706
C24   C     C_R   0.709558 0.485588 0.502006 0.023065
C25   C     C_R   0.930434 0.496309 0.500296 0.369173
C26   C     C_R   0.069624 0.505410 0.500578 0.369246
C27   C     C_3   0.443802 0.956454 0.426967 0.049555
C28   C     C_3   0.556845 0.957384 0.441082 0.187441
C29   C     C_3   0.443162 0.042610 0.558925 0.187374
C30   C     C_3   0.498116 0.875962 0.502317 0.012207
C31   C     C_3   0.501892 0.124034 0.497689 0.012157
C32   C     C_3   0.496452 0.962393 0.633139 0.207522
Cu1   Cu    Cu3+1 0.500020 0.499990 0.643150 1.120555
Cu2   Cu    Cu3+1 0.499980 0.500010 0.356850 1.120367
H1    H     H_    0.387538 0.541203 0.904771 0.183384
H2    H     H_    0.508657 0.000615 0.168680 0.366436
H3    H     H_    0.448853 0.772047 0.024713 0.347431
H4    H     H_    0.551092 0.227918 0.975287 0.347472
H5    H     H_    0.612437 0.458632 0.095207 0.183751
H6    H     H_    0.262581 0.565162 0.827842 0.359315
H7    H     H_    0.737775 0.440003 0.171873 0.359572
H8    H     H_    0.310145 0.559392 0.226248 0.353209
H9    H     H_    0.689690 0.439225 0.773283 0.353508
H10   H     H_    0.642785 0.983148 0.344587 0.364297
H11   H     H_    0.357146 0.016804 0.655157 0.364266
H12   H     H_    0.491147 0.999406 0.831282 0.366434
I1    I     I_    0.611204 0.730725 0.881542 -0.075243
I2    I     I_    0.388865 0.269145 0.118382 -0.075167
I3    I     I_    0.124677 0.610518 0.803590 -0.148947
I4    I     I_    0.875614 0.392007 0.196629 -0.147790
I5    I     I_    0.127423 0.428024 0.186661 -0.081769
I6    I     I_    0.872228 0.572419 0.814342 -0.082212
I7    I     I_    0.646740 0.109530 0.681383 -0.201722
I8    I     I_    0.353270 0.890427 0.318625 -0.201779
N1    N     N_R   0.033572 0.589657 0.425308 -0.160401
N2    N     N_R   0.966488 0.412071 0.575575 -0.160367
N3    N     N_R   0.964975 0.585156 0.425133 -0.158115
N4    N     N_R   0.035085 0.416571 0.575751 -0.158001
N5    N     N_3   0.500050 0.499970 0.858290 -0.261974
N6    N     N_3   0.499950 0.500030 0.141710 -0.262119
O1    O     O_R   0.500030 0.316850 0.620870 -0.435287
O2    O     O_3   0.709133 0.424618 0.256553 -0.675708
O3    O     O_3   0.284048 0.479909 0.242670 -0.628475
O4    O     O_3   0.715778 0.518889 0.757829 -0.628748
O5    O     O_3   0.615730 0.909001 0.376969 -0.630541
O6    O     O_3   0.384279 0.090985 0.623053 -0.630439
O7    O     O_3   0.489920 0.921949 0.772618 -0.650472
O8    O     O_3   0.510113 0.078052 0.227395 -0.650591
O9    O     O_3   0.460250 0.719354 0.106895 -0.639290
O10   O     O_3   0.539755 0.280653 0.893095 -0.639242
O11   O     O_R   0.499970 0.683150 0.379130 -0.435267
O12   O     O_R   0.500000 0.316860 0.379090 -0.467871
O13   O     O_R   0.500000 0.683140 0.620910 -0.467767
O14   O     O_R   0.400160 0.499980 0.620930 -0.456929
O15   O     O_R   0.599840 0.500020 0.379070 -0.456981
O16   O     O_R   0.400130 0.499990 0.379150 -0.487324
O17   O     O_R   0.599870 0.500010 0.620850 -0.487226
O18   O     O_3   0.291321 0.578110 0.742818 -0.676184

loop_
_geom_bond_atom_site_label_1
_geom_bond_atom_site_label_2
_ccdc_geom_bond_type
H4    O10   S    
H3    O9    S    
C27   C29   S    
C25   N2    A    
C4    C8    S    
C26   N1    A    
C4    O10   S    
C27   I8    S    
C3    O9    S    
C29   C32   S    
C3    C7    S    
C11   C14   A    
C9    C22   S    
C14   I3    S    
C1    C31   S    
Cu2   O11   S    
C15   I4    S    
C21   O4    S    
C19   I6    S    
C13   O2    S    
C18   I5    S    
C2    C27   S    
C9    O16   A    
C18   C20   A    
Cu2   O15   S    
C3    N6    S    
Cu1   N5    S    
C12   O13   A    
C27   C30   S    
Cu2   N6    S    
H10   O5    S    
C25   N3    A    
H7    O2    S    
C7    N5    S    
C10   O17   A    
H9    O4    S    
C23   I7    S    
C16   C26   S    
C1    O12   A    
C5    N5    S    
C6    N6    S    
C4    C6    S    
C10   C24   S    
C13   C24   A    
C2    C31   S    
C7    I1    S    
C8    I2    S    
C11   O18   S    
C10   O15   A    
C13   C15   A    
Cu1   Cu2   S    
C23   C28   S    
C26   N4    A    
C32   O7    S    
Cu1   O13   S    
C12   O11   A    
C20   C22   A    
N1    N3    A    
H6    O18   S    
C9    O14   A    
Cu2   O12   S    
C15   C17   A    
C12   C30   S    
C3    C5    S    
C1    O1    A    
C5    C8    S    
H2    O8    S    
C6    C7    S    
C11   C22   A    
C2    O8    S    
C17   C25   S    
C23   C32   S    
C20   O3    S    
C28   C30   S    
C28   O5    S    
H12   O7    S    
C29   C31   S    
C8    N6    S    
C30   C32   S    
Cu1   O17   S    
Cu1   O1    S    
C5    H1    S    
C4    N5    S    
C17   C19   A    
N2    N4    A    
C14   C16   A    
C29   O6    S    
Cu1   O14   S    
C16   C18   A    
C21   C24   A    
H11   O6    S    
C6    H5    S    
C2    C28   S    
H8    O3    S    
Cu2   O16   S    
C19   C21   A    
C23   C31   S    
