data_mof_unit_66918.cif
_audit_creation_date              2013-03-05T15:57:27-0500
_audit_creation_method            fapswitch 2.2
_symmetry_space_group_name_H-M    P1
_symmetry_Int_Tables_number       1
_space_group_crystal_system       triclinic
_cell_length_a                    17.575358
_cell_length_b                    19.018509
_cell_length_c                    8.313487
_cell_angle_alpha                 90.00007
_cell_angle_beta                  101.123607
_cell_angle_gamma                 89.998871
_cell_volume                      2726.63670081

loop_
_atom_site_label
_atom_site_type_symbol
_atom_site_description
_atom_site_fract_x
_atom_site_fract_y
_atom_site_fract_z
_atom_type_partial_charge
P1    P     P_3+3 0.834140 0.419320 0.003900 0.446099
P2    P     P_3+3 0.834140 0.580680 0.503900 0.446111
P3    P     P_3+3 0.334140 0.919320 0.003900 0.446113
P4    P     P_3+3 0.334140 0.080680 0.503900 0.446108
O1    O     O_2   0.841960 0.394640 0.833410 -0.346301
O2    O     O_2   0.841960 0.605360 0.333410 -0.346381
O3    O     O_2   0.341960 0.894640 0.833410 -0.346314
O4    O     O_2   0.341960 0.105360 0.333410 -0.346375
O5    O     O_3   0.907950 0.463080 0.102990 -0.415884
O6    O     O_3   0.907950 0.536920 0.602990 -0.415821
O7    O     O_3   0.407950 0.963080 0.102990 -0.415845
O8    O     O_3   0.407950 0.036920 0.602990 -0.415803
O9    O     O_3   0.972780 0.329600 0.629720 -0.386534
O10   O     O_3   0.972780 0.670400 0.129720 -0.386536
O11   O     O_3   0.472780 0.829600 0.629720 -0.386522
O12   O     O_3   0.472780 0.170400 0.129720 -0.386501
O13   O     O_2   0.842414 0.278462 0.699346 -0.335307
O14   O     O_2   0.842394 0.721518 0.199297 -0.335290
O15   O     O_2   0.342417 0.778459 0.699356 -0.335309
O16   O     O_2   0.342405 0.221524 0.199307 -0.335270
O17   O     O_3   0.756275 0.477433 0.969289 -0.607979
O18   O     O_3   0.756271 0.522571 0.469324 -0.607984
O19   O     O_3   0.256274 0.977432 0.969327 -0.607984
O20   O     O_3   0.256270 0.022574 0.469353 -0.607994
O21   O     O_3   0.940881 0.187901 0.643133 -0.554895
O22   O     O_3   0.940860 0.812105 0.143207 -0.554760
O23   O     O_3   0.440887 0.687905 0.643127 -0.554928
O24   O     O_3   0.440882 0.312097 0.143221 -0.554794
H1    H     H_    0.057181 0.205852 0.727691 0.167442
H2    H     H_    0.057176 0.794179 0.227696 0.167389
H3    H     H_    0.557190 0.705863 0.727645 0.167428
H4    H     H_    0.557199 0.294182 0.227665 0.167397
C1    C     C_3   0.036854 0.110411 0.587506 -1.169534
C2    C     C_3   0.036803 0.889633 0.087558 -1.169651
C3    C     C_3   0.536856 0.610411 0.587499 -1.169539
C4    C     C_3   0.536806 0.389629 0.087519 -1.169736
H5    H     H_    0.592824 0.608302 0.546404 0.237592
H6    H     H_    0.592744 0.391773 0.046293 0.237649
H7    H     H_    0.092826 0.108305 0.546411 0.237608
H8    H     H_    0.092755 0.891766 0.046394 0.237655
H9    H     H_    0.040294 0.080051 0.702322 0.275533
H10   H     H_    0.040269 0.919975 0.202405 0.275506
H11   H     H_    0.540302 0.580057 0.702326 0.275537
H12   H     H_    0.540291 0.419971 0.202365 0.275521
P5    P     P_3+3 0.165830 0.418670 0.685610 0.451425
P6    P     P_3+3 0.165830 0.581330 0.185610 0.451435
P7    P     P_3+3 0.665830 0.918670 0.685610 0.451422
P8    P     P_3+3 0.665830 0.081330 0.185610 0.451423
P9    P     P_3+3 0.101004 0.268556 0.106239 0.484196
P10   P     P_3+3 0.101002 0.731444 0.606237 0.484215
P11   P     P_3+3 0.601006 0.768557 0.106240 0.484188
P12   P     P_3+3 0.601003 0.231443 0.606236 0.484209
O25   O     O_2   0.157990 0.394030 0.856030 -0.376232
O26   O     O_2   0.157990 0.605970 0.356030 -0.376275
O27   O     O_2   0.657990 0.894030 0.856030 -0.376256
O28   O     O_2   0.657990 0.105970 0.356030 -0.376265
O29   O     O_3   0.027110 0.329490 0.059550 -0.365412
O30   O     O_3   0.027110 0.670510 0.559550 -0.365400
O31   O     O_3   0.527110 0.829490 0.059550 -0.365427
O32   O     O_3   0.527110 0.170510 0.559550 -0.365400
O33   O     O_2   0.151983 0.273050 0.974642 -0.366157
O34   O     O_2   0.151976 0.726954 0.474628 -0.366122
O35   O     O_2   0.651990 0.773058 0.974657 -0.366171
O36   O     O_2   0.651980 0.226949 0.474635 -0.366144
O37   O     O_3   0.246346 0.471936 0.728633 -0.584437
O38   O     O_3   0.246348 0.528059 0.228598 -0.584476
O39   O     O_3   0.746348 0.971939 0.728617 -0.584447
O40   O     O_3   0.746351 0.028057 0.228592 -0.584553
O41   O     O_3   0.051935 0.189767 0.059462 -0.500900
O42   O     O_3   0.051923 0.810233 0.559477 -0.500907
O43   O     O_3   0.551945 0.689766 0.059434 -0.500868
O44   O     O_3   0.551931 0.310233 0.559460 -0.500888
C5    C     C_3   0.006999 0.178898 0.179476 0.346015
C6    C     C_3   0.007017 0.821111 0.679550 0.346102
C7    C     C_3   0.506985 0.678895 0.179401 0.345919
C8    C     C_3   0.507009 0.321110 0.679501 0.346083
H13   H     H_    0.975665 0.227092 0.206160 0.067386
H14   H     H_    0.975702 0.772909 0.706301 0.067285
H15   H     H_    0.475647 0.727090 0.206051 0.067442
H16   H     H_    0.475674 0.272919 0.706212 0.067318
H17   H     H_    0.044066 0.159797 0.292335 0.012945
H18   H     H_    0.044106 0.840230 0.792383 0.012847
H19   H     H_    0.544030 0.659789 0.292285 0.012983
H20   H     H_    0.544089 0.340212 0.792345 0.012882
C9    C     C_3   0.946658 0.123859 0.120042 -0.627183
C10   C     C_3   0.946643 0.876143 0.620138 -0.626916
C11   C     C_3   0.446646 0.623859 0.119903 -0.627266
C12   C     C_3   0.446664 0.376152 0.620090 -0.627000
H21   H     H_    0.410822 0.645353 0.007338 0.238686
H22   H     H_    0.410738 0.354634 0.507666 0.238526
H23   H     H_    0.910777 0.145358 0.007546 0.238593
H24   H     H_    0.910703 0.854600 0.507741 0.238481
C13   C     C_3   0.224930 0.459449 0.255469 0.419103
C14   C     C_3   0.224924 0.540553 0.755424 0.419158
C15   C     C_3   0.724934 0.959445 0.255442 0.418992
C16   C     C_3   0.724924 0.040553 0.755433 0.419202
H25   H     H_    0.186663 0.457900 0.347007 0.067453
H26   H     H_    0.186662 0.542119 0.846966 0.067434
H27   H     H_    0.686654 0.957893 0.346955 0.067499
H28   H     H_    0.686637 0.042111 0.846927 0.067441
H29   H     H_    0.195786 0.434853 0.139231 0.116951
H30   H     H_    0.195775 0.565120 0.639160 0.116962
H31   H     H_    0.695798 0.934852 0.139191 0.116993
H32   H     H_    0.695798 0.065132 0.639166 0.116939
C17   C     C_3   0.299085 0.420284 0.322343 -0.675484
C18   C     C_3   0.299078 0.579736 0.822218 -0.675481
C19   C     C_3   0.799084 0.920276 0.322352 -0.675587
C20   C     C_3   0.799070 0.079733 0.822320 -0.675544
H33   H     H_    0.316655 0.435160 0.453473 0.222347
H34   H     H_    0.316642 0.564922 0.953393 0.222281
H35   H     H_    0.816641 0.935148 0.453470 0.222396
H36   H     H_    0.816598 0.064922 0.953496 0.222263
H37   H     H_    0.288704 0.362698 0.312484 0.200320
H38   H     H_    0.288697 0.637320 0.812210 0.200333
H39   H     H_    0.788708 0.862691 0.312495 0.200375
H40   H     H_    0.788697 0.137316 0.812305 0.200341
Ba1   Ba    Ba6+2 0.000000 0.447380 0.844850 1.551192
Ba2   Ba    Ba6+2 1.000000 0.552620 0.344850 1.551204
Ba3   Ba    Ba6+2 0.500000 0.947380 0.844850 1.551197
Ba4   Ba    Ba6+2 0.500000 0.052620 0.344850 1.551210
C21   C     C_3   0.778361 0.541818 0.913000 0.467843
C22   C     C_3   0.778328 0.458200 0.412895 0.467860
C23   C     C_3   0.278335 0.041804 0.912936 0.467766
C24   C     C_3   0.278309 0.958210 0.412861 0.467800
H41   H     H_    0.817427 0.535218 0.824232 0.092425
H42   H     H_    0.817365 0.464822 0.324080 0.092441
H43   H     H_    0.317374 0.035187 0.824123 0.092498
H44   H     H_    0.317340 0.964840 0.324034 0.092500
H45   H     H_    0.807453 0.574218 0.017923 0.147633
H46   H     H_    0.807438 0.425766 0.517747 0.147552
H47   H     H_    0.307442 0.074228 0.017798 0.147589
H48   H     H_    0.307417 0.925756 0.517678 0.147527
C25   C     C_3   0.704674 0.577623 0.827540 -0.955829
C26   C     C_3   0.704616 0.422426 0.327452 -0.955823
C27   C     C_3   0.204629 0.077584 0.827508 -0.955868
C28   C     C_3   0.204584 0.922465 0.327403 -0.955809
H49   H     H_    0.684976 0.550869 0.708617 0.255679
H50   H     H_    0.684857 0.449244 0.208622 0.255698
H51   H     H_    0.184895 0.050781 0.708658 0.255724
H52   H     H_    0.184801 0.949343 0.208646 0.255745
H53   H     H_    0.713881 0.634331 0.808863 0.242009
H54   H     H_    0.713818 0.365731 0.308569 0.241902
H55   H     H_    0.213822 0.134284 0.808694 0.241971
H56   H     H_    0.213778 0.865778 0.308370 0.241829
H57   H     H_    0.658573 0.572163 0.901117 0.292778
H58   H     H_    0.658559 0.427830 0.401162 0.292780
H59   H     H_    0.158563 0.072155 0.901181 0.292783
H60   H     H_    0.158549 0.927832 0.401185 0.292787
O45   O     O_3   0.092100 0.536880 0.086720 -0.412976
O46   O     O_3   0.092100 0.463120 0.586720 -0.413007
O47   O     O_3   0.592100 0.036880 0.086720 -0.412971
O48   O     O_3   0.592100 0.963120 0.586720 -0.412995
P13   P     P_3+3 0.898867 0.731663 0.080385 0.448700
P14   P     P_3+3 0.898868 0.268340 0.580385 0.448704
P15   P     P_3+3 0.398874 0.231666 0.080387 0.448730
P16   P     P_3+3 0.398868 0.768342 0.580385 0.448718
C29   C     C_3   0.017217 0.186158 0.617003 0.522877
C30   C     C_3   0.017191 0.813875 0.117029 0.523003
C31   C     C_3   0.517219 0.686162 0.616972 0.522897
C32   C     C_3   0.517207 0.313870 0.117012 0.522952
H61   H     H_    0.026025 0.218224 0.510534 0.003399
H62   H     H_    0.025997 0.781822 0.010532 0.003298
H63   H     H_    0.526016 0.718222 0.510483 0.003366
H64   H     H_    0.526005 0.281817 0.010525 0.003335
H65   H     H_    0.491651 0.586785 0.490916 0.271679
H66   H     H_    0.491553 0.413250 0.991037 0.271728
H67   H     H_    0.991648 0.086792 0.490912 0.271689
H68   H     H_    0.991573 0.913263 0.991035 0.271706
H69   H     H_    0.409158 0.616058 0.210518 0.172267
H70   H     H_    0.409270 0.383997 0.710870 0.172174
H71   H     H_    0.909217 0.116043 0.210743 0.172210
H72   H     H_    0.909268 0.883995 0.710950 0.172191
C33   C     C_R   0.145295 0.673964 0.920657 -0.536704
C34   C     C_R   0.145294 0.326036 0.420658 -0.536763
C35   C     C_R   0.645292 0.173965 0.920659 -0.536700
C36   C     C_R   0.645291 0.826034 0.420661 -0.536744
C37   C     C_R   0.858132 0.324414 0.264451 -0.485808
C38   C     C_R   0.858149 0.675594 0.764436 -0.485693
C39   C     C_R   0.358128 0.824417 0.264457 -0.485856
C40   C     C_R   0.358144 0.175591 0.764445 -0.485715
C41   C     C_R   0.795480 0.213482 0.301378 -0.048593
C42   C     C_R   0.795482 0.786517 0.801372 -0.048595
C43   C     C_R   0.295482 0.713481 0.301375 -0.048598
C44   C     C_R   0.295489 0.286522 0.801370 -0.048600
C45   C     C_R   0.846728 0.268168 0.363461 0.170047
C46   C     C_R   0.846741 0.731839 0.863448 0.169849
C47   C     C_R   0.346726 0.768170 0.363463 0.170108
C48   C     C_R   0.346744 0.231841 0.863451 0.169906
C49   C     C_R   0.813126 0.334019 0.108285 0.264023
C50   C     C_R   0.813131 0.665982 0.608285 0.264105
C51   C     C_R   0.313128 0.834019 0.108286 0.264030
C52   C     C_R   0.313133 0.165982 0.608286 0.264087
C53   C     C_R   0.754342 0.281233 0.044977 -0.133581
C54   C     C_R   0.754340 0.718764 0.544982 -0.133620
C55   C     C_R   0.254344 0.781232 0.044976 -0.133611
C56   C     C_R   0.254345 0.218767 0.544978 -0.133620
C57   C     C_R   0.246239 0.718952 0.143115 -0.031859
C58   C     C_R   0.246242 0.281049 0.643114 -0.031864
C59   C     C_R   0.746237 0.218953 0.143117 -0.031876
C60   C     C_R   0.746237 0.781046 0.643116 -0.031882
C61   C     C_R   0.187769 0.666013 0.079665 0.294436
C62   C     C_R   0.187769 0.333987 0.579666 0.294408
C63   C     C_R   0.687766 0.166014 0.079667 0.294432
C64   C     C_R   0.687765 0.833985 0.579668 0.294415
C65   C     C_R   0.156919 0.729992 0.821233 0.146371
C66   C     C_R   0.156918 0.270006 0.321237 0.146418
C67   C     C_R   0.656918 0.229992 0.821234 0.146371
C68   C     C_R   0.656912 0.770003 0.321243 0.146425
C69   C     C_R   0.204968 0.786387 0.886569 -0.176423
C70   C     C_R   0.204965 0.213610 0.386575 -0.176412
C71   C     C_R   0.704966 0.286387 0.886570 -0.176457
C72   C     C_R   0.704956 0.713605 0.386584 -0.176422
H73   H     H_    0.102703 0.634676 0.870800 0.168411
H74   H     H_    0.102705 0.365327 0.370799 0.168427
H75   H     H_    0.602701 0.134677 0.870802 0.168413
H76   H     H_    0.602703 0.865327 0.370799 0.168428
H77   H     H_    0.900924 0.363573 0.314135 0.159269
H78   H     H_    0.900950 0.636440 0.814112 0.159270
H79   H     H_    0.400916 0.863579 0.314145 0.159270
H80   H     H_    0.400937 0.136431 0.814129 0.159263
N1    N     N_3   0.359927 0.440103 0.232676 -0.158239
H81   H     H_    0.408906 0.410702 0.278421 0.202967
H82   H     H_    0.377623 0.491571 0.264387 0.180992
N2    N     N_3   0.359925 0.559850 0.732611 -0.158252
H83   H     H_    0.408885 0.589315 0.778154 0.202991
H84   H     H_    0.377676 0.508414 0.764607 0.180928
N3    N     N_3   0.859937 0.940081 0.232729 -0.158231
H85   H     H_    0.908952 0.910721 0.278641 0.202920
H86   H     H_    0.877547 0.991587 0.264294 0.181149
N4    N     N_3   0.859949 0.059850 0.732808 -0.158221
H87   H     H_    0.908901 0.089324 0.778378 0.202961
H88   H     H_    0.877680 0.008420 0.764841 0.180955
N5    N     N_3   0.296204 0.651583 0.399150 -0.141135
H89   H     H_    0.351059 0.628701 0.419101 0.131373
H90   H     H_    0.283079 0.664991 0.512473 0.192243
N6    N     N_3   0.296189 0.348409 0.899171 -0.141100
H91   H     H_    0.351040 0.371295 0.919169 0.131351
H92   H     H_    0.283051 0.334984 0.012472 0.192294
N7    N     N_3   0.796188 0.151592 0.399173 -0.141127
H93   H     H_    0.851042 0.128705 0.419157 0.131398
H94   H     H_    0.783055 0.165012 0.512483 0.192251
N8    N     N_3   0.796174 0.848399 0.899184 -0.141094
H95   H     H_    0.851024 0.871294 0.919182 0.131394
H96   H     H_    0.783038 0.834965 0.012484 0.192327
C73   C     C_2   0.691913 0.352683 0.794548 0.711131
H97   H     H_    0.664764 0.396286 0.844245 -0.021879
O49   O     O_2   0.706543 0.357632 0.657652 -0.550693
C74   C     C_2   0.691890 0.647306 0.294584 0.711077
H98   H     H_    0.664735 0.603713 0.344288 -0.021884
O50   O     O_2   0.706518 0.642341 0.157692 -0.550702
C75   C     C_2   0.191915 0.852683 0.794551 0.711072
H99   H     H_    0.164766 0.896286 0.844256 -0.021856
O51   O     O_2   0.206542 0.857633 0.657652 -0.550696
C76   C     C_2   0.191906 0.147314 0.294558 0.711045
H100  H     H_    0.164755 0.103715 0.344252 -0.021861
O52   O     O_2   0.206533 0.142358 0.157663 -0.550709
N9    N     N_3   0.981512 0.056566 0.089566 -0.201330
H101  H     H_    0.018274 0.040703 0.197772 0.142347
H102  H     H_    0.015573 0.062997 0.000469 0.181940
N10   N     N_3   0.981460 0.943432 0.589455 -0.201261
H103  H     H_    0.018257 0.959343 0.697590 0.142347
H104  H     H_    0.015487 0.936972 0.500304 0.181868
N11   N     N_3   0.481500 0.556556 0.089548 -0.201319
H105  H     H_    0.518209 0.540693 0.197824 0.142308
H106  H     H_    0.515615 0.562967 0.000539 0.181995
N12   N     N_3   0.481511 0.443432 0.589469 -0.201271
H107  H     H_    0.518292 0.459324 0.697636 0.142367
H108  H     H_    0.515556 0.436974 0.500343 0.181920

loop_
_geom_bond_atom_site_label_1
_geom_bond_atom_site_label_2
_geom_bond_distance
_ccdc_geom_bond_type
C30   H62   1.110078 S    
C59   C63   1.462474 A    
P1    O17   1.739293 S    
O5    Ba2   2.881857 S    
O16   P15   1.542135 D    
C2    H8    1.102571 S    
P12   C67   1.866408 S    
P4    C52   1.909173 S    
P3    O19   1.739277 S    
N7    H93   1.041478 S    
C2    H10   1.107185 S    
C35   C67   1.387640 A    
C25   H49   1.106413 S    
O44   C8    1.402160 S    
C12   N12   1.461974 S    
N2    H83   1.035438 S    
C8    H20   1.095847 S    
P2    Ba2   3.466679 S    
C37   C45   1.387672 A    
C75   H99   1.078028 S    
P8    Ba4   3.468999 S    
C20   N4    1.465864 S    
C27   H51   1.106419 S    
P8    C63   1.910329 S    
C24   H48   1.109059 S    
C43   C57   1.432319 A    
P1    C49   1.909193 S    
C18   H38   1.110732 S    
C10   H72   1.102318 S    
C32   H64   1.109989 S    
C17   H37   1.110725 S    
O41   C5    1.402137 S    
C3    H5    1.102550 S    
C55   C69   1.433871 A    
O25   Ba1   2.940862 S    
P3    O3    1.524236 D    
P15   C48   1.858616 S    
O12   Ba4   2.848678 S    
O7    Ba4   2.881857 S    
P4    O20   1.739292 S    
C15   H27   1.108969 S    
O9    Ba1   2.848689 S    
C53   C71   1.433873 A    
C39   C47   1.387671 A    
P13   C46   1.858605 S    
C14   H26   1.108935 S    
O23   C31   1.400267 S    
C22   C26   1.513534 S    
C11   H69   1.102330 S    
O30   Ba2   2.848117 S    
P9    O29   1.727928 S    
N6    H91   1.041458 S    
P6    Ba2   3.468999 S    
C33   C61   1.395280 A    
P5    O46   1.630528 S    
C42   C46   1.407096 A    
C5    H17   1.095826 S    
P4    O4    1.524239 D    
Ba2   O46   2.881796 S    
C49   C53   1.463733 A    
C36   C64   1.395279 A    
C70   C76   1.469658 S    
C76   O52   1.217811 D    
C40   C48   1.387688 A    
C13   C17   1.510917 S    
C21   H41   1.107820 S    
P7    O48   1.630528 S    
C28   H52   1.106560 S    
P6    C61   1.910334 S    
C18   N2    1.465932 S    
C36   C68   1.387639 A    
C1    C29   1.512361 S    
P5    C62   1.910317 S    
O10   Ba2   2.848678 S    
C19   N3    1.465730 S    
O42   C6    1.402192 S    
O24   P15   1.734691 S    
N8    H96   1.043884 S    
C36   H76   1.082015 S    
C57   C61   1.462473 A    
Ba1   O46   2.941980 S    
O23   P16   1.734653 S    
P4    O8    1.625332 S    
P12   O32   1.727938 S    
N5    H89   1.041470 S    
C8    C12   1.504143 S    
C34   H74   1.082014 S    
P8    O28   1.523544 D    
C4    H12   1.107144 S    
C72   C74   1.469649 S    
C24   H44   1.107806 S    
C23   H47   1.109005 S    
Ba1   O45   2.881830 S    
C41   N7    1.429244 S    
P7    Ba3   3.468980 S    
C16   C20   1.510985 S    
P7    O27   1.523547 D    
P5    O25   1.523547 D    
O20   C24   1.392564 S    
P9    O41   1.735222 S    
C73   H97   1.078011 S    
C67   C71   1.407679 A    
O15   P16   1.542157 D    
O28   Ba4   2.940898 S    
P2    O2    1.524239 D    
P11   O43   1.735201 S    
C6    H18   1.095954 S    
C2    H68   1.109794 S    
O13   P14   1.542151 D    
C42   N8    1.429217 S    
O11   Ba3   2.848689 S    
P7    O39   1.720937 S    
C74   O50   1.217806 D    
O18   C22   1.392576 S    
P11   O31   1.727943 S    
C51   C55   1.463737 A    
C9    H23   1.100883 S    
C26   H58   1.110268 S    
P14   C45   1.858587 S    
C54   C60   1.460735 A    
Ba4   O48   2.881796 S    
O40   C15   1.388069 S    
C37   C49   1.395825 A    
C24   C28   1.513497 S    
C15   H31   1.106372 S    
P10   O30   1.727939 S    
P1    O5    1.625357 S    
O3    Ba3   2.937418 S    
N11   H105  1.045683 S    
P11   O35   1.544393 D    
C1    H9    1.107192 S    
C56   C58   1.460746 A    
C40   C52   1.395830 A    
C13   H29   1.106358 S    
N12   H107  1.045747 S    
C41   C45   1.407119 A    
P11   C68   1.866393 S    
H1    C29   1.109515 S    
C12   H70   1.102324 S    
H4    C32   1.109495 S    
C53   C59   1.460750 A    
C56   C70   1.433890 A    
C6    C10   1.504323 S    
C20   H36   1.110793 S    
C23   C27   1.513450 S    
N9    H102  1.045495 S    
C35   H75   1.082016 S    
C22   H42   1.107803 S    
Ba2   O45   2.941973 S    
C33   H73   1.082018 S    
P2    O18   1.739315 S    
N1    H81   1.035369 S    
P12   O44   1.735225 S    
C38   C46   1.387677 A    
P3    C51   1.909187 S    
C60   C64   1.462461 A    
C26   H54   1.105992 S    
O8    Ba3   2.881822 S    
C66   C70   1.407673 A    
C13   H25   1.108959 S    
C23   H43   1.107790 S    
N3    H85   1.035707 S    
C52   C56   1.463719 A    
C34   C62   1.395284 A    
C65   C69   1.407681 A    
C68   C72   1.407671 A    
C10   N10   1.462022 S    
P6    O26   1.523544 D    
O12   P15   1.734200 S    
C4    H66   1.109776 S    
N8    H95   1.041497 S    
C42   C60   1.432312 A    
N7    H94   1.043885 S    
C1    H7    1.102603 S    
P8    O40   1.720977 S    
Ba3   Ba4   4.613520 S    
N4    H88   1.045336 S    
N5    H90   1.043866 S    
C19   H39   1.110693 S    
O11   P16   1.734214 S    
C28   H60   1.110303 S    
O14   P13   1.542150 D    
C15   C19   1.510949 S    
C43   N5    1.429249 S    
O38   C13   1.388071 S    
C44   N6    1.429227 S    
C58   C62   1.462460 A    
C2    C30   1.512415 S    
N10   H104  1.045505 S    
O37   C14   1.388050 S    
N3    H86   1.045417 S    
C75   O51   1.217842 D    
C12   H22   1.100914 S    
C4    C32   1.512393 S    
C44   C58   1.432325 A    
C73   O49   1.217833 D    
O24   C32   1.400298 S    
P5    O37   1.720887 S    
O39   C16   1.388055 S    
P10   O34   1.544431 D    
P1    O1    1.524236 D    
C40   H80   1.082147 S    
C25   H57   1.110245 S    
P2    O6    1.625332 S    
O26   Ba2   2.940898 S    
C29   H61   1.110040 S    
N9    H101  1.045670 S    
C3    H11   1.107198 S    
C74   H98   1.077962 S    
O4    Ba4   2.937381 S    
O29   Ba1   2.848106 S    
C18   H34   1.110861 S    
P16   C47   1.858581 S    
P5    Ba1   3.468980 S    
Ba3   O48   2.941980 S    
H2    C30   1.109566 S    
C17   H33   1.110827 S    
C14   C18   1.510965 S    
Ba4   O47   2.941973 S    
O31   Ba3   2.848106 S    
C7    C11   1.504166 S    
C39   H79   1.082154 S    
O21   P14   1.734668 S    
C19   H35   1.110698 S    
C38   H78   1.082147 S    
P4    Ba4   3.466679 S    
C8    H16   1.113487 S    
C21   H45   1.109014 S    
N10   H103  1.045784 S    
N2    H84   1.045462 S    
C37   H77   1.082153 S    
C26   H50   1.106473 S    
O19   C23   1.392515 S    
P3    Ba3   3.466697 S    
O21   C29   1.400268 S    
P6    O38   1.720915 S    
P2    C50   1.909164 S    
C20   H40   1.110704 S    
C27   H59   1.110229 S    
P12   O36   1.544414 D    
N1    H82   1.045346 S    
C9    N9    1.461922 S    
C71   C73   1.469646 S    
C76   H100  1.077970 S    
C16   H32   1.106310 S    
P10   O42   1.735245 S    
C35   C63   1.395279 A    
C5    C9    1.504127 S    
O10   P13   1.734253 S    
O6    Ba1   2.881822 S    
N11   H106  1.045532 S    
Ba1   Ba2   4.613520 S    
O32   Ba4   2.848117 S    
O43   C7    1.402126 S    
P9    O33   1.544407 D    
C7    H19   1.095841 S    
C69   C75   1.469645 S    
C38   C50   1.395830 A    
C16   H28   1.108936 S    
C4    H6    1.102571 S    
C27   H55   1.105966 S    
C3    H65   1.109815 S    
N6    H92   1.043861 S    
P7    C64   1.910320 S    
O22   C30   1.400316 S    
C31   H63   1.110060 S    
O17   C21   1.392537 S    
N4    H87   1.035476 S    
C3    C31   1.512385 S    
O9    P14   1.734233 S    
Ba3   O47   2.881830 S    
P3    O7    1.625357 S    
N12   H108  1.045545 S    
C50   C54   1.463721 A    
C10   H24   1.101019 S    
C54   C72   1.433876 A    
C17   N1    1.465883 S    
P10   C65   1.866412 S    
C44   C48   1.407104 A    
O27   Ba3   2.940862 S    
C9    H71   1.102329 S    
C39   C51   1.395815 A    
P9    C66   1.866404 S    
C14   H30   1.106315 S    
C28   H56   1.106038 S    
C6    H14   1.113564 S    
P8    O47   1.630553 S    
O1    Ba1   2.937418 S    
C34   C66   1.387639 A    
C11   H21   1.100868 S    
C5    H13   1.113433 S    
C1    H67   1.109830 S    
O22   P13   1.734737 S    
C33   C65   1.387639 A    
C25   H53   1.105968 S    
C11   N11   1.461828 S    
C21   C25   1.513494 S    
P6    O45   1.630553 S    
P1    Ba1   3.466697 S    
C7    H15   1.113397 S    
C22   H46   1.109049 S    
H3    C31   1.109534 S    
C43   C47   1.407129 A    
O2    Ba2   2.937381 S    
C55   C57   1.460747 A    
C41   C59   1.432326 A    
