data_mof_unit_63151.cif
_audit_creation_date              2012-12-10T19:32:59-0500
_audit_creation_method            fapswitch 2.2
_symmetry_space_group_name_H-M    P1
_symmetry_Int_Tables_number       1
_space_group_crystal_system       triclinic
_cell_length_a                    21.637905
_cell_length_b                    21.632312
_cell_length_c                    21.942474
_cell_angle_alpha                 119.162018
_cell_angle_beta                  119.223634
_cell_angle_gamma                 89.582109
_cell_volume                      7460.40993167

loop_
_atom_site_label
_atom_site_type_symbol
_atom_type_description
_atom_site_fract_x
_atom_site_fract_y
_atom_site_fract_z
_atom_type_partial_charge
C1    C     C_R   0.499988 0.120101 0.500328 0.876205
C2    C     C_R   0.501206 0.186899 0.503039 -0.096267
C3    C     C_R   0.568311 0.244598 0.555823 -0.216436
C4    C     C_R   0.580760 0.081061 0.662173 0.900530
C5    C     C_R   0.568302 0.309640 0.556388 -0.221155
C6    C     C_R   0.501621 0.315512 0.502209 -0.098632
C7    C     C_R   0.437285 0.257262 0.451182 0.132889
C8    C     C_3   0.356253 0.230321 0.385777 -0.498346
C9    C     C_3   0.355832 0.159688 0.387006 -0.487631
C10   C     C_3   0.217132 0.741442 0.050435 -0.369339
C11   C     C_3   0.332327 0.737086 0.048196 -0.390573
C12   C     C_3   0.703837 0.286470 0.048960 0.024401
C13   C     C_3   0.283553 0.688501 0.951035 -0.391708
C14   C     C_1   0.125836 0.624453 0.751275 -0.185671
C15   C     C_3   0.292001 0.789391 0.082310 0.340640
C16   C     C_R   0.500800 0.880475 0.500937 0.877190
C17   C     C_3   0.168337 0.692817 0.953276 -0.400693
C18   C     C_3   0.209415 0.707104 0.917878 0.353758
C19   C     C_3   0.227064 0.790490 0.950300 -0.388935
C20   C     C_3   0.275850 0.839079 0.047396 -0.399603
C21   C     C_1   0.163485 0.661516 0.826379 -0.121274
C22   C     C_1   0.337887 0.835376 0.173765 -0.110619
C23   C     C_3   0.787877 0.293866 0.082244 0.294153
C24   C     C_1   0.375299 0.873453 0.248829 -0.151396
C25   C     C_R   0.446334 0.748559 0.430142 0.072897
C26   C     C_R   0.502254 0.814371 0.499939 -0.103262
C27   C     C_R   0.564989 0.813553 0.563445 -0.206403
C28   C     C_R   0.419216 0.918684 0.337825 0.915257
C29   C     C_R   0.565222 0.748940 0.562876 -0.220015
C30   C     C_R   0.503516 0.685189 0.497433 -0.105805
C31   C     C_R   0.447140 0.684237 0.428479 0.166115
C32   C     C_3   0.364596 0.659053 0.384914 -0.551108
C33   C     C_3   0.364018 0.730858 0.387648 -0.239052
C34   C     C_3   0.796769 0.214833 0.049865 -0.432893
C35   C     C_R   0.880052 0.500046 0.499699 0.881244
C36   C     C_R   0.919118 0.419269 0.337819 0.907423
C37   C     C_R   0.119943 0.499270 0.499187 0.876923
C38   C     C_R   0.081246 0.580745 0.662217 0.909412
C39   C     C_R   0.620008 0.499796 0.499552 0.889033
C40   C     C_3   0.656179 0.236845 0.951017 -0.394171
C41   C     C_R   0.500287 0.380128 0.500552 0.887825
C42   C     C_R   0.379971 0.500404 0.500495 0.881372
C43   C     C_R   0.499950 0.620210 0.499419 0.883402
C44   C     C_R   0.804180 0.563159 0.547591 0.133418
C45   C     C_3   0.748988 0.165755 0.952879 -0.405099
C46   C     C_R   0.813270 0.498865 0.497049 -0.097278
C47   C     C_R   0.755384 0.431873 0.444008 -0.216063
C48   C     C_R   0.690376 0.431892 0.443503 -0.219762
C49   C     C_R   0.684701 0.498451 0.498002 -0.098646
C50   C     C_R   0.743162 0.562664 0.549323 0.134098
C51   C     C_3   0.770335 0.643572 0.615046 -0.496686
C52   C     C_3   0.763074 0.279364 0.949480 -0.397509
C53   C     C_3   0.840908 0.644004 0.613734 -0.489967
C54   C     C_R   0.246772 0.563182 0.558466 0.110104
C55   C     C_R   0.186866 0.498582 0.501342 -0.088304
C56   C     C_1   0.835206 0.338842 0.173821 -0.130191
C57   C     C_R   0.194902 0.431164 0.452067 -0.213513
C58   C     C_R   0.259055 0.431271 0.451804 -0.223090
C59   C     C_R   0.315459 0.498456 0.502837 -0.087500
C60   C     C_R   0.310996 0.562871 0.560006 0.140699
C61   C     C_3   0.322078 0.638228 0.574932 -0.512260
C62   C     C_3   0.250930 0.638436 0.572897 -0.463682
C63   C     C_3   0.812466 0.327700 0.046524 -0.394083
C64   C     C_1   0.873795 0.375630 0.248857 -0.185479
C65   C     C_3   0.706319 0.210301 0.917686 0.317758
C66   C     C_3   0.688036 0.362368 0.082388 -0.406539
C67   C     C_1   0.661345 0.163926 0.826226 -0.109912
C68   C     C_3   0.610956 0.354332 0.067655 -0.890820
C69   C     C_2   0.326062 0.720112 0.303045 0.958166
C70   C     C_1   0.624483 0.125940 0.751166 -0.184071
C71   C     C_R   0.436805 0.196205 0.452844 0.132048
H1    H     H_    0.614829 0.188029 0.928801 0.151658
H2    H     H_    0.155081 0.633158 0.930869 0.171926
H3    H     H_    0.624087 0.267303 0.924024 0.177782
H4    H     H_    0.227296 0.705152 0.074710 0.174853
H5    H     H_    0.386415 0.770274 0.070308 0.169917
H6    H     H_    0.344448 0.700687 0.072394 0.173588
H7    H     H_    0.272314 0.628756 0.928550 0.171103
H8    H     H_    0.314198 0.698405 0.926489 0.167293
H9    H     H_    0.246804 0.877221 0.071066 0.167215
H10   H     H_    0.328900 0.874093 0.069429 0.167491
H11   H     H_    0.174573 0.805271 0.927336 0.167128
H12   H     H_    0.687596 0.257407 0.071585 0.147732
H13   H     H_    0.187027 0.777822 0.074153 0.175904
H14   H     H_    0.114793 0.705835 0.930336 0.167588
H15   H     H_    0.798751 0.261741 0.924737 0.173054
H16   H     H_    0.256671 0.802188 0.925697 0.167071
H17   H     H_    0.611547 0.863485 0.615162 0.146817
H18   H     H_    0.612023 0.749459 0.614407 0.160988
H19   H     H_    0.337601 0.607564 0.320958 0.230541
H20   H     H_    0.348123 0.656715 0.424662 0.181355
H21   H     H_    0.347180 0.769881 0.428974 0.161612
H22   H     H_    0.760182 0.380368 0.403034 0.158584
H23   H     H_    0.856092 0.218037 0.073127 0.182116
H24   H     H_    0.645708 0.380389 0.402311 0.158279
H25   H     H_    0.736596 0.674820 0.590852 0.200991
H26   H     H_    0.733326 0.312977 0.926153 0.166918
H27   H     H_    0.780046 0.654716 0.674594 0.209930
H28   H     H_    0.848301 0.675961 0.589355 0.212999
H29   H     H_    0.891232 0.654906 0.672330 0.197464
H30   H     H_    0.150298 0.379588 0.410827 0.157015
H31   H     H_    0.263878 0.379866 0.410668 0.151502
H32   H     H_    0.372346 0.679934 0.637757 0.208479
H33   H     H_    0.317495 0.637295 0.521724 0.194987
H34   H     H_    0.619899 0.239621 0.596535 0.159328
H35   H     H_    0.260111 0.680399 0.634509 0.199267
H36   H     H_    0.204920 0.637472 0.518340 0.216763
H37   H     H_    0.809399 0.385469 0.070116 0.164601
H38   H     H_    0.871493 0.330783 0.068132 0.174849
H39   H     H_    0.709164 0.115776 0.930687 0.168344
H40   H     H_    0.785449 0.146091 0.929658 0.176131
H41   H     H_    0.779683 0.188567 0.074278 0.166412
H42   H     H_    0.566762 0.318602 0.999662 0.260331
H43   H     H_    0.605852 0.329904 0.099909 0.258147
H44   H     H_    0.602563 0.409919 0.093443 0.258446
H45   H     H_    0.619890 0.354163 0.597335 0.158662
H46   H     H_    0.729178 0.400768 0.150993 0.220075
H47   H     H_    0.692578 0.389031 0.051809 0.214803
H48   H     H_    0.315813 0.673668 0.192179 0.327830
H49   H     H_    0.325260 0.264142 0.410290 0.196681
H50   H     H_    0.344779 0.220674 0.326131 0.210581
H51   H     H_    0.324132 0.152350 0.411647 0.213058
H52   H     H_    0.344615 0.109390 0.328262 0.196925
O1    O     O_R   0.448270 0.091610 0.500010 -0.623561
O2    O     O_R   0.557050 0.465350 0.430680 -0.622289
O3    O     O_R   0.534700 0.443070 0.569360 -0.623628
O4    O     O_R   0.551720 0.091610 0.499980 -0.625445
O5    O     O_R   0.465400 0.373710 0.430650 -0.626529
O6    O     O_R   0.443050 0.534650 0.569320 -0.619934
O7    O     O_R   0.373740 0.465290 0.430600 -0.624841
O8    O     O_R   0.534700 0.626290 0.569350 -0.629403
O9    O     O_R   0.465390 0.556930 0.430640 -0.613667
O10   O     O_R   0.509700 0.061430 0.622870 -0.618042
O11   O     O_R   0.613150 0.061430 0.622840 -0.622438
O12   O     O_R   0.908540 0.448310 0.500030 -0.624190
O13   O     O_R   0.448280 0.908390 0.500020 -0.622725
O14   O     O_R   0.551730 0.908390 0.499990 -0.616402
O15   O     O_R   0.386850 0.938570 0.377160 -0.599272
O16   O     O_R   0.490300 0.938570 0.377130 -0.621247
O17   O     O_R   0.908570 0.551750 0.500020 -0.621766
O18   O     O_2   0.279323 0.751186 0.284615 -0.636355
O19   O     O_R   0.344678 0.675598 0.246253 -0.807145
O20   O     O_R   0.938770 0.490290 0.377140 -0.617688
O21   O     O_R   0.938740 0.386860 0.377150 -0.621489
O22   O     O_R   0.091820 0.551690 0.499970 -0.624543
O23   O     O_R   0.091790 0.448250 0.499980 -0.623635
O24   O     O_R   0.061630 0.613140 0.622850 -0.620571
O25   O     O_R   0.061600 0.509710 0.622860 -0.614751
O26   O     O_R   0.626360 0.534710 0.569400 -0.626649
Zn1   Zn    Zn3+2 0.430930 0.000000 0.500020 0.972884
Zn2   Zn    Zn3+2 0.569070 0.000000 0.499980 0.956769
Zn3   Zn    Zn3+2 0.000200 0.569060 0.500000 0.947724
Zn4   Zn    Zn3+2 0.000160 0.430940 0.500000 0.952723
Zn5   Zn    Zn3+2 0.546320 0.546310 0.592620 0.945314
Zn6   Zn    Zn3+2 0.453780 0.453690 0.407380 0.954157

loop_
_geom_bond_atom_site_label_1
_geom_bond_atom_site_label_2
_ccdc_geom_bond_type
C25   C31   A    
C66   C68   S    
C13   H8    S    
C63   H38   S    
C39   O2    A    
C48   H24   S    
C27   C29   A    
C18   C21   S    
C34   H41   S    
C16   O14   A    
C4    C70   S    
C23   C56   S    
C54   C60   A    
O15   Zn1   S    
C12   C23   S    
C26   C27   A    
C13   C18   S    
C17   H14   S    
C14   C21   T    
C43   O9    A    
C61   H32   S    
C36   O20   A    
C1    C2    S    
C19   H16   S    
C11   H5    S    
C7    C71   A    
C30   C31   A    
C8    H50   S    
C32   H20   S    
C10   C17   S    
C69   O18   D    
C52   H26   S    
O9    Zn6   S    
C9    C71   S    
C18   C19   S    
C46   C47   A    
C10   H13   S    
O21   Zn4   S    
C11   H6    S    
O5    Zn6   S    
O4    Zn2   S    
C13   H7    S    
C11   C15   S    
C44   C53   S    
C15   C22   S    
C32   H19   S    
C47   C48   A    
C8    C9    S    
C65   C67   S    
C6    C41   S    
C56   C64   T    
O7    Zn6   S    
C58   H31   S    
C37   O23   A    
C19   H11   S    
O17   Zn3   S    
C33   C69   S    
C51   H25   S    
C51   H27   S    
C23   C63   S    
C59   C60   A    
C20   H10   S    
C17   H2    S    
C41   O5    A    
C9    H51   S    
C27   H17   S    
C28   O16   A    
C52   H15   S    
C29   H18   S    
C44   C46   A    
C50   C51   S    
C69   O19   S    
C53   H29   S    
C16   C26   S    
C15   C20   S    
C20   H9    S    
C24   C28   S    
C7    C8    S    
C61   H33   S    
C28   O15   A    
C33   H21   S    
C35   O12   A    
C45   H39   S    
C62   H36   S    
C54   C62   S    
C25   C26   A    
C12   C66   S    
C66   H46   S    
C53   H28   S    
C12   H12   S    
C60   C61   S    
C51   C53   S    
C12   C40   S    
O26   Zn5   S    
C29   C30   A    
C35   O17   A    
C14   C38   S    
C10   H4    S    
C31   C32   S    
C3    H34   S    
C23   C34   S    
C17   C18   S    
C47   H22   S    
C42   O7    A    
C34   C45   S    
C38   O25   A    
O3    Zn5   S    
C48   C49   A    
C39   C49   S    
C34   H23   S    
C40   C65   S    
C55   C57   A    
C5    H45   S    
C45   C65   S    
C22   C24   T    
C30   C43   S    
O25   Zn4   S    
C2    C71   A    
C16   O13   A    
C8    H49   S    
C4    O11   A    
C44   C50   A    
O1    Zn1   S    
C54   C55   A    
O20   Zn3   S    
C40   H1    S    
C41   O3    A    
O8    Zn5   S    
O10   Zn1   S    
C1    O4    A    
C3    C5    A    
C52   C63   S    
C42   C59   S    
O13   Zn1   S    
C45   H40   S    
C6    C7    A    
C62   H35   S    
C57   H30   S    
C39   O26   A    
O12   Zn4   S    
C10   C15   S    
C67   C70   T    
C32   C33   S    
C19   C20   S    
C43   O8    A    
C2    C3    A    
C58   C59   A    
C1    O1    A    
O6    Zn5   S    
C68   H42   S    
C11   C13   S    
C57   C58   A    
C5    C6    A    
O23   Zn4   S    
O11   Zn2   S    
O16   Zn2   S    
C9    H52   S    
C40   H3    S    
O24   Zn3   S    
C42   O6    A    
C36   O21   A    
C61   C62   S    
C38   O24   A    
O22   Zn3   S    
C68   H44   S    
C37   C55   S    
C49   C50   A    
C66   H47   S    
C68   H43   S    
H48   O19   S    
O14   Zn2   S    
C37   O22   A    
C63   H37   S    
C36   C64   S    
C35   C46   S    
C52   C65   S    
O2    Zn6   S    
C25   C33   S    
C4    O10   A    
