data_mof_unit_45955.cif
_audit_creation_date              2012-12-10T16:44:40-0500
_audit_creation_method            fapswitch 2.2
_symmetry_space_group_name_H-M    P1
_symmetry_Int_Tables_number       1
_space_group_crystal_system       triclinic
_cell_length_a                    14.99158
_cell_length_b                    8.669547
_cell_length_c                    7.447153
_cell_angle_alpha                 102.931344
_cell_angle_beta                  93.845582
_cell_angle_gamma                 92.365794
_cell_volume                      939.658689852

loop_
_atom_site_label
_atom_site_type_symbol
_atom_type_description
_atom_site_fract_x
_atom_site_fract_y
_atom_site_fract_z
_atom_type_partial_charge
C1    C     C_R   0.497111 0.199742 0.453300 0.904195
C2    C     C_R   0.502888 0.800258 0.546700 0.904194
C3    C     C_R   0.036919 0.222829 0.334396 0.267759
C4    C     C_R   0.963081 0.777171 0.665604 0.267759
C5    C     C_2   0.495822 0.031794 0.427000 -0.300417
C6    C     C_2   0.504177 0.968205 0.573000 -0.300417
C7    C     C_R   0.329258 0.501723 0.503285 0.852661
C8    C     C_R   0.670742 0.498277 0.496714 0.852661
C9    C     C_R   0.817836 0.633604 0.576889 -0.219843
C10   C     C_R   0.182164 0.366396 0.423111 -0.219843
C11   C     C_R   0.766763 0.496176 0.490069 -0.115481
C12   C     C_R   0.233237 0.503824 0.509930 -0.115481
C13   C     C_R   0.806910 0.358286 0.404560 0.230415
C14   C     C_R   0.193090 0.641714 0.595440 0.230415
C15   C     C_R   0.900885 0.358956 0.409108 0.023187
C16   C     C_R   0.099115 0.641044 0.590892 0.023187
C17   C     C_R   0.952941 0.499249 0.497292 -0.002355
C18   C     C_R   0.047058 0.500751 0.502708 -0.002355
C19   C     C_R   0.910959 0.637930 0.580368 0.059226
C20   C     C_R   0.089041 0.362070 0.419632 0.059226
C21   C     C_R   0.944039 0.222498 0.329346 -0.123057
C22   C     C_R   0.055961 0.777502 0.670654 -0.123057
Cu1   Cu    Cu3+1 0.510010 0.517380 0.684380 1.018587
Cu2   Cu    Cu3+1 0.489990 0.482620 0.315620 1.018587
H1    H     H_    0.783564 0.736748 0.641214 0.195060
H2    H     H_    0.216436 0.263252 0.358785 0.195060
H3    H     H_    0.906464 0.113423 0.262371 0.231774
H4    H     H_    0.093536 0.886576 0.737629 0.231774
H5    H     H_    0.488120 0.960179 0.286305 0.190107
H6    H     H_    0.511880 0.039820 0.713694 0.190107
H7    H     H_    0.430129 0.377888 0.948751 0.237088
H8    H     H_    0.569871 0.622112 0.051249 0.237088
N1    N     N_2   0.474890 0.456420 0.038520 -0.203247
N2    N     N_2   0.525110 0.543580 0.961480 -0.203247
O1    O     O_R   0.506510 0.286130 0.619770 -0.590444
O2    O     O_R   0.493490 0.713870 0.380230 -0.590444
O3    O     O_R   0.489600 0.256770 0.308360 -0.569122
O4    O     O_R   0.510400 0.743230 0.691640 -0.569122
O5    O     O_R   0.378710 0.514640 0.655720 -0.567524
O6    O     O_R   0.621290 0.485360 0.344280 -0.567524
O7    O     O_R   0.361800 0.485290 0.344300 -0.571752
O8    O     O_R   0.638200 0.514710 0.655700 -0.571752
Br1   Br    Br    0.732174 0.169556 0.290727 -0.489334
Br2   Br    Br    0.267826 0.830444 0.709273 -0.489334
Br3   Br    Br    0.088000 0.027278 0.223626 -0.457484
Br4   Br    Br    0.912000 0.972722 0.776374 -0.457484

loop_
_geom_bond_atom_site_label_1
_geom_bond_atom_site_label_2
_ccdc_geom_bond_type
C15   C21   A    
Cu1   Cu2   S    
H7    N1    S    
Cu1   O4    S    
C4    C22   A    
C2    O4    A    
Cu1   O1    S    
Cu2   N1    S    
C1    C5    S    
C1    O3    A    
C8    O8    A    
Cu1   N2    S    
C16   C22   A    
C10   H2    S    
C13   C15   A    
Cu2   O3    S    
C21   H3    S    
C9    H1    S    
C3    C20   A    
C22   H4    S    
C6    H6    S    
Cu2   O7    S    
C9    C11   A    
Cu2   O2    S    
Cu1   O8    S    
C10   C12   A    
C8    C11   S    
Cu1   O5    S    
C14   Br2   S    
C17   C19   A    
C12   C14   A    
C17   C18   A    
C18   C20   A    
C7    O7    A    
C5    C6    D    
C14   C16   A    
C7    C12   S    
C3    C21   A    
C11   C13   A    
C3    Br3   S    
C5    H5    S    
C13   Br1   S    
N1    N2    D    
C1    O1    A    
C16   C18   A    
C2    O2    A    
C15   C17   A    
C7    O5    A    
C4    Br4   S    
C8    O6    A    
Cu2   O6    S    
C4    C19   A    
C9    C19   A    
C2    C6    S    
C10   C20   A    
H8    N2    S    
