data_mof_unit_53662.cif
_audit_creation_date              2012-12-11T14:06:40-0500
_audit_creation_method            fapswitch 2.2
_symmetry_space_group_name_H-M    P1
_symmetry_Int_Tables_number       1
_space_group_crystal_system       triclinic
_cell_length_a                    11.961069
_cell_length_b                    11.899128
_cell_length_c                    19.454971
_cell_angle_alpha                 89.231784
_cell_angle_beta                  90.287652
_cell_angle_gamma                 120.039846
_cell_volume                      2396.80095239

loop_
_atom_site_label
_atom_site_type_symbol
_atom_type_description
_atom_site_fract_x
_atom_site_fract_y
_atom_site_fract_z
_atom_type_partial_charge
C1    C     C_R   0.553640 0.474968 0.597849 0.550687
C2    C     C_R   0.449777 0.924496 0.122534 0.566426
C3    C     C_R   0.068624 0.522351 0.119850 0.554733
C4    C     C_R   0.475328 0.545248 0.120804 0.558630
C5    C     C_R   0.590660 0.447442 0.396777 0.574185
C6    C     C_R   0.524746 0.082671 0.401796 0.536132
C7    C     C_R   0.924949 0.448877 0.403712 0.570192
C8    C     C_1   0.107411 0.546107 0.848285 0.000111
C9    C     C_1   0.485338 0.520890 0.858791 0.000440
C10   C     C_1   0.479399 0.965762 0.858879 0.002560
C11   C     C_1   0.032379 0.511671 0.719716 -0.021420
C12   C     C_R   0.524539 0.077628 0.597587 0.539162
C13   C     C_1   0.505707 0.497907 0.726888 -0.025573
C14   C     C_1   0.501444 0.006819 0.726846 -0.026080
C15   C     C_1   0.074688 0.532989 0.788778 -0.029661
C16   C     C_1   0.493864 0.507303 0.798243 -0.032265
C17   C     C_1   0.492682 0.987075 0.798207 -0.032427
C18   C     C_1   0.988904 0.486772 0.662261 0.017743
C19   C     C_1   0.522131 0.489951 0.666611 0.017944
C20   C     C_1   0.509136 0.030578 0.666431 0.017560
C21   C     C_2   0.970109 0.481839 0.334082 -0.087502
C22   C     C_2   0.584168 0.443270 0.321300 -0.117041
C23   C     C_R   0.924315 0.447402 0.597163 0.544784
C24   C     C_2   0.491717 0.017865 0.337423 -0.126546
C25   C     C_2   0.012439 0.501911 0.187396 -0.119347
C26   C     C_2   0.495653 0.505436 0.187937 -0.083362
C27   C     C_2   0.476084 0.975791 0.190564 -0.108423
C28   C     C_2   0.982692 0.394539 0.224620 0.116466
C29   C     C_2   0.610781 0.519949 0.204489 0.114047
C30   C     C_2   0.375241 0.941482 0.233997 0.126196
C31   C     C_3   0.847586 0.157284 0.232010 -0.281110
C32   C     C_3   0.814708 0.620205 0.141638 -0.258091
C33   C     C_3   0.151659 0.852686 0.192080 -0.173805
C34   C     C_2   0.008758 0.410876 0.298926 0.209152
C35   C     C_2   0.648662 0.544186 0.277001 0.231070
C36   C     C_2   0.396898 0.012633 0.296072 0.199506
C37   C     C_R   0.451150 0.924041 0.928641 0.542191
C38   C     C_R   0.146708 0.557366 0.918978 0.561632
C39   C     C_R   0.472155 0.549112 0.928473 0.537142
Cr1   Cr    Cr6+3 0.468420 0.238090 0.499960 1.140831
Cr2   Cr    Cr6+3 0.761910 0.230330 0.499960 1.095990
Cr3   Cr    Cr6+3 0.769670 0.531580 0.499960 1.116062
Cr4   Cr    Cr6+3 0.515700 0.760130 0.026360 1.045748
Cr5   Cr    Cr6+3 0.239870 0.755570 0.026360 1.008390
Cr6   Cr    Cr6+3 0.244430 0.484300 0.026360 1.044401
H1    H     H_    0.032732 0.589909 0.212924 0.064729
H2    H     H_    0.899672 0.132007 0.270649 0.218383
H3    H     H_    0.643820 0.460422 0.109960 0.241787
H4    H     H_    0.802331 0.699797 0.119513 0.198325
H5    H     H_    0.869031 0.596556 0.104006 0.121088
H6    H     H_    0.871094 0.651737 0.189891 0.181506
H7    H     H_    0.250772 0.749308 0.207370 0.269813
H8    H     H_    0.092490 0.776243 0.155486 0.102314
H9    H     H_    0.195110 0.943261 0.160873 0.197412
H10   H     H_    0.084232 0.851527 0.231129 0.224441
H11   H     H_    0.141098 0.260749 0.251842 0.385516
H12   H     H_    0.429982 0.499074 0.228169 0.166280
H13   H     H_    0.858472 0.891996 0.246420 0.367361
H14   H     H_    0.331668 0.184987 0.216719 0.326048
H15   H     H_    0.572789 0.053123 0.202335 0.034011
H16   H     H_    0.928491 0.532948 0.307346 0.083683
H17   H     H_    0.522276 0.348532 0.299380 0.090976
H18   H     H_    0.549540 0.975533 0.321343 0.105252
H19   H     H_    0.907977 0.266713 0.142312 0.263300
H20   H     H_    0.796899 0.072741 0.197459 0.150131
H21   H     H_    0.774633 0.173976 0.257893 0.132318
N1    N     N_2   0.937456 0.271063 0.192617 -0.501665
N2    N     N_2   0.690518 0.506728 0.154462 -0.536634
N3    N     N_2   0.249383 0.830324 0.224210 -0.461100
O1    O     O_R   0.434830 0.101190 0.575190 -0.496564
O2    O     O_R   0.664850 0.560590 0.424150 -0.406033
O3    O     O_R   0.484380 0.363570 0.430280 -0.419610
O4    O     O_R   0.636430 0.120810 0.430280 -0.499495
O5    O     O_R   0.879190 0.515620 0.430280 -0.497735
O6    O     O_3   0.666667 0.333333 0.499980 -0.360372
O7    O     O_R   0.548200 0.655360 0.951320 -0.510885
O8    O     O_R   0.344640 0.892840 0.951320 -0.517194
O9    O     O_R   0.107160 0.451800 0.951320 -0.505805
O10   O     O_R   0.505020 0.871000 0.955840 -0.500237
O11   O     O_R   0.129000 0.634020 0.955840 -0.493204
O12   O     O_R   0.898810 0.333640 0.575190 -0.487104
O13   O     O_R   0.365980 0.494980 0.955840 -0.521322
O14   O     O_R   0.543640 0.655270 0.102360 -0.472527
O15   O     O_R   0.344730 0.888370 0.102360 -0.518237
O16   O     O_R   0.111630 0.456360 0.102360 -0.470997
O17   O     O_R   0.500790 0.870920 0.095850 -0.478735
O18   O     O_R   0.129080 0.629870 0.095850 -0.517521
O19   O     O_R   0.370130 0.499210 0.095850 -0.486712
O20   O     O_2   0.034899 0.231594 0.374009 -0.230051
O21   O     O_2   0.200897 0.459000 0.386774 -0.216508
O22   O     O_3   0.200658 0.342984 0.275011 -0.486795
O23   O     O_R   0.666360 0.565170 0.575190 -0.494208
O24   O     O_2   0.665185 0.745681 0.347243 -0.219423
O25   O     O_2   0.862279 0.731000 0.337776 -0.258039
O26   O     O_3   0.785623 0.807927 0.231136 -0.560059
O27   O     O_2   0.162677 0.960080 0.340866 -0.192393
O28   O     O_2   0.325941 0.184549 0.355220 -0.199151
O29   O     O_3   0.247996 0.114510 0.234630 -0.565569
O30   O     O_3   0.333333 0.666667 0.026340 -0.249401
O31   O     O_R   0.480130 0.360720 0.570290 -0.489945
O32   O     O_R   0.639280 0.119410 0.570290 -0.492514
O33   O     O_R   0.880590 0.519870 0.570290 -0.497424
O34   O     O_R   0.439410 0.104260 0.424150 -0.439080
O35   O     O_R   0.895740 0.335150 0.424150 -0.453629
S1    S     S_3+6 0.111693 0.359104 0.336505 0.083552
S2    S     S_3+6 0.742689 0.710157 0.300938 0.034734
S3    S     S_3+6 0.283725 0.069931 0.310069 0.043450

loop_
_geom_bond_atom_site_label_1
_geom_bond_atom_site_label_2
_ccdc_geom_bond_type
C33   H10   S    
C31   H21   S    
C11   C18   T    
C28   N1    S    
C3    O16   A    
Cr4   O14   S    
O22   S1    S    
C2    O15   A    
Cr6   O13   S    
C25   C28   D    
C31   N1    S    
C22   C35   D    
C37   O10   A    
Cr3   O6    S    
C24   C36   D    
Cr1   O1    S    
C10   C37   S    
Cr5   O8    S    
C9    C16   T    
Cr4   O30   S    
C5    O3    A    
C27   H15   S    
Cr5   O30   S    
C23   O33   A    
C22   H17   S    
C10   C17   T    
Cr4   O10   S    
C9    C39   S    
H7    N3    S    
C11   C15   S    
H11   O22   S    
C5    C22   S    
Cr6   O9    S    
Cr5   O18   S    
Cr1   O3    S    
C1    O23   A    
C21   H16   S    
C33   N3    S    
C32   N2    S    
C28   C34   S    
C31   H2    S    
C27   C30   D    
C34   S1    S    
C14   C17   S    
C8    C38   S    
Cr3   O33   S    
C1    O31   A    
C7    O5    A    
C33   H8    S    
Cr3   O5    S    
C1    C19   S    
C13   C19   T    
C3    O18   A    
C18   C23   S    
H19   N1    S    
C14   C20   T    
Cr5   O11   S    
Cr6   O19   S    
O21   S1    D    
Cr6   O30   S    
C21   C34   D    
C38   O9    A    
C39   O7    A    
C37   O8    A    
O29   S3    S    
Cr6   O16   S    
H13   O26   S    
C32   H6    S    
O26   S2    S    
O24   S2    D    
Cr2   O6    S    
C29   N2    S    
C3    C25   S    
Cr2   O12   S    
C12   C20   S    
C6    O34   A    
H3    N2    S    
C32   H5    S    
C2    C27   S    
O27   S3    D    
C8    C15   T    
C7    O35   A    
C30   N3    S    
C6    O4    A    
Cr4   O7    S    
C31   H20   S    
C12   O1    A    
O25   S2    D    
C23   O12   A    
Cr4   O17   S    
C39   O13   A    
Cr5   O15   S    
Cr1   O31   S    
C4    C26   S    
Cr1   O6    S    
C6    C24   S    
C4    O19   A    
C24   H18   S    
C29   C35   S    
Cr2   O35   S    
C30   C36   S    
C12   O32   A    
C5    O2    A    
C35   S2    S    
C7    C21   S    
Cr1   O34   S    
C4    O14   A    
C38   O11   A    
C33   H9    S    
Cr3   O2    S    
Cr2   O32   S    
C2    O17   A    
Cr3   O23   S    
C26   H12   S    
C32   H4    S    
Cr2   O4    S    
O28   S3    D    
C26   C29   D    
C13   C16   S    
O20   S1    D    
H14   O29   S    
C25   H1    S    
C36   S3    S    
