data_mof_unit_27527.cif
_audit_creation_date              2012-10-26T18:33:59-0400
_audit_creation_method            fapswitch 2.2
_symmetry_space_group_name_H-M    P1
_symmetry_Int_Tables_number       1
_space_group_crystal_system       triclinic
_cell_length_a                    11.079741
_cell_length_b                    10.902226
_cell_length_c                    9.577746
_cell_angle_alpha                 88.79096
_cell_angle_beta                  101.847811
_cell_angle_gamma                 91.73563
_cell_volume                      1131.63545705

loop_
_atom_site_label
_atom_site_type_symbol
_atom_type_description
_atom_site_fract_x
_atom_site_fract_y
_atom_site_fract_z
_atom_type_partial_charge
C1    C     C_R   0.511829 0.263117 0.504156 0.562379
C2    C     C_2   0.871360 0.507009 0.592299 0.096928
C3    C     C_2   0.066818 0.502363 0.512604 -0.108655
C4    C     C_2   0.933120 0.486046 0.489682 -0.075434
C5    C     C_R   0.560574 0.067776 0.394236 0.040851
C6    C     C_R   0.494914 0.936314 0.622990 0.039337
C7    C     C_R   0.570380 0.940368 0.401367 0.222923
C8    C     C_R   0.526011 0.061354 0.637483 0.226982
C9    C     C_R   0.519904 0.873240 0.504925 -0.039297
C10   C     C_R   0.533180 0.130152 0.512219 -0.051688
C11   C     C_R   0.504946 0.738262 0.500417 0.591315
C12   C     C_R   0.263273 0.498656 0.442176 0.593987
C13   C     C_R   0.736752 0.500418 0.557962 0.578009
C14   C     C_R   0.402305 0.451907 0.053471 0.007483
C15   C     C_R   0.597888 0.546445 0.945808 0.002107
C16   C     C_R   0.402483 0.449741 0.905334 0.241947
C17   C     C_R   0.600293 0.543559 0.093908 0.242386
C18   C     C_2   0.129125 0.489905 0.407858 0.081241
Cu1   Cu    Cu3+1 0.500000 0.500020 0.640660 1.050029
Cu2   Cu    Cu3+1 0.500000 0.499980 0.359340 1.050009
H1    H     H_    0.883156 0.455935 0.386589 0.130024
H2    H     H_    0.220555 0.437500 0.825314 0.204644
H3    H     H_    0.742552 0.664157 0.148815 0.279613
H4    H     H_    0.778595 0.516906 0.170936 0.160465
H5    H     H_    0.504325 0.167423 0.210317 0.270933
H6    H     H_    0.653965 0.199109 0.299377 0.253849
H7    H     H_    0.497038 0.860765 0.820814 0.307275
H8    H     H_    0.362831 0.928323 0.742900 0.260700
H9    H     H_    0.793902 0.803535 0.473077 0.327587
H10   H     H_    0.688749 0.274694 0.909175 0.356322
H11   H     H_    0.116428 0.526745 0.618411 0.181106
H12   H     H_    0.324404 0.412457 0.092191 0.132348
H13   H     H_    0.676771 0.583272 0.906918 0.114455
H14   H     H_    0.910898 0.473611 0.805191 0.249270
H15   H     H_    0.903493 0.623862 0.757826 0.239527
H16   H     H_    0.008014 0.536759 0.226205 0.235143
H17   H     H_    0.019306 0.382647 0.259230 0.231709
H18   H     H_    0.290339 0.302358 0.846882 0.249570
N1    N     N_R   0.500030 0.500030 0.852080 -0.204604
N2    N     N_R   0.499970 0.499970 0.147920 -0.213571
N3    N     N_3   0.935086 0.539038 0.733666 -0.650589
N4    N     N_3   0.068805 0.466089 0.262723 -0.626929
N5    N     N_3   0.299647 0.392983 0.812368 -0.542735
N6    N     N_3   0.713150 0.579768 0.185562 -0.485815
N7    N     N_3   0.585516 0.131013 0.269626 -0.494923
N8    N     N_3   0.434442 0.874440 0.724832 -0.565398
O1    O     O_R   0.499990 0.319660 0.618740 -0.404193
O2    O     O_2   0.747242 0.960500 0.242055 -0.221013
O3    O     O_3   0.743614 0.760508 0.390026 -0.518336
O4    O     O_2   0.467942 0.161423 0.868185 -0.311908
O5    O     O_2   0.640853 0.022364 0.911550 -0.226913
O6    O     O_3   0.678956 0.238182 0.813519 -0.503294
O7    O     O_R   0.500010 0.680340 0.381260 -0.417758
O8    O     O_R   0.499990 0.319630 0.381170 -0.550760
O9    O     O_R   0.500010 0.680370 0.618830 -0.486407
O10   O     O_R   0.320690 0.500020 0.575130 -0.492028
O11   O     O_R   0.679310 0.499980 0.424870 -0.461425
O12   O     O_R   0.320680 0.499990 0.337560 -0.490630
O13   O     O_R   0.679320 0.500010 0.662440 -0.518283
O14   O     O_2   0.574400 0.816107 0.165542 -0.236902
S1    S     S_3+6 0.659772 0.870306 0.293017 0.055667
S2    S     S_3+6 0.577187 0.120289 0.812999 0.031369

loop_
_geom_bond_atom_site_label_1
_geom_bond_atom_site_label_2
_ccdc_geom_bond_type
Cu1   O10   S    
Cu1   Cu2   S    
C2    C4    D    
C1    O8    A    
Cu2   O8    S    
H14   N3    S    
C13   O13   A    
C5    C7    A    
C15   N1    A    
H16   N4    S    
H2    N5    S    
C11   O7    A    
C12   O12   A    
C6    C9    A    
C12   C18   S    
C17   N6    S    
C11   O9    A    
H18   N5    S    
C5    N7    S    
O6    S2    S    
C3    H11   S    
C4    H1    S    
C9    C11   S    
C16   N5    S    
H8    N8    S    
O2    S1    D    
C12   O10   A    
O5    S2    D    
Cu1   N1    S    
O14   S1    D    
H4    N6    S    
C6    C8    A    
H7    N8    S    
C8    C10   A    
C8    S2    S    
Cu1   O1    S    
C18   N4    S    
C6    N8    S    
Cu2   N2    S    
C14   C16   A    
O4    S2    D    
O3    S1    S    
C1    C10   S    
C16   N1    A    
C14   N2    A    
H15   N3    S    
H5    N7    S    
C5    C10   A    
C13   O11   A    
C3    C18   D    
C7    C9    A    
Cu1   O9    S    
H17   N4    S    
C15   C17   A    
C2    C13   S    
H10   O6    S    
C7    S1    S    
H9    O3    S    
C2    N3    S    
H6    N7    S    
Cu1   O13   S    
Cu2   O11   S    
Cu2   O12   S    
C15   H13   S    
C1    O1    A    
H3    N6    S    
C3    C4    S    
C14   H12   S    
Cu2   O7    S    
C17   N2    A    
