data_mof_unit_8025.cif
_audit_creation_date              2012-12-10T18:11:36-0500
_audit_creation_method            fapswitch 2.2
_symmetry_space_group_name_H-M    P1
_symmetry_Int_Tables_number       1
_space_group_crystal_system       triclinic
_cell_length_a                    10.511186
_cell_length_b                    12.623812
_cell_length_c                    13.17826
_cell_angle_alpha                 82.459272
_cell_angle_beta                  91.366576
_cell_angle_gamma                 101.651892
_cell_volume                      1697.78767628

loop_
_atom_site_label
_atom_site_type_symbol
_atom_type_description
_atom_site_fract_x
_atom_site_fract_y
_atom_site_fract_z
_atom_type_partial_charge
C1    C     C_R   0.477858 0.439385 0.690705 0.846029
C2    C     C_3   0.063906 0.594946 0.527327 -0.147783
C3    C     C_3   0.964103 0.513385 0.597609 -0.182820
C4    C     C_3   0.876712 0.497471 0.504331 0.034438
C5    C     C_R   0.467217 0.720739 0.056967 -0.200417
C6    C     C_R   0.519267 0.596462 0.199455 -0.054215
C7    C     C_R   0.470008 0.295127 0.837597 -0.195909
C8    C     C_R   0.472807 0.263510 0.942314 -0.153140
C9    C     C_R   0.470863 0.339358 0.009519 -0.194317
C10   C     C_R   0.459610 0.447824 0.972386 0.083838
C11   C     C_R   0.434251 0.473420 0.867640 0.084781
C12   C     C_R   0.741824 0.499211 0.502172 0.858141
C13   C     C_R   0.474196 0.532261 0.035061 0.074819
C14   C     C_R   0.447895 0.635905 0.995741 0.178609
C15   C     C_R   0.400957 0.652621 0.896595 -0.260195
C16   C     C_R   0.391523 0.571435 0.833833 -0.201940
C17   C     C_R   0.517052 0.517128 0.135419 -0.258583
C18   C     C_R   0.503912 0.701169 0.158904 -0.227329
C19   C     C_R   0.455179 0.401087 0.799517 -0.116439
C20   C     C_R   0.319220 0.092522 0.344031 -0.321581
C21   C     C_R   0.653125 0.798581 0.630902 0.035423
C22   C     C_R   0.683822 0.902381 0.659831 -0.257528
C23   C     C_R   0.517383 0.560734 0.308954 0.862187
C24   C     C_R   0.624861 0.983893 0.610042 -0.189028
C25   C     C_R   0.534296 0.961690 0.530379 0.016940
C26   C     C_R   0.506587 0.854727 0.503952 0.174033
C27   C     C_R   0.470940 0.040971 0.476396 -0.037268
C28   C     C_R   0.379786 0.012000 0.397475 0.111849
C29   C     C_R   0.350877 0.904007 0.373477 0.096918
C30   C     C_R   0.417271 0.828162 0.426248 -0.232602
C31   C     C_R   0.494727 0.149244 0.497838 -0.041042
C32   C     C_R   0.347344 0.197343 0.369276 0.021736
C33   C     C_R   0.257678 0.499573 0.500893 0.842273
C34   C     C_3   0.934390 0.401281 0.480578 -0.130396
C35   C     C_3   0.024807 0.417524 0.573743 -0.173954
C36   C     C_3   0.121890 0.499025 0.503175 0.030185
C37   C     C_3   0.034015 0.482860 0.410199 -0.187518
C38   C     C_3   0.973588 0.578613 0.434161 -0.186458
H1    H     H_    0.050280 0.351983 0.630469 0.134276
H2    H     H_    0.545388 0.442286 0.167059 0.155315
H3    H     H_    0.482883 0.237481 0.786522 0.155074
H4    H     H_    0.475910 0.310033 0.089822 0.130566
H5    H     H_    0.482469 0.181247 0.971476 0.138346
H6    H     H_    0.350513 0.586539 0.758556 0.177639
H7    H     H_    0.301416 0.259752 0.328658 0.133046
H8    H     H_    0.250919 0.076581 0.282620 0.136882
H9    H     H_    0.561599 0.178903 0.555589 0.119729
H10   H     H_    0.698020 0.734463 0.669377 0.137194
H11   H     H_    0.877783 0.322106 0.461681 0.143733
H12   H     H_    0.652227 0.062727 0.635977 0.130871
H13   H     H_    0.752824 0.919632 0.720738 0.147131
H14   H     H_    0.398948 0.747845 0.406154 0.234945
H15   H     H_    0.066973 0.470805 0.333877 0.138351
H16   H     H_    0.947130 0.643941 0.377680 0.145854
H17   H     H_    0.120352 0.674159 0.546310 0.151923
H18   H     H_    0.930847 0.525745 0.673727 0.131822
H19   H     H_    0.512331 0.765440 0.207085 0.165407
H20   H     H_    0.373349 0.729004 0.866995 0.149982
H21   H     H_    0.449630 0.800658 0.027111 0.136755
N1    N     N_R   0.432930 0.222190 0.444670 -0.103689
N2    N     N_R   0.566370 0.776980 0.554790 -0.126979
O1    O     O_R   0.467970 0.366730 0.627150 -0.617213
O2    O     O_R   0.510820 0.544830 0.662520 -0.620899
O3    O     O_R   0.664630 0.410960 0.482340 -0.626464
O4    O     O_R   0.707470 0.589060 0.517710 -0.617701
O5    O     O_R   0.489180 0.455170 0.337480 -0.619001
O6    O     O_R   0.532030 0.633270 0.372850 -0.637189
O7    O     O_R   0.292530 0.410940 0.482290 -0.613437
O8    O     O_R   0.335370 0.589040 0.517660 -0.651606
Zn1   Zn    Zn3+2 0.471390 0.381080 0.476380 0.931627
Zn2   Zn    Zn3+2 0.528610 0.618920 0.523620 0.918280
C39   C     C_3   0.248360 0.871981 0.292496 -0.402950
C40   C     C_3   0.212473 0.751354 0.279041 -0.918984
H22   H     H_    0.292772 0.724970 0.243889 0.265704
H23   H     H_    0.188852 0.701577 0.353727 0.270016
H24   H     H_    0.126483 0.736919 0.228346 0.254244
H25   H     H_    0.156923 0.895224 0.313708 0.212799
H26   H     H_    0.281767 0.918518 0.217111 0.206866

loop_
_geom_bond_atom_site_label_1
_geom_bond_atom_site_label_2
_ccdc_geom_bond_type
C34   C37   S    
C32   H7    S    
C35   C36   S    
C8    H5    S    
C1    O1    A    
C7    C8    A    
C11   C19   A    
C9    H4    S    
C39   H25   S    
C23   O5    A    
C36   C37   S    
C26   N2    A    
C2    H17   S    
C12   O3    A    
C15   C16   A    
C33   C36   S    
O1    Zn1   S    
C34   C35   S    
C11   C16   A    
C23   O6    A    
O8    Zn2   S    
C39   H26   S    
C8    C9    A    
O3    Zn1   S    
C4    C12   S    
C29   C30   A    
C9    C10   A    
C16   H6    S    
C21   N2    A    
C33   O8    A    
C29   C39   S    
C37   H15   S    
N2    Zn2   S    
C31   H9    S    
C21   C22   A    
C40   H23   S    
C1    O2    A    
C40   H22   S    
C24   H12   S    
C6    C18   A    
C4    C34   S    
C1    C19   S    
C5    H21   S    
C27   C31   A    
C24   C25   A    
C5    C18   A    
C20   C28   A    
C25   C26   A    
O4    Zn2   S    
C17   H2    S    
C31   N1    A    
C35   H1    S    
C37   C38   S    
C3    H18   S    
C2    C38   S    
C18   H19   S    
C38   H16   S    
N1    Zn1   S    
C5    C14   A    
O2    Zn2   S    
C26   C30   A    
C7    C19   A    
C40   H24   S    
C22   C24   A    
C32   N1    A    
C3    C35   S    
C3    C4    S    
C20   C32   A    
C2    C36   S    
C6    C17   A    
C30   H14   S    
C28   C29   A    
C34   H11   S    
C4    C38   S    
C39   C40   S    
C10   C13   A    
C25   C27   A    
C12   O4    A    
C13   C17   A    
C21   H10   S    
C2    C3    S    
O5    Zn1   S    
C6    C23   S    
C15   H20   S    
O6    Zn2   S    
C7    H3    S    
C10   C11   A    
O7    Zn1   S    
C27   C28   A    
C14   C15   A    
C13   C14   A    
C20   H8    S    
C33   O7    A    
C22   H13   S    
