data_mof_unit_35046.cif
_audit_creation_date              2012-12-10T17:22:02-0500
_audit_creation_method            fapswitch 2.2
_symmetry_space_group_name_H-M    P1
_symmetry_Int_Tables_number       1
_space_group_crystal_system       triclinic
_cell_length_a                    10.114786
_cell_length_b                    10.806506
_cell_length_c                    15.728003
_cell_angle_alpha                 89.966824
_cell_angle_beta                  82.652555
_cell_angle_gamma                 95.411709
_cell_volume                      1697.3020036

loop_
_atom_site_label
_atom_site_type_symbol
_atom_type_description
_atom_site_fract_x
_atom_site_fract_y
_atom_site_fract_z
_atom_type_partial_charge
C1    C     C_R   0.556122 0.732568 0.491818 0.931555
C2    C     C_2   0.488743 0.932796 0.467676 -0.105226
C3    C     C_2   0.410045 0.135471 0.491018 0.289832
C4    C     C_R   0.501785 0.500188 0.661493 0.906051
C5    C     C_2   0.511094 0.065601 0.468623 -0.281865
C6    C     C_2   0.932703 0.523052 0.495318 -0.263233
C7    C     C_2   0.077936 0.500419 0.483685 0.489261
C8    C     C_R   0.443550 0.267342 0.501959 0.819262
C9    C     C_R   0.498128 0.499726 0.338533 0.875950
C10   C     C_3   0.372129 0.564015 0.958314 0.332998
C11   C     C_3   0.626342 0.582231 0.942092 -0.657249
C12   C     C_3   0.373897 0.570495 0.057361 0.197215
C13   C     C_3   0.628485 0.576873 0.041444 0.830809
C14   C     C_1   0.493645 0.500269 0.250088 -0.157372
C15   C     C_3   0.500014 0.504811 0.917280 0.147761
C16   C     C_3   0.193964 0.546675 0.874094 0.114489
C17   C     C_3   0.091585 0.633554 0.912498 -0.344110
C18   C     C_3   0.021057 0.687428 0.842633 -0.997160
C19   C     C_3   0.214921 0.095659 0.434266 0.083270
C20   C     C_3   0.065889 0.053148 0.455545 -0.300947
C21   C     C_3   0.991706 0.065833 0.377805 -0.973328
C22   C     C_3   0.762644 0.765601 0.059303 0.127078
C23   C     C_3   0.494270 0.503787 0.083136 0.095243
C24   C     C_3   0.824596 0.776930 0.143144 -0.282692
C25   C     C_3   0.962913 0.849044 0.129840 -0.960172
C26   C     C_3   0.486156 0.368396 0.049624 -0.532373
C27   C     C_3   0.497100 0.369796 0.951119 -0.391352
C28   C     C_1   0.491513 0.501388 0.174973 0.092163
C29   C     C_1   0.505722 0.503307 0.825376 -0.036875
C30   C     C_1   0.505980 0.501581 0.750011 -0.212501
C31   C     C_2   0.588002 0.864531 0.479350 -0.392603
H1    H     H_    0.389716 0.670375 0.074051 0.139572
H2    H     H_    0.718595 0.548079 0.907420 0.194699
H3    H     H_    0.625945 0.680238 0.920301 0.177060
H4    H     H_    0.411032 0.310598 0.930544 0.219546
H5    H     H_    0.590026 0.328652 0.923970 0.175263
H6    H     H_    0.391354 0.314505 0.076978 0.197210
H7    H     H_    0.140985 0.470428 0.840540 0.165876
H8    H     H_    0.267807 0.597060 0.824378 0.131121
H9    H     H_    0.015978 0.581331 0.960099 0.255286
H10   H     H_    0.142958 0.711043 0.945802 0.215516
H11   H     H_    0.095412 0.737725 0.793395 0.273628
H12   H     H_    0.567016 0.317140 0.070433 0.199730
H13   H     H_    0.951299 0.754059 0.870912 0.258925
H14   H     H_    0.962949 0.611971 0.811479 0.265136
H15   H     H_    0.230303 0.437301 0.091197 0.373297
H16   H     H_    0.259308 0.036288 0.382323 0.129552
H17   H     H_    0.225086 0.193855 0.410768 0.184059
H18   H     H_    0.053425 0.954367 0.477347 0.217889
H19   H     H_    0.021231 0.110495 0.508386 0.233981
H20   H     H_    0.000887 0.164376 0.355888 0.269713
H21   H     H_    0.883930 0.034579 0.395321 0.259897
H22   H     H_    0.033096 0.007579 0.324552 0.267191
H23   H     H_    0.614506 0.106042 0.456440 0.166833
H24   H     H_    0.071185 0.421386 0.373535 0.313647
H25   H     H_    0.750520 0.860323 0.035831 0.132592
H26   H     H_    0.831636 0.723602 0.009051 0.162820
H27   H     H_    0.758151 0.825527 0.191206 0.214498
H28   H     H_    0.833772 0.682825 0.168941 0.266433
H29   H     H_    0.032001 0.800203 0.083740 0.274372
H30   H     H_    0.004359 0.856333 0.191888 0.269667
H31   H     H_    0.956227 0.944280 0.105154 0.259348
H32   H     H_    0.753083 0.445279 0.024564 0.315975
H33   H     H_    0.387561 0.890804 0.464283 0.214231
H34   H     H_    0.689526 0.905952 0.482165 0.153358
H35   H     H_    0.901417 0.602735 0.531887 0.154579
H36   H     H_    0.116702 0.606127 0.582657 0.104333
H37   H     H_    0.377733 0.662179 0.934465 0.019005
H38   H     H_    0.871494 0.368160 0.437196 0.176937
N1    N     N_2   0.842720 0.448890 0.465540 -0.187036
N2    N     N_2   0.157250 0.551040 0.534500 -0.196648
O1    O     O_R   0.431050 0.692470 0.506940 -0.614704
O2    O     O_3   0.250113 0.526190 0.104232 -0.730813
O3    O     O_3   0.278380 0.084108 0.508498 -0.634906
O4    O     O_3   0.130773 0.426532 0.418898 -0.735048
O5    O     O_3   0.633715 0.699778 0.074829 -0.685979
O6    O     O_3   0.738567 0.516581 0.063163 -0.794499
O7    O     O_R   0.651130 0.659650 0.484820 -0.610281
O8    O     O_R   0.389910 0.516410 0.633920 -0.617612
O9    O     O_R   0.609990 0.483590 0.611800 -0.600185
O10   O     O_R   0.348870 0.340350 0.515180 -0.554239
O11   O     O_R   0.568950 0.307530 0.493060 -0.642117
O12   O     O_R   0.390010 0.516410 0.388200 -0.552167
O13   O     O_R   0.610090 0.483590 0.366080 -0.606108
O14   O     O_3   0.254400 0.491785 0.939372 -0.624847
Zn1   Zn    Zn3+2 0.353060 0.521920 0.514770 0.994380
Zn2   Zn    Zn3+2 0.646940 0.478080 0.485230 0.946154

loop_
_geom_bond_atom_site_label_1
_geom_bond_atom_site_label_2
_ccdc_geom_bond_type
O7    Zn2   S    
C10   O14   S    
C7    O4    S    
C19   C20   S    
O13   Zn2   S    
C22   O5    S    
C22   H26   S    
C12   C23   S    
C26   C27   S    
C20   H18   S    
C8    O11   A    
C4    O9    A    
O9    Zn2   S    
C10   C15   S    
C18   H11   S    
C7    N2    D    
C19   H16   S    
O11   Zn2   S    
C1    C31   S    
C13   C23   S    
C6    N1    D    
C23   C26   S    
C3    O3    S    
C20   H19   S    
C11   C15   S    
C16   C17   S    
C25   H29   S    
O10   Zn1   S    
H24   O4    S    
C12   O2    S    
C12   H1    S    
C1    O7    A    
N1    Zn2   S    
C2    H33   S    
C26   H12   S    
C15   C29   S    
C19   O3    S    
C13   O6    S    
C1    O1    A    
C8    O10   A    
C5    H23   S    
C11   H2    S    
C24   C25   S    
C4    O8    A    
C3    C8    S    
C19   H17   S    
C22   H25   S    
C16   H8    S    
C27   H4    S    
C2    C31   D    
C17   H9    S    
C9    C14   S    
C29   C30   T    
C18   H13   S    
N2    Zn1   S    
C15   C27   S    
C13   O5    S    
C17   C18   S    
C25   H30   S    
C23   C28   S    
C10   C12   S    
C9    O12   A    
C16   O14   S    
C22   C24   S    
C2    C5    S    
C18   H14   S    
C21   H20   S    
H32   O6    S    
C31   H34   S    
C11   H3    S    
C3    C5    D    
O1    Zn1   S    
C26   H6    S    
C6    C7    S    
C10   H37   S    
C27   H5    S    
C21   H21   S    
C21   H22   S    
C11   C13   S    
C24   H28   S    
H36   N2    S    
C25   H31   S    
O8    Zn1   S    
H38   N1    S    
C17   H10   S    
C9    O13   A    
C6    H35   S    
O12   Zn1   S    
C20   C21   S    
C24   H27   S    
C14   C28   T    
H15   O2    S    
C4    C30   S    
C16   H7    S    
