data_mof_unit_29168.cif
_audit_creation_date              2012-12-11T15:50:44-0500
_audit_creation_method            fapswitch 2.2
_symmetry_space_group_name_H-M    P1
_symmetry_Int_Tables_number       1
_space_group_crystal_system       triclinic
_cell_length_a                    19.148292
_cell_length_b                    11.058658
_cell_length_c                    18.706847
_cell_angle_alpha                 89.791372
_cell_angle_beta                  91.509741
_cell_angle_gamma                 90.424418
_cell_volume                      3959.7501156

loop_
_atom_site_label
_atom_site_type_symbol
_atom_type_description
_atom_site_fract_x
_atom_site_fract_y
_atom_site_fract_z
_atom_type_partial_charge
C1    C     C_R   0.288793 0.003304 0.861419 0.553611
C2    C     C_R   0.710679 0.003047 0.138767 0.577050
C3    C     C_R   0.788798 0.503289 0.861419 0.556778
C4    C     C_R   0.210677 0.503042 0.138767 0.574583
C5    C     C_3   0.509102 0.718528 0.974234 0.404702
C6    C     C_3   0.459092 0.722639 0.036888 0.396976
C7    C     C_3   0.009106 0.218534 0.974235 0.404532
C8    C     C_3   0.959095 0.222634 0.036889 0.397415
C9    C     C_R   0.221032 0.533868 0.063456 0.027027
C10   C     C_R   0.777096 0.535694 0.935817 0.039818
C11   C     C_R   0.721036 0.033878 0.063458 0.026401
C12   C     C_R   0.277086 0.035725 0.935810 0.041654
C13   C     C_R   0.283751 0.505991 0.032352 0.009289
C14   C     C_R   0.713950 0.507539 0.966702 -0.006025
C15   C     C_R   0.783755 0.006002 0.032358 0.009237
C16   C     C_R   0.213940 0.007568 0.966692 -0.006240
C17   C     C_R   0.295345 0.528000 0.960171 0.014251
C18   C     C_R   0.701485 0.532031 0.038192 0.028733
C19   C     C_R   0.795353 0.028011 0.960178 0.014811
C20   C     C_R   0.201474 0.032054 0.038183 0.027643
C21   C     C_R   0.175590 0.588857 0.945049 0.326841
C22   C     C_R   0.821373 0.594907 0.053480 0.313802
C23   C     C_R   0.675594 0.088848 0.945049 0.326190
C24   C     C_R   0.321367 0.094916 0.053473 0.312571
C25   C     C_R   0.166379 0.579902 0.018758 0.017975
C26   C     C_R   0.830896 0.585881 0.980048 0.021071
C27   C     C_R   0.666383 0.079903 0.018758 0.018160
C28   C     C_R   0.330889 0.085900 0.980042 0.021963
C29   C     C_3   0.314735 0.384542 0.031351 -0.126378
C30   C     C_3   0.679763 0.387425 0.968356 -0.128211
C31   C     C_3   0.814740 0.884553 0.031364 -0.126106
C32   C     C_3   0.179758 0.887451 0.968338 -0.126878
C33   C     C_3   0.328541 0.407660 0.953002 0.271520
C34   C     C_3   0.662536 0.415572 0.045400 0.284971
C35   C     C_3   0.828554 0.907671 0.953017 0.271501
C36   C     C_3   0.162528 0.915586 0.045381 0.285315
C37   C     C_R   0.241882 0.571094 0.915988 0.087223
C38   C     C_R   0.755606 0.573683 0.082886 0.087997
C39   C     C_R   0.741887 0.071094 0.915991 0.087180
C40   C     C_R   0.255598 0.073697 0.082878 0.086479
C41   C     C_R   0.542302 0.827291 0.436404 -0.005152
C42   C     C_R   0.510087 0.829043 0.582409 -0.041120
C43   C     C_R   0.045267 0.324318 0.436749 -0.000311
C44   C     C_R   0.009843 0.322092 0.582138 -0.055535
C45   C     C_R   0.441229 0.816130 0.862228 0.568090
C46   C     C_R   0.529667 0.820339 0.145247 0.615013
C47   C     C_R   0.941230 0.316131 0.862229 0.569158
C48   C     C_R   0.029661 0.320340 0.145252 0.618168
C49   C     C_R   0.539075 0.720482 0.475610 -0.131818
C50   C     C_R   0.524493 0.720809 0.547045 -0.059650
C51   C     C_R   0.015047 0.223745 0.468068 -0.104312
C52   C     C_R   0.000247 0.220562 0.538642 -0.050146
C53   C     C_R   0.522334 0.938590 0.546585 0.335741
C54   C     C_R   0.536775 0.937887 0.473353 0.341141
C55   C     C_R   0.051372 0.416842 0.556134 0.353423
C56   C     C_R   0.069699 0.417014 0.483143 0.362645
C57   C     C_3   0.497075 0.608018 0.461321 0.312206
C58   C     C_3   0.481920 0.606838 0.540022 0.322637
C59   C     C_3   0.955417 0.143598 0.446436 0.296593
C60   C     C_3   0.938581 0.139573 0.525148 0.300257
C61   C     C_R   0.256439 0.597224 0.418980 0.080062
C62   C     C_R   0.773818 0.541583 0.567041 0.016737
C63   C     C_R   0.753176 0.087143 0.422428 0.065288
C64   C     C_R   0.248731 0.116625 0.584023 0.019476
C65   C     C_R   0.226280 0.697973 0.450243 -0.019893
C66   C     C_R   0.829749 0.564941 0.523207 -0.030538
C67   C     C_R   0.724637 0.189665 0.453303 -0.046749
C68   C     C_R   0.300313 0.180206 0.547106 -0.064386
C69   C     C_R   0.223378 0.702160 0.523270 0.071681
C70   C     C_R   0.819010 0.587446 0.452170 0.075518
C71   C     C_R   0.720314 0.193298 0.526217 0.021247
C72   C     C_R   0.291078 0.208811 0.476282 0.012173
C73   C     C_R   0.297608 0.529280 0.536303 -0.162071
C74   C     C_R   0.694823 0.576668 0.468654 -0.160638
C75   C     C_R   0.788664 0.012625 0.540374 -0.149386
C76   C     C_R   0.173715 0.128537 0.478715 -0.149803
C77   C     C_R   0.299561 0.522185 0.462143 -0.072362
C78   C     C_R   0.705855 0.560961 0.541350 -0.067252
C79   C     C_R   0.790813 0.004204 0.466328 -0.113224
C80   C     C_R   0.182006 0.106232 0.552303 -0.070360
C81   C     C_3   0.157043 0.760354 0.440989 -0.185094
C82   C     C_3   0.893219 0.493049 0.511041 -0.208096
C83   C     C_3   0.654898 0.249832 0.443145 -0.195209
C84   C     C_3   0.375582 0.148946 0.538002 -0.125109
C85   C     C_3   0.151927 0.754301 0.521600 0.298474
C86   C     C_3   0.881211 0.516456 0.431965 0.273718
C87   C     C_3   0.647071 0.238008 0.522893 0.307101
C88   C     C_3   0.365323 0.178440 0.460101 0.292325
C89   C     C_R   0.259204 0.632610 0.849456 0.579706
C90   C     C_R   0.740158 0.633055 0.150181 0.589360
C91   C     C_R   0.759206 0.132614 0.849459 0.575377
C92   C     C_R   0.240156 0.133060 0.150180 0.597485
C93   C     C_R   0.254302 0.614257 0.567388 0.023852
C94   C     C_R   0.751787 0.583976 0.423242 -0.031519
C95   C     C_R   0.749772 0.104446 0.570499 -0.027186
C96   C     C_R   0.230091 0.173566 0.439623 -0.033349
C97   C     C_R   0.270733 0.049951 0.647729 0.567113
C98   C     C_R   0.729246 0.045634 0.353403 0.569458
C99   C     C_R   0.788237 0.503810 0.638253 0.547340
C100  C     C_R   0.229979 0.547953 0.352322 0.586390
C101  C     C_R   0.471017 0.823340 0.648154 0.577722
C102  C     C_R   0.558768 0.819933 0.360819 0.581694
C103  C     C_R   0.972483 0.322799 0.649205 0.574991
C104  C     C_R   0.060869 0.319336 0.360706 0.586729
C105  C     C_R   0.260351 0.640627 0.642412 0.567340
C106  C     C_R   0.740665 0.634549 0.354377 0.545772
C107  C     C_R   0.759261 0.137314 0.643999 0.545642
C108  C     C_R   0.226042 0.190099 0.362907 0.527936
C109  C     C_3   0.462711 0.920752 0.034808 -0.216135
C110  C     C_3   0.513162 0.916186 0.971048 -0.199184
C111  C     C_3   0.962704 0.420746 0.034814 -0.216191
C112  C     C_3   0.013156 0.416193 0.971054 -0.199003
C113  C     C_3   0.416669 0.821645 0.999310 0.299385
C114  C     C_3   0.554827 0.816209 0.009538 0.333336
C115  C     C_3   0.916668 0.321635 0.999312 0.299309
C116  C     C_3   0.054825 0.316220 0.009543 0.332970
C117  C     C_3   0.466360 0.818272 0.936394 -0.052572
C118  C     C_3   0.504538 0.821451 0.071862 -0.045849
C119  C     C_3   0.966360 0.318273 0.936396 -0.052841
C120  C     C_3   0.004535 0.321450 0.071865 -0.046065
Cr1   Cr    Cr6+3 0.229640 0.835880 0.747370 1.146254
Cr2   Cr    Cr6+3 0.770360 0.835880 0.252630 1.119809
Cr3   Cr    Cr6+3 0.729640 0.335880 0.747370 1.152060
Cr4   Cr    Cr6+3 0.270360 0.335880 0.252630 1.133578
Cr5   Cr    Cr6+3 0.387390 0.989720 0.750850 1.129933
Cr6   Cr    Cr6+3 0.612610 0.989720 0.249150 1.132595
Cr7   Cr    Cr6+3 0.887390 0.489720 0.750850 1.127826
Cr8   Cr    Cr6+3 0.112610 0.489720 0.249150 1.141313
Cr9   Cr    Cr6+3 0.385770 0.677220 0.749340 1.115207
Cr10  Cr    Cr6+3 0.614230 0.677220 0.250660 1.101025
Cr11  Cr    Cr6+3 0.885770 0.177220 0.749340 1.120122
Cr12  Cr    Cr6+3 0.114230 0.177220 0.250660 1.091646
H1    H     H_    0.971698 0.055760 0.423742 0.179033
H2    H     H_    0.888487 0.182240 0.538881 0.134186
H3    H     H_    0.527678 0.529517 0.443138 0.185514
H4    H     H_    0.426073 0.618573 0.552051 0.151983
H5    H     H_    0.328231 0.467015 0.568918 0.162421
H6    H     H_    0.642358 0.584721 0.447844 0.139153
H7    H     H_    0.816543 0.947777 0.573731 0.198479
H8    H     H_    0.125770 0.101616 0.451551 0.150353
H9    H     H_    0.328451 0.449397 0.439238 0.234957
H10   H     H_    0.661672 0.558378 0.576281 0.241110
H11   H     H_    0.816335 0.926214 0.444192 0.176890
H12   H     H_    0.138941 0.069599 0.581970 0.224584
H13   H     H_    0.114639 0.709179 0.413137 0.221088
H14   H     H_    0.885773 0.396904 0.526137 0.057878
H15   H     H_    0.614233 0.199817 0.412747 0.230341
H16   H     H_    0.385895 0.051226 0.547030 0.148599
H17   H     H_    0.163575 0.854196 0.420490 0.159662
H18   H     H_    0.939593 0.540730 0.534072 0.216356
H19   H     H_    0.660892 0.344759 0.424709 0.159288
H20   H     H_    0.411386 0.212558 0.567085 0.246965
H21   H     H_    0.110908 0.692032 0.540740 0.251662
H22   H     H_    0.868349 0.434762 0.399631 0.184362
H23   H     H_    0.608812 0.168297 0.538885 0.236400
H24   H     H_    0.370948 0.099045 0.424401 0.172533
H25   H     H_    0.451500 0.999513 0.066910 0.246615
H26   H     H_    0.534885 0.991283 0.939992 0.245956
H27   H     H_    0.951491 0.499497 0.066924 0.246841
H28   H     H_    0.034880 0.491291 0.939998 0.246381
H29   H     H_    0.774159 0.814535 0.040006 0.159061
H30   H     H_    0.218360 0.814285 0.963400 0.181537
H31   H     H_    0.274154 0.314527 0.039997 0.158557
H32   H     H_    0.718364 0.314256 0.963421 0.181647
O1    O     O_R   0.214300 0.709080 0.827500 -0.463938
O2    O     O_R   0.785700 0.709080 0.172500 -0.461190
O3    O     O_R   0.714300 0.209080 0.827500 -0.466283
O4    O     O_R   0.285700 0.209080 0.172500 -0.458875
O5    O     O_R   0.445900 0.919370 0.676500 -0.440180
O6    O     O_R   0.554100 0.919370 0.323500 -0.425834
O7    O     O_R   0.945900 0.419370 0.676500 -0.476284
O8    O     O_R   0.054100 0.419370 0.323500 -0.407633
O9    O     O_R   0.456660 0.717710 0.669820 -0.493893
O10   O     O_R   0.543340 0.717710 0.330180 -0.462535
O11   O     O_R   0.956660 0.217710 0.669820 -0.472600
O12   O     O_R   0.043340 0.217710 0.330180 -0.499361
O13   O     O_R   0.320590 0.625770 0.672930 -0.519562
O14   O     O_R   0.679410 0.625770 0.327070 -0.538760
O15   O     O_R   0.820590 0.125770 0.672930 -0.496211
O16   O     O_R   0.179410 0.125770 0.327070 -0.520767
O17   O     O_3   0.334270 0.834280 0.749190 -0.354215
O18   O     O_3   0.665730 0.834280 0.250810 -0.352052
O19   O     O_3   0.834270 0.334280 0.749190 -0.373153
O20   O     O_3   0.165730 0.334280 0.250810 -0.370990
O21   O     O_R   0.236190 0.958390 0.823150 -0.496622
O22   O     O_R   0.763810 0.958390 0.176850 -0.484069
O23   O     O_R   0.736190 0.458390 0.823150 -0.485702
O24   O     O_R   0.263810 0.458390 0.176850 -0.485742
O25   O     O_R   0.332090 0.075280 0.831290 -0.469251
O26   O     O_R   0.667910 0.075280 0.168710 -0.457829
O27   O     O_R   0.832090 0.575280 0.831290 -0.462820
O28   O     O_R   0.167910 0.575280 0.168710 -0.462593
O29   O     O_R   0.446280 0.918040 0.826620 -0.492022
O30   O     O_R   0.553720 0.918040 0.173380 -0.505444
O31   O     O_R   0.946280 0.418040 0.826620 -0.489136
O32   O     O_R   0.053720 0.418040 0.173380 -0.504004
O33   O     O_R   0.457080 0.716270 0.831760 -0.430116
O34   O     O_R   0.542920 0.716270 0.168240 -0.449347
O35   O     O_R   0.957080 0.216270 0.831760 -0.432679
O36   O     O_R   0.042920 0.216270 0.168240 -0.450593
O37   O     O_R   0.320980 0.624440 0.823040 -0.514193
O38   O     O_R   0.679020 0.624440 0.176960 -0.494942
O39   O     O_R   0.820980 0.124440 0.823040 -0.514137
O40   O     O_R   0.179020 0.124440 0.176960 -0.490862
O41   O     O_R   0.213880 0.710510 0.665560 -0.439454
O42   O     O_R   0.786120 0.710510 0.334440 -0.471715
O43   O     O_R   0.713880 0.210510 0.665560 -0.452955
O44   O     O_R   0.286120 0.210510 0.334440 -0.466721
O45   O     O_R   0.235800 0.959720 0.673040 -0.447507
O46   O     O_R   0.764200 0.959720 0.326960 -0.500286
O47   O     O_R   0.735800 0.459720 0.673040 -0.446827
O48   O     O_R   0.264200 0.459720 0.326960 -0.508417
O49   O     O_R   0.331670 0.076720 0.669350 -0.514198
O50   O     O_R   0.668330 0.076720 0.330650 -0.509086
O51   O     O_R   0.831670 0.576720 0.669350 -0.485555
O52   O     O_R   0.168330 0.576720 0.330650 -0.482251
F1    F     F_    0.344795 0.818932 0.993859 -0.659837
F2    F     F_    0.626770 0.810764 0.016633 -0.639803
F3    F     F_    0.844794 0.318910 0.993863 -0.659873
F4    F     F_    0.126769 0.310783 0.016639 -0.640102
F5    F     F_    0.513787 0.045459 0.580384 -0.619017
F6    F     F_    0.537447 0.044260 0.437684 -0.618318
F7    F     F_    0.069886 0.510413 0.599351 -0.612066
F8    F     F_    0.109551 0.507120 0.457799 -0.661452
F9    F     F_    0.437810 0.630818 0.419556 -0.625122
F10   F     F_    0.513543 0.511150 0.575729 -0.574904
F11   F     F_    0.905248 0.204288 0.405906 -0.655801
F12   F     F_    0.949401 0.026227 0.554898 -0.613493
F13   F     F_    0.150642 0.865624 0.553168 -0.638072
F14   F     F_    0.932501 0.589793 0.403595 -0.577746
F15   F     F_    0.638695 0.346336 0.557091 -0.584560
F16   F     F_    0.404245 0.278199 0.440060 -0.586306
F17   F     F_    0.538250 0.619587 0.942315 -0.583346
F18   F     F_    0.428783 0.627447 0.072661 -0.589301
F19   F     F_    0.038264 0.119607 0.942312 -0.584272
F20   F     F_    0.928789 0.127440 0.072663 -0.589386
F21   F     F_    0.121065 0.624161 0.902199 -0.628066
F22   F     F_    0.875114 0.634522 0.096021 -0.644956
F23   F     F_    0.621069 0.124141 0.902195 -0.630320
F24   F     F_    0.375110 0.134516 0.096015 -0.646072
C121  C     C_1   0.101555 0.623610 0.046582 0.314667
N1    N     N_1   0.050222 0.660345 0.069149 -0.220953
C122  C     C_1   0.896350 0.629046 0.952341 0.295103
N2    N     N_1   0.948424 0.664072 0.929763 -0.216707
C123  C     C_1   0.601558 0.123616 0.046579 0.314795
N3    N     N_1   0.550226 0.160358 0.069143 -0.220795
C124  C     C_1   0.396347 0.129054 0.952336 0.295693
N4    N     N_1   0.448423 0.164070 0.929758 -0.217450
C125  C     C_1   0.373250 0.378288 0.083455 0.367555
N5    N     N_1   0.416647 0.371433 0.127404 -0.103809
C126  C     C_1   0.623717 0.380341 0.913498 0.341302
N6    N     N_1   0.582367 0.373210 0.867559 -0.104307
C127  C     C_1   0.873251 0.878299 0.083474 0.368513
N7    N     N_1   0.916644 0.871444 0.127427 -0.109056
C128  C     C_1   0.123714 0.880372 0.913477 0.341110
N8    N     N_1   0.082367 0.873247 0.867535 -0.110724
C129  C     C_1   0.400570 0.422179 0.931959 0.327245
N9    N     N_1   0.457187 0.434191 0.914090 -0.150747
C130  C     C_1   0.589690 0.439480 0.060008 0.341583
N10   N     N_1   0.532359 0.460852 0.071364 -0.156631
C131  C     C_1   0.900587 0.922189 0.931990 0.328049
N11   N     N_1   0.957209 0.934197 0.914136 -0.151134
C132  C     C_1   0.089680 0.939476 0.059987 0.341277
N12   N     N_1   0.032346 0.960828 0.071340 -0.157563
F25   F     F_    0.290711 0.331519 0.907523 -0.613893
F26   F     F_    0.693755 0.337879 0.094711 -0.606925
F27   F     F_    0.790732 0.831523 0.907536 -0.612483
F28   F     F_    0.193747 0.837886 0.094687 -0.607000

loop_
_geom_bond_atom_site_label_1
_geom_bond_atom_site_label_2
_ccdc_geom_bond_type
C102  O6    A    
C21   F21   S    
C55   C56   A    
C31   H29   S    
C67   C83   S    
C7    C8    S    
Cr2   O2    S    
C5    C114  S    
C23   C39   A    
Cr7   O19   S    
C14   C18   A    
C101  O9    A    
C111  C112  S    
Cr8   O20   S    
C86   H22   S    
C73   C93   A    
C108  O44   A    
C43   C56   A    
C109  H25   S    
C31   C127  S    
C99   O51   A    
C9    C25   A    
C126  N6    T    
C48   C120  S    
C63   C79   A    
C53   C54   A    
Cr10  O10   S    
C15   C19   A    
C92   O4    A    
C74   H6    S    
C108  O16   A    
C125  N5    T    
C33   F25   S    
C1    O25   A    
C97   O45   A    
C48   O36   A    
C64   C68   A    
C91   O3    A    
C16   C20   A    
C70   C94   A    
C114  F2    S    
C121  N1    T    
C63   C98   S    
C69   C93   A    
C27   C123  S    
C42   C53   A    
C5    C6    S    
C20   C40   A    
C72   C96   A    
C87   F15   S    
Cr2   O22   S    
C67   C71   A    
C71   C95   A    
C36   F28   S    
C55   F7    S    
C53   F5    S    
C122  N2    T    
C22   C38   A    
C29   C33   S    
Cr12  O36   S    
C49   C57   S    
C30   C126  S    
C46   C118  S    
C129  N9    T    
Cr12  O12   S    
C39   C91   S    
Cr6   O26   S    
C29   H31   S    
C43   C104  S    
C9    C13   A    
C52   C60   S    
C8    C115  S    
C93   C105  S    
Cr4   O4    S    
C11   C15   A    
C41   C49   A    
C79   H11   S    
C12   C16   A    
C61   C77   A    
C80   H12   S    
C54   F6    S    
C32   H30   S    
C11   C27   A    
Cr3   O19   S    
C76   C80   A    
Cr2   O46   S    
C101  O5    A    
C127  N7    T    
C30   H32   S    
C116  F4    S    
Cr5   O5    S    
C110  C114  S    
C107  O43   A    
Cr10  O38   S    
C109  C113  S    
C104  O8    A    
C81   H13   S    
Cr3   O3    S    
C44   C52   A    
C47   C119  S    
C96   C108  S    
C59   C60   S    
C97   O49   A    
C123  N3    T    
Cr4   O44   S    
C103  O7    A    
C47   O31   A    
C64   C80   A    
Cr9   O9    S    
C85   H21   S    
C1    C12   S    
Cr11  O19   S    
C14   C30   S    
C4    O28   A    
C2    C11   S    
C110  C117  S    
C113  F1    S    
C72   C88   S    
C44   C103  S    
C62   C78   A    
C109  C118  S    
C46   O30   A    
C51   C59   S    
C83   H19   S    
C23   C27   A    
C76   H8    S    
C45   O29   A    
Cr9   O33   S    
C63   C67   A    
Cr12  O40   S    
C30   C34   S    
C45   O33   A    
C75   C95   A    
C51   C52   A    
C68   C84   S    
C36   C132  S    
C7    C119  S    
C132  N12   T    
C85   F13   S    
C7    C116  S    
C104  O12   A    
C21   C25   A    
C10   C14   A    
C56   F8    S    
C62   C66   A    
C26   C122  S    
C98   O50   A    
C99   O47   A    
Cr4   O48   S    
Cr10  O14   S    
C6    C118  S    
C82   C86   S    
Cr9   O13   S    
C15   C31   S    
C100  O48   A    
Cr7   O27   S    
C110  H26   S    
C116  C120  S    
C13   C29   S    
Cr3   O47   S    
C111  C120  S    
C60   F12   S    
C28   C124  S    
C50   C58   S    
C58   F10   S    
C90   O2    A    
C84   H16   S    
Cr11  O35   S    
C57   F9    S    
C2    O22   A    
C6    C113  S    
C94   C106  S    
Cr6   O6    S    
C69   C85   S    
Cr7   O31   S    
C76   C96   A    
C66   C82   S    
C23   F23   S    
Cr6   O30   S    
C65   C81   S    
C114  C118  S    
Cr5   O29   S    
C68   C72   A    
Cr10  O18   S    
C103  O11   A    
C10   C26   A    
Cr6   O50   S    
C86   F14   S    
Cr3   O43   S    
C17   C33   S    
Cr5   O17   S    
C17   C37   A    
C40   C92   S    
Cr5   O49   S    
C105  O41   A    
C59   F11   S    
C18   C34   S    
C89   O1    A    
C82   H18   S    
C19   C39   A    
C111  H27   S    
Cr8   O52   S    
C7    F19   S    
C83   H15   S    
C8    F20   S    
C64   C97   S    
C88   F16   S    
C35   F27   S    
C42   C50   A    
C24   F24   S    
Cr8   O8    S    
Cr1   O45   S    
C71   C87   S    
C24   C28   A    
C31   C35   S    
Cr6   O18   S    
C61   C100  S    
Cr8   O32   S    
C82   H14   S    
Cr7   O7    S    
C41   C102  S    
C128  N8    T    
C70   C86   S    
C42   C101  S    
C60   H2    S    
C22   F22   S    
C112  C116  S    
Cr11  O39   S    
C8    C120  S    
C115  F3    S    
Cr1   O17   S    
C92   O40   A    
C113  C117  S    
C45   C117  S    
C65   C69   A    
Cr9   O17   S    
C100  O52   A    
Cr11  O15   S    
Cr4   O24   S    
C112  H28   S    
C107  O15   A    
C59   H1    S    
C34   F26   S    
C2    O26   A    
C105  O13   A    
C5    F17   S    
C75   H7    S    
C3    O23   A    
C83   C87   S    
C106  O42   A    
C112  C119  S    
C111  C115  S    
C124  N4    T    
C32   C36   S    
Cr4   O20   S    
C102  O10   A    
C95   C107  S    
C25   C121  S    
C16   C32   S    
Cr1   O1    S    
C89   O37   A    
C38   C90   S    
C115  C119  S    
C37   C89   S    
Cr12  O16   S    
C58   H4    S    
C1    O21   A    
C35   C131  S    
C78   H10   S    
C18   C38   A    
C47   O35   A    
Cr9   O37   S    
C3    C10   S    
C19   C35   S    
C109  C110  S    
Cr12  O20   S    
C62   C99   S    
C44   C55   A    
Cr7   O51   S    
C57   C58   S    
C131  N11   T    
C84   C88   S    
C73   H5    S    
C43   C51   A    
C81   H17   S    
C6    F18   S    
C32   C128  S    
Cr11  O11   S    
C24   C40   A    
C48   O32   A    
C34   C130  S    
C87   H23   S    
Cr3   O23   S    
C3    O27   A    
C77   H9    S    
C41   C54   A    
C98   O46   A    
C46   O34   A    
Cr2   O42   S    
Cr1   O21   S    
C13   C17   A    
C20   C36   S    
C61   C65   A    
Cr1   O41   S    
Cr2   O18   S    
C21   C37   A    
C66   C70   A    
C12   C28   A    
C81   C85   S    
C49   C50   A    
C22   C26   A    
C5    C117  S    
C74   C94   A    
C33   C129  S    
C73   C77   A    
C57   H3    S    
C84   H20   S    
Cr5   O25   S    
C88   H24   S    
Cr8   O28   S    
C4    C9    S    
Cr10  O34   S    
C75   C79   A    
C106  O14   A    
C91   O39   A    
C4    O24   A    
C130  N10   T    
C29   C125  S    
C90   O38   A    
C74   C78   A    
