data_mof_unit_47642.cif
_audit_creation_date              2013-03-05T15:55:52-0500
_audit_creation_method            fapswitch 2.2
_symmetry_space_group_name_H-M    P1
_symmetry_Int_Tables_number       1
_space_group_crystal_system       triclinic
_cell_length_a                    12.320969
_cell_length_b                    13.132168
_cell_length_c                    15.849748
_cell_angle_alpha                 77.939709
_cell_angle_beta                  100.967342
_cell_angle_gamma                 116.214937
_cell_volume                      2235.88118107

loop_
_atom_site_label
_atom_site_type_symbol
_atom_site_description
_atom_site_fract_x
_atom_site_fract_y
_atom_site_fract_z
_atom_type_partial_charge
O1    O     O_R   0.972510 0.318130 0.524770 -0.583372
O2    O     O_R   0.806530 0.359650 0.491510 -0.620973
C1    C     C_R   0.855014 0.286466 0.506237 0.807288
O3    O     O_R   0.082970 0.479240 0.637550 -0.566761
O4    O     O_R   0.916990 0.520750 0.604290 -0.573683
C2    C     C_R   0.999373 0.499873 0.659921 0.831720
Cu1   Cu    Cu3+1 0.098270 0.475420 0.519690 0.973624
Cu2   Cu    Cu3+1 0.901730 0.524580 0.480310 0.989218
O5    O     O_R   0.193470 0.640350 0.508490 -0.581214
O6    O     O_R   0.027490 0.681870 0.475230 -0.536178
O7    O     O_R   0.083010 0.479250 0.395710 -0.589712
O8    O     O_R   0.917030 0.520760 0.362450 -0.582495
C3    C     C_R   0.144805 0.713992 0.489165 0.837163
C4    C     C_R   0.000595 0.500137 0.340066 0.802658
C5    C     C_3   0.982804 0.396106 0.043217 -0.207506
C6    C     C_3   0.890762 0.420267 0.969283 -0.210315
H1    H     H_    0.802043 0.355893 0.943672 0.166623
H2    H     H_    0.970587 0.310767 0.080212 0.168873
C7    C     C_1   0.998308 0.500065 0.749437 -0.127028
C8    C     C_1   0.001260 0.499894 0.250496 -0.132819
C9    C     C_3   0.089464 0.475780 0.988704 -0.115761
C10   C     C_3   0.997697 0.500321 0.916534 0.116423
C11   C     C_3   0.105512 0.579952 0.029397 -0.208416
C12   C     C_3   0.999092 0.500213 0.082823 0.071492
C13   C     C_3   0.013983 0.604880 0.955408 -0.182743
C14   C     C_3   0.909549 0.524156 0.009775 0.384066
C15   C     C_1   0.997815 0.500195 0.824920 0.005991
C16   C     C_1   0.000714 0.499934 0.174826 0.022821
H3    H     H_    0.025055 0.690021 0.918562 0.183301
H4    H     H_    0.193663 0.644985 0.055087 0.166838
H5    H     H_    0.164188 0.455688 0.978515 0.162585
C17   C     C_R   0.270909 0.037034 0.428534 -0.245987
H6    H     H_    0.446619 0.233659 0.370209 0.149710
H7    H     H_    0.239669 0.103454 0.400497 0.175763
C18   C     C_R   0.226930 0.837066 0.479825 -0.187109
C19   C     C_R   0.818061 0.083608 0.554569 -0.281471
C20   C     C_R   0.739796 0.970784 0.581755 0.309932
C21   C     C_R   0.612967 0.937465 0.567780 0.201321
C22   C     C_R   0.564966 0.011909 0.510900 -0.060344
C23   C     C_R   0.647122 0.124900 0.480425 0.043875
C24   C     C_R   0.437949 0.980091 0.485127 0.117481
C25   C     C_R   0.395645 0.063931 0.442443 0.090241
C26   C     C_R   0.477885 0.171545 0.409500 -0.203781
C27   C     C_R   0.601053 0.197911 0.422392 -0.143151
C28   C     C_R   0.352214 0.866257 0.494373 -0.211793
C29   C     C_R   0.185834 0.925048 0.451481 0.342593
C30   C     C_R   0.772810 0.163176 0.510302 -0.162647
H8    H     H_    0.382827 0.798808 0.508143 0.207912
H9    H     H_    0.915006 0.110756 0.573084 0.210687
H10   H     H_    0.659088 0.276797 0.386292 0.175997
C31   C     C_R   0.345510 0.326532 0.636341 -0.255599
H11   H     H_    0.167815 0.307216 0.651450 0.134818
H12   H     H_    0.344014 0.258773 0.689246 0.156642
N1    N     N_R   0.246280 0.438200 0.549540 -0.186949
C32   C     C_R   0.760340 0.646787 0.384348 0.174348
C33   C     C_R   0.664616 0.679777 0.359724 -0.198970
C34   C     C_R   0.560955 0.624587 0.403298 -0.176726
C35   C     C_R   0.551927 0.535346 0.472706 0.015765
C36   C     C_R   0.653076 0.505251 0.496163 0.289086
C37   C     C_R   0.447181 0.475358 0.519917 -0.012585
C38   C     C_R   0.446148 0.387045 0.589143 0.160615
C39   C     C_R   0.545769 0.359866 0.611396 -0.240923
C40   C     C_R   0.647080 0.418146 0.566470 -0.151435
C41   C     C_R   0.342517 0.498593 0.501844 0.076473
C42   C     C_R   0.245906 0.353656 0.615349 0.103611
N2    N     N_R   0.754330 0.561180 0.450980 -0.218830
H13   H     H_    0.335224 0.563988 0.450342 0.113723
H14   H     H_    0.840489 0.690229 0.350226 0.154660
H15   H     H_    0.670792 0.748381 0.306662 0.164451
H16   H     H_    0.719051 0.392028 0.589844 0.200502
N3    N     N_R   0.538261 0.841422 0.624668 0.124446
O9    O     O_R   0.478071 0.856705 0.676371 -0.328146
O10   O     O_R   0.528303 0.738664 0.624332 -0.307652
N4    N     N_R   0.790502 0.894119 0.631463 0.178045
O11   O     O_R   0.883982 0.931253 0.689303 -0.326624
O12   O     O_R   0.759165 0.794962 0.607681 -0.259840
H17   H     H_    0.545868 0.292942 0.664697 0.164053
H18   H     H_    0.489692 0.653662 0.381474 0.134696
N5    N     N_R   0.810125 0.550888 0.019616 0.126622
O13   O     O_R   0.740331 0.569582 0.951398 -0.309150
O14   O     O_R   0.790392 0.556255 0.095955 -0.353163
N6    N     N_R   0.059680 0.902827 0.443769 0.121233
O15   O     O_R   0.000836 0.857997 0.511898 -0.288467
O16   O     O_R   0.011797 0.949086 0.375270 -0.379667

loop_
_geom_bond_atom_site_label_1
_geom_bond_atom_site_label_2
_geom_bond_distance
_ccdc_geom_bond_type
C5    H2    1.110112 S    
C32   C33   1.391628 A    
Cu2   N2    2.025327 S    
C23   C30   1.416966 A    
C24   C25   1.415323 A    
C39   H17   1.084622 S    
C31   C38   1.400934 A    
C20   N4    1.435823 S    
C32   H14   1.081516 S    
Cu1   Cu2   2.703327 S    
C22   C24   1.428629 A    
N1    C42   1.354262 A    
Cu1   O7    1.930227 S    
C2    C7    1.421890 S    
C9    H5    1.110095 S    
C20   C21   1.409652 A    
N4    O12   1.300880 A    
C19   C20   1.392773 A    
C12   C14   1.524749 S    
C3    C18   1.473132 S    
C36   N2    1.385392 A    
O4    C2    1.298931 A    
O7    C4    1.299382 A    
C35   C37   1.438409 A    
C5    C6    1.554612 S    
C33   C34   1.393619 A    
C19   C30   1.397999 A    
C31   C42   1.387416 A    
O5    C3    1.306609 A    
C29   N6    1.434559 S    
C6    H1    1.110166 S    
C10   C13   1.538935 S    
C11   C12   1.540032 S    
C7    C15   1.197920 T    
C9    C10   1.538335 S    
C6    C14   1.535285 S    
O3    Cu1   1.925922 S    
C13   H3    1.110175 S    
N4    O11   1.301392 A    
H6    C26   1.084256 S    
C41   H13   1.076678 S    
C4    C8    1.421931 S    
O3    C2    1.298352 A    
C22   C23   1.420992 A    
N3    O10   1.300985 A    
C8    C16   1.197983 T    
C35   C36   1.430035 A    
C37   C38   1.417586 A    
O1    C1    1.308568 A    
C17   H7    1.084429 S    
C26   C27   1.382733 A    
C11   H4    1.110107 S    
C39   C40   1.384685 A    
C40   H16   1.063878 S    
C23   C27   1.414619 A    
Cu2   O8    1.925922 S    
C5    C12   1.540050 S    
O8    C4    1.297984 A    
C33   H15   1.082558 S    
N6    O16   1.301200 A    
C10   C15   1.452689 S    
C9    C11   1.551697 S    
C25   C26   1.387210 A    
C18   C28   1.400569 A    
C32   N2    1.358216 A    
N5    O14   1.300307 A    
C28   H8    1.075872 S    
C27   H10   1.079537 S    
Cu1   O5    1.942292 S    
C21   N3    1.437313 S    
C6    C10   1.538908 S    
O1    Cu1   1.955575 S    
C17   C29   1.397640 A    
C34   H18   1.077870 S    
O2    Cu2   1.942292 S    
C12   C16   1.453805 S    
O6    C3    1.301835 A    
O4    Cu2   1.930227 S    
C36   C40   1.407012 A    
C14   N5    1.457294 S    
C37   C41   1.417278 A    
O2    C1    1.302064 A    
C13   C14   1.535263 S    
N3    O9    1.301249 A    
C24   C28   1.394373 A    
C34   C35   1.410196 A    
C21   C22   1.434537 A    
N1    C41   1.366067 A    
C1    C30   1.477785 S    
C11   C13   1.554577 S    
C38   C39   1.388546 A    
C19   H9    1.083546 S    
N5    O13   1.300245 A    
C5    C9    1.551702 S    
Cu2   O6    1.955575 S    
N6    O15   1.301308 A    
C17   C25   1.399766 A    
Cu1   N1    2.037382 S    
C31   H12   1.083911 S    
C18   C29   1.416532 A    
H11   C42   1.081817 S    
