data_mof_unit_8027.cif
_audit_creation_date              2012-10-26T21:02:57-0400
_audit_creation_method            fapswitch 2.2
_symmetry_space_group_name_H-M    P1
_symmetry_Int_Tables_number       1
_space_group_crystal_system       triclinic
_cell_length_a                    12.312563
_cell_length_b                    13.11807
_cell_length_c                    23.49362
_cell_angle_alpha                 77.650033
_cell_angle_beta                  101.104704
_cell_angle_gamma                 116.127122
_cell_volume                      3307.02631586

loop_
_atom_site_label
_atom_site_type_symbol
_atom_type_description
_atom_site_fract_x
_atom_site_fract_y
_atom_site_fract_z
_atom_type_partial_charge
Br1   Br    Br    0.018730 0.902901 0.451466 -0.524771
Br2   Br    Br    0.520120 0.806748 0.603741 -0.582381
Br3   Br    Br    0.077356 0.854180 0.028140 -0.398659
C1    C     C_R   0.855037 0.286325 0.504754 0.538169
C2    C     C_R   0.013673 0.600186 0.869544 0.405516
C3    C     C_R   0.103244 0.570400 0.763874 -0.039755
C4    C     C_R   0.001143 0.502394 0.608574 0.541168
C5    C     C_R   0.107526 0.574915 0.704161 -0.022445
C6    C     C_R   0.001896 0.505644 0.670575 0.028266
C7    C     C_R   0.894175 0.437889 0.696681 -0.146483
C8    C     C_R   0.891018 0.435924 0.755832 -0.051783
C9    C     C_R   0.995662 0.501579 0.789739 0.221733
C10   C     C_R   0.892452 0.483436 0.229918 0.054283
C11   C     C_R   0.894558 0.484715 0.289782 -0.121064
C12   C     C_R   0.949611 0.297402 0.048178 -0.112455
C13   C     C_R   0.999979 0.498237 0.328708 -0.019389
C14   C     C_R   0.104874 0.510570 0.307959 -0.128389
C15   C     C_R   0.106304 0.510894 0.248539 0.058382
C16   C     C_R   0.144804 0.714169 0.491621 0.557330
C17   C     C_R   0.999745 0.497648 0.209371 0.253597
C18   C     C_R   0.271650 0.038207 0.451103 -0.092407
C19   C     C_R   0.226867 0.837339 0.484601 -0.007388
C20   C     C_R   0.817069 0.084631 0.542948 -0.142863
C21   C     C_R   0.737267 0.974628 0.563513 -0.074271
C22   C     C_R   0.611764 0.939973 0.551281 0.151807
C23   C     C_R   0.948554 0.297439 0.988811 -0.111234
C24   C     C_R   0.564087 0.012031 0.510125 0.044936
C25   C     C_R   0.647121 0.124458 0.488559 0.003659
C26   C     C_R   0.437699 0.980355 0.491356 0.030057
C27   C     C_R   0.396176 0.064721 0.461713 0.013080
C28   C     C_R   0.000230 0.499742 0.391109 0.547372
C29   C     C_R   0.478932 0.171864 0.439067 -0.134660
C30   C     C_R   0.601846 0.197059 0.448007 -0.110522
C31   C     C_R   0.352256 0.866482 0.496206 -0.142526
C32   C     C_R   0.186350 0.925930 0.464753 0.153219
C33   C     C_R   0.772870 0.162980 0.509325 -0.010811
C34   C     C_R   0.970932 0.398827 0.948881 0.036142
C35   C     C_R   0.347601 0.328581 0.593508 -0.132735
C36   C     C_R   0.757553 0.643381 0.419924 0.084320
C37   C     C_R   0.660268 0.674359 0.402277 -0.138172
C38   C     C_R   0.557646 0.620435 0.432428 -0.131224
C39   C     C_R   0.550928 0.534025 0.480854 0.000421
C40   C     C_R   0.024470 0.600805 0.110920 0.397860
C41   C     C_R   0.653304 0.505385 0.497434 0.181810
C42   C     C_R   0.446920 0.474888 0.513301 -0.000402
C43   C     C_R   0.447398 0.388165 0.561027 0.040535
C44   C     C_R   0.547551 0.361437 0.576321 -0.163891
C45   C     C_R   0.994676 0.501146 0.969193 -0.037553
C46   C     C_R   0.648193 0.419019 0.545492 -0.089750
C47   C     C_R   0.341647 0.497579 0.500797 0.061307
C48   C     C_R   0.247394 0.355153 0.579024 0.056003
C49   C     C_R   0.974982 0.399701 0.128507 0.383690
C50   C     C_R   0.973797 0.398890 0.068975 0.029390
C51   C     C_R   0.996928 0.501843 0.029492 -0.058713
C52   C     C_R   0.022195 0.604936 0.050097 0.028355
C53   C     C_3   0.223426 0.528330 0.228047 -0.255964
C54   C     C_3   0.251737 0.423353 0.249681 -0.426390
C55   C     C_3   0.221991 0.660403 0.677136 -0.264146
C56   C     C_R   0.016253 0.602587 0.929232 -0.004521
C57   C     C_3   0.204693 0.766228 0.643065 -0.397028
C58   C     C_3   0.778732 0.467351 0.186584 -0.252798
C59   C     C_3   0.665213 0.448499 0.212423 -0.451664
C60   C     C_R   0.040103 0.704108 0.949521 -0.086597
C61   C     C_R   0.043642 0.706753 0.008963 0.171028
C62   C     C_R   0.971155 0.400768 0.888946 0.406300
Cu1   Cu    Cu3+1 0.098270 0.475410 0.513370 0.946975
Cu2   Cu    Cu3+1 0.901730 0.524590 0.486630 0.953647
H1    H     H_    0.931731 0.217533 0.077751 0.178114
H2    H     H_    0.660383 0.275079 0.423101 0.149618
H3    H     H_    0.170065 0.309537 0.603939 0.129587
H4    H     H_    0.548534 0.295288 0.612854 0.117145
H5    H     H_    0.347259 0.262010 0.629978 0.108014
H6    H     H_    0.333404 0.562060 0.465402 0.114945
H7    H     H_    0.836367 0.685150 0.395962 0.166497
H8    H     H_    0.484973 0.647656 0.416752 0.099866
H9    H     H_    0.664307 0.740233 0.364984 0.126440
H10   H     H_    0.720030 0.392386 0.561096 0.179585
H11   H     H_    0.056671 0.782778 0.919055 0.197402
H12   H     H_    0.814295 0.474331 0.306875 0.130712
H13   H     H_    0.182983 0.622430 0.790401 0.138404
H14   H     H_    0.812599 0.385459 0.671289 0.108523
H15   H     H_    0.807139 0.383436 0.775371 0.145495
H16   H     H_    0.264757 0.407557 0.298353 0.144766
H17   H     H_    0.176500 0.346260 0.233305 0.209837
H18   H     H_    0.336813 0.438038 0.233110 0.138526
H19   H     H_    0.219774 0.545887 0.179544 0.173508
H20   H     H_    0.299580 0.604582 0.244841 0.144014
H21   H     H_    0.128509 0.742259 0.607422 0.171850
H22   H     H_    0.184870 0.809482 0.672977 0.172596
H23   H     H_    0.186945 0.522267 0.337900 0.122441
H24   H     H_    0.289052 0.827679 0.623361 0.185612
H25   H     H_    0.299866 0.689168 0.711784 0.168330
H26   H     H_    0.248978 0.620956 0.648234 0.210876
H27   H     H_    0.638560 0.370269 0.245803 0.154922
H28   H     H_    0.681494 0.524467 0.232151 0.154754
H29   H     H_    0.588479 0.436378 0.176958 0.157430
H30   H     H_    0.799359 0.544178 0.152339 0.184004
H31   H     H_    0.755541 0.392036 0.164676 0.175192
H32   H     H_    0.448190 0.234009 0.411659 0.109257
H33   H     H_    0.240533 0.104643 0.431193 0.145499
H34   H     H_    0.383686 0.799426 0.504994 0.187063
H35   H     H_    0.913124 0.111232 0.557988 0.146389
H36   H     H_    0.773587 0.919279 0.593683 0.174096
H37   H     H_    0.930024 0.217719 0.974346 0.181496
N1    N     N_R   0.000113 0.499410 0.148061 -0.420799
N2    N     N_R   0.992555 0.500550 0.850661 -0.396306
N3    N     N_R   0.246280 0.438190 0.533650 -0.231677
N4    N     N_R   0.754320 0.561190 0.466710 -0.236314
O1    O     O_R   0.972510 0.318130 0.516820 -0.497299
O2    O     O_R   0.082990 0.479280 0.429170 -0.504883
O3    O     O_R   0.917010 0.520800 0.406580 -0.518750
O4    O     O_2   0.050498 0.696198 0.133447 -0.427250
O5    O     O_2   0.950810 0.301639 0.166733 -0.500540
O6    O     O_2   0.951717 0.304135 0.869189 -0.484942
O7    O     O_2   0.031580 0.696561 0.830581 -0.490179
O8    O     O_R   0.806530 0.359650 0.494230 -0.536499
O9    O     O_R   0.082990 0.479200 0.593420 -0.502741
O10   O     O_R   0.917010 0.520720 0.570830 -0.510379
O11   O     O_R   0.193470 0.640350 0.505770 -0.511120
O12   O     O_R   0.027490 0.681870 0.483180 -0.447676

loop_
_geom_bond_atom_site_label_1
_geom_bond_atom_site_label_2
_ccdc_geom_bond_type
C41   C46   A    
C27   C29   A    
C1    O1    A    
C1    C33   S    
C59   H29   S    
C24   C26   A    
C38   C39   A    
C4    O9    A    
C58   H31   S    
Cu1   N3    S    
C57   H21   S    
C44   C46   A    
Br3   C61   S    
C13   C28   S    
C45   C51   A    
C19   C32   A    
C12   C50   A    
C55   H26   S    
C3    C9    A    
Cu2   N4    S    
C20   H35   S    
C55   C57   S    
C53   C54   S    
C62   O6    S    
C36   H7    S    
C5    C55   S    
C43   C44   A    
C53   H19   S    
C54   H18   S    
C5    C6    A    
Cu1   O9    S    
C34   C62   A    
C20   C21   A    
C54   H16   S    
C48   H3    S    
Cu2   O12   S    
C30   H2    S    
C23   H37   S    
Cu1   Cu2   S    
C16   O11   A    
C10   C11   A    
C2    O7    S    
C4    O10   A    
C39   C41   A    
C2    N2    A    
C41   N4    A    
C8    H15   S    
C36   N4    A    
C19   C31   A    
C35   H5    S    
C31   H34   S    
C16   O12   A    
C2    C56   A    
C16   C19   S    
C21   C22   A    
C47   H6    S    
C36   C37   A    
C18   H33   S    
C13   C14   A    
C53   H20   S    
C3    C5    A    
C35   C48   A    
C57   H22   S    
C26   C31   A    
C37   H9    S    
C39   C42   A    
Cu2   O8    S    
C26   C27   A    
C38   H8    S    
C3    H13   S    
C40   N1    A    
C52   C61   A    
C14   C15   A    
C54   H17   S    
C11   H12   S    
Cu1   O2    S    
C34   C45   A    
C44   H4    S    
C40   C52   A    
C37   C38   A    
C25   C30   A    
Cu1   O11   S    
C59   H27   S    
C47   N3    A    
C11   C13   A    
C40   O4    S    
C62   N2    A    
C49   C50   A    
Br1   C32   S    
C45   C56   A    
C17   N1    S    
C6    C7    A    
C57   H24   S    
Cu2   O3    S    
C4    C6    S    
C51   C52   A    
C10   C17   A    
C1    O8    A    
C58   H30   S    
C14   H23   S    
C12   C23   A    
C49   N1    A    
C8    C9    A    
C23   C34   A    
C50   C51   A    
C18   C32   A    
C15   C53   S    
C22   C24   A    
C18   C27   A    
C7    H14   S    
C56   C60   A    
C29   H32   S    
C21   H36   S    
C29   C30   A    
C9    N2    S    
C42   C47   A    
C49   O5    S    
C12   H1    S    
C28   O2    A    
C46   H10   S    
Br2   C22   S    
C15   C17   A    
Cu1   O1    S    
C58   C59   S    
Cu2   O10   S    
C35   C43   A    
C7    C8    A    
C60   C61   A    
C42   C43   A    
C10   C58   S    
C25   C33   A    
C48   N3    A    
C20   C33   A    
C24   C25   A    
C28   O3    A    
C59   H28   S    
C55   H25   S    
C60   H11   S    
