data_mof_unit_10567.cif
_audit_creation_date              2012-12-11T16:32:27-0500
_audit_creation_method            fapswitch 2.2
_symmetry_space_group_name_H-M    P1
_symmetry_Int_Tables_number       1
_space_group_crystal_system       triclinic
_cell_length_a                    6.940253
_cell_length_b                    14.387801
_cell_length_c                    15.963054
_cell_angle_alpha                 90.056956
_cell_angle_beta                  89.835794
_cell_angle_gamma                 89.928682
_cell_volume                      1593.98184855

loop_
_atom_site_label
_atom_site_type_symbol
_atom_type_description
_atom_site_fract_x
_atom_site_fract_y
_atom_site_fract_z
_atom_type_partial_charge
O1    O     O_R   0.361630 0.167340 0.164570 -0.528374
O2    O     O_R   0.638370 0.832660 0.835430 -0.528373
O3    O     O_R   0.690860 0.157560 0.338690 -0.539204
O4    O     O_R   0.309140 0.842440 0.661310 -0.539205
O5    O     O_R   0.861260 0.336420 0.339380 -0.544324
O6    O     O_R   0.138740 0.663580 0.660620 -0.544324
C1    C     C_R   0.521834 0.133949 0.367261 0.760886
C2    C     C_R   0.478166 0.866051 0.632739 0.760886
O7    O     O_R   0.691330 0.156310 0.165190 -0.548163
O8    O     O_R   0.308670 0.843690 0.834810 -0.548163
O9    O     O_R   0.861730 0.335160 0.164640 -0.540732
O10   O     O_R   0.138270 0.664840 0.835360 -0.540732
C3    C     C_R   0.522977 0.133969 0.136495 0.707665
C4    C     C_R   0.477023 0.866031 0.863505 0.707664
O11   O     O_R   0.361150 0.168600 0.339320 -0.520450
O12   O     O_R   0.638850 0.831400 0.660680 -0.520450
O13   O     O_3   0.527950 0.310560 0.252000 -0.376322
O14   O     O_3   0.472050 0.689440 0.748000 -0.376322
V1    V     V_3+5 0.802770 0.240990 0.251980 1.459611
V2    V     V_3+5 0.197230 0.759010 0.748020 1.459611
O15   O     O_R   0.191450 0.346190 0.165260 -0.548145
O16   O     O_R   0.808550 0.653810 0.834740 -0.548144
C5    C     C_R   0.022779 0.367788 0.136453 0.683376
C6    C     C_R   0.977221 0.632211 0.863547 0.683376
O17   O     O_R   0.190980 0.347440 0.338770 -0.536495
O18   O     O_R   0.809020 0.652560 0.661230 -0.536495
C7    C     C_R   0.021686 0.369575 0.367428 0.734322
C8    C     C_R   0.978314 0.630425 0.632572 0.734323
V3    V     V_3+5 0.302780 0.262760 0.251980 1.472143
V4    V     V_3+5 0.697220 0.737240 0.748020 1.472143
O19   O     O_3   0.027730 0.193200 0.251960 -0.356908
O20   O     O_3   0.972270 0.806800 0.748040 -0.356909
C9    C     C_3   0.820715 0.468688 0.482380 -0.228365
C10   C     C_3   0.179284 0.531312 0.517620 -0.228364
C11   C     C_3   0.923618 0.458172 0.568537 -0.219811
C12   C     C_3   0.076382 0.541829 0.431463 -0.219809
H1    H     H_    0.864761 0.423226 0.625039 0.146836
H2    H     H_    0.135239 0.576774 0.374961 0.146836
H3    H     H_    0.672824 0.444820 0.467079 0.149984
H4    H     H_    0.327176 0.555180 0.532920 0.149984
C13   C     C_3   0.990613 0.560601 0.562949 -0.092771
C14   C     C_3   0.009387 0.439399 0.437051 -0.092771
C15   C     C_3   0.890593 0.570167 0.478116 0.410897
C16   C     C_3   0.109407 0.429833 0.521884 0.410897
H5    H     H_    0.746274 0.326921 0.769880 0.157048
H6    H     H_    0.253726 0.673079 0.230120 0.157048
C17   C     C_R   0.118670 0.686337 0.026549 -0.167099
C18   C     C_R   0.881330 0.313663 0.973451 -0.167099
C19   C     C_R   0.188472 0.714264 0.104331 -0.114046
C20   C     C_R   0.811528 0.285735 0.895669 -0.114046
C21   C     C_R   0.200911 0.650839 0.169585 -0.063954
C22   C     C_R   0.799089 0.349161 0.830415 -0.063957
C23   C     C_R   0.142591 0.559152 0.157674 -0.138408
C24   C     C_R   0.857409 0.440848 0.842326 -0.138407
C25   C     C_R   0.073239 0.528357 0.078990 0.063368
C26   C     C_R   0.926761 0.471643 0.921010 0.063368
C27   C     C_R   0.060863 0.593213 0.012111 0.057448
C28   C     C_R   0.939137 0.406787 0.987889 0.057448
C29   C     C_R   0.012517 0.435244 0.066749 -0.177987
C30   C     C_R   0.987483 0.564756 0.933251 -0.177987
H7    H     H_    0.108087 0.739090 0.978589 0.122245
H8    H     H_    0.891913 0.260910 0.021411 0.122245
H9    H     H_    0.230985 0.785800 0.114290 0.129617
H10   H     H_    0.769015 0.214199 0.885710 0.129617
H11   H     H_    0.151077 0.513275 0.211136 0.099308
H12   H     H_    0.848923 0.486725 0.788863 0.099308
C31   C     C_3   0.425288 0.963163 0.431163 0.040800
C32   C     C_3   0.574713 0.036837 0.568837 0.040800
C33   C     C_3   0.598879 0.922706 0.479592 -0.168796
C34   C     C_3   0.401121 0.077293 0.520408 -0.168796
H13   H     H_    0.677561 0.857958 0.463450 0.164242
H14   H     H_    0.322440 0.142042 0.536550 0.164241
C35   C     C_3   0.488799 0.938297 0.562854 -0.084956
C36   C     C_3   0.511201 0.061703 0.437146 -0.084955
C37   C     C_3   0.313995 0.977731 0.514177 -0.173731
C38   C     C_3   0.686006 0.022268 0.485823 -0.173730
H15   H     H_    0.160455 0.959729 0.525104 0.134697
H16   H     H_    0.839546 0.040271 0.474896 0.134697
C39   C     C_R   0.380640 0.185888 0.973093 -0.183764
C40   C     C_R   0.619360 0.814112 0.026907 -0.183764
C41   C     C_R   0.305169 0.212951 0.896205 -0.171054
C42   C     C_R   0.694830 0.787049 0.103795 -0.171054
C43   C     C_R   0.282300 0.148284 0.831668 0.011617
C44   C     C_R   0.717700 0.851715 0.168332 0.011616
C45   C     C_R   0.342070 0.056347 0.844450 -0.183798
C46   C     C_R   0.657929 0.943653 0.155550 -0.183798
C47   C     C_R   0.420827 0.027081 0.921813 0.046331
C48   C     C_R   0.579172 0.972919 0.078187 0.046331
C49   C     C_R   0.437251 0.092863 0.987979 0.063244
C50   C     C_R   0.562748 0.907137 0.012021 0.063244
C51   C     C_R   0.485821 0.934338 0.933457 -0.169897
C52   C     C_R   0.514178 0.065661 0.066543 -0.169897
H17   H     H_    0.396248 0.239423 0.020172 0.125804
H18   H     H_    0.603751 0.760576 0.979828 0.125804
H19   H     H_    0.263509 0.284868 0.887521 0.165005
H20   H     H_    0.736491 0.715132 0.112479 0.165005
H21   H     H_    0.328503 0.008357 0.792729 0.162594
H22   H     H_    0.671496 0.991642 0.207271 0.162594
C53   C     C_2   0.804994 0.823898 0.249201 0.764018
O21   O     O_2   0.835003 0.741879 0.264516 -0.563942
O22   O     O_R   0.855487 0.891742 0.307896 -0.673146
H23   H     H_    0.918823 0.864377 0.359386 0.311925
C54   C     C_2   0.195008 0.176102 0.750798 0.764020
O23   O     O_2   0.165003 0.258121 0.735483 -0.563943
O24   O     O_R   0.144513 0.108259 0.692104 -0.673147
H24   H     H_    0.081180 0.135624 0.640614 0.311924
O25   O     O_3   0.774367 0.645774 0.456393 -0.640557
H25   H     H_    0.719146 0.629758 0.401051 0.311690
O26   O     O_3   0.225634 0.354226 0.543607 -0.640556
H26   H     H_    0.280851 0.370241 0.598950 0.311691
C55   C     C_2   0.341292 0.917579 0.355182 0.734895
O27   O     O_2   0.302855 0.834737 0.357018 -0.562467
O28   O     O_R   0.306656 0.969582 0.282945 -0.668220
H27   H     H_    0.249912 0.930835 0.236029 0.294268
C56   C     C_2   0.658708 0.082420 0.644818 0.734896
O29   O     O_2   0.697145 0.165262 0.642982 -0.562467
O30   O     O_R   0.693344 0.030418 0.717054 -0.668220
H28   H     H_    0.750087 0.069165 0.763971 0.294268

loop_
_geom_bond_atom_site_label_1
_geom_bond_atom_site_label_2
_ccdc_geom_bond_type
O22   H23   S    
C19   H9    S    
C25   C29   A    
C20   H10   S    
C12   C14   S    
C55   O27   D    
O4    C2    A    
V1    O19   S    
C17   C19   A    
C5    C29   S    
O9    V1    S    
C9    H3    S    
C36   C38   S    
C10   H4    S    
C9    C14   S    
C11   H1    S    
C44   C46   A    
C39   H17   S    
O3    C1    A    
C41   H19   S    
C46   C48   A    
O12   V4    S    
C56   O29   D    
C8    C13   S    
O13   V3    S    
C33   C38   S    
C33   H13   S    
O7    C3    A    
C9    C11   S    
O5    C7    A    
O7    V1    S    
O6    C8    A    
C55   O28   S    
C48   C52   A    
O8    V2    S    
C56   O30   S    
C34   C36   S    
C20   C22   A    
O25   H25   S    
C33   C35   S    
O14   V4    S    
C23   H11   S    
C10   C12   S    
C16   O26   S    
C18   C20   A    
C2    O12   A    
C13   C15   S    
C10   C13   S    
C14   C16   S    
C11   C13   S    
C41   C43   A    
C22   C24   A    
O11   V3    S    
C1    C36   S    
C23   C25   A    
O17   V3    S    
C24   C26   A    
C42   H20   S    
C47   C51   A    
C45   C47   A    
C9    C15   S    
C10   C16   S    
C40   C42   A    
O8    C4    A    
C46   H22   S    
C39   C41   A    
C27   C30   A    
C1    O11   A    
H5    C22   S    
C19   C21   A    
C28   C29   A    
O15   V3    S    
H6    C21   S    
C26   C30   A    
C21   C23   A    
C17   C27   A    
C18   H8    S    
C53   O21   D    
C6    C30   S    
O10   V2    S    
O1    V3    S    
C54   O24   S    
C31   C36   S    
C15   O25   S    
C32   C38   S    
C49   C52   A    
O3    V1    S    
C11   C16   S    
C37   H15   S    
C43   C54   S    
C24   H12   S    
C31   C55   S    
C43   C45   A    
C48   C50   A    
O18   V4    S    
C42   C44   A    
C25   C27   A    
C3    C52   S    
O16   C6    A    
C31   C37   S    
C35   C37   S    
C40   H18   S    
C12   H2    S    
C34   C37   S    
O28   H27   S    
V2    O20   S    
O16   V4    S    
C53   O22   S    
C44   C53   S    
C38   H16   S    
C17   H7    S    
C18   C28   A    
O5    V1    S    
O17   C7    A    
O6    V2    S    
O24   H24   S    
O10   C6    A    
O18   C8    A    
O2    V4    S    
O15   C5    A    
C32   C35   S    
V3    O19   S    
O30   H28   S    
V4    O20   S    
C7    C14   S    
C50   C51   A    
O9    C5    A    
C2    C35   S    
O13   V1    S    
C26   C28   A    
O14   V2    S    
C40   C50   A    
O2    C4    A    
C4    C51   S    
C39   C49   A    
C45   H21   S    
C32   C56   S    
O4    V2    S    
O1    C3    A    
C32   C34   S    
C54   O23   D    
C47   C49   A    
C12   C15   S    
C34   H14   S    
C31   C33   S    
O26   H26   S    
