data_mof_unit_30383.cif
_audit_creation_date              2012-12-11T15:57:34-0500
_audit_creation_method            fapswitch 2.2
_symmetry_space_group_name_H-M    P1
_symmetry_Int_Tables_number       1
_space_group_crystal_system       triclinic
_cell_length_a                    10.807828
_cell_length_b                    10.699023
_cell_length_c                    16.874934
_cell_angle_alpha                 99.611725
_cell_angle_beta                  100.06339
_cell_angle_gamma                 61.502127
_cell_volume                      1680.591094

loop_
_atom_site_label
_atom_site_type_symbol
_atom_type_description
_atom_site_fract_x
_atom_site_fract_y
_atom_site_fract_z
_atom_type_partial_charge
C1    C     C_R   0.356289 0.771252 0.399416 0.541549
C2    C     C_2   0.328793 0.342229 0.826094 -0.118865
C3    C     C_2   0.454136 0.333754 0.818858 0.031381
C4    C     C_R   0.366083 0.342562 0.358687 0.570063
C5    C     C_2   0.495301 0.301146 0.736329 -0.022446
C6    C     C_1   0.849944 0.327327 0.704450 -0.039646
C7    C     C_1   0.897988 0.291655 0.771187 -0.021535
C8    C     C_1   0.359164 0.763515 0.713979 -0.038050
C9    C     C_1   0.325270 0.810435 0.780825 -0.029252
C10   C     C_R   0.890428 0.307588 0.086475 0.558283
C11   C     C_R   0.291214 0.259846 0.121543 0.578953
C12   C     C_2   0.806609 0.327800 0.153855 -0.012384
C13   C     C_R   0.298022 0.886208 0.080998 0.578087
C14   C     C_R   0.946348 0.272113 0.854121 0.587808
C15   C     C_R   0.306746 0.294739 0.894653 0.603167
C16   C     C_R   0.777256 0.374656 0.404262 0.548359
C17   C     C_R   0.279933 0.880762 0.857491 0.547262
C18   C     C_R   0.381466 0.714554 0.631474 0.532354
C19   C     C_R   0.414809 0.382001 0.597024 0.566377
C20   C     C_R   0.778858 0.378184 0.628553 0.542528
C21   C     C_1   0.324340 0.315169 0.276901 -0.035351
C22   C     C_1   0.304748 0.290035 0.205923 -0.041922
C23   C     C_2   0.826920 0.209610 0.187957 0.058519
C24   C     C_2   0.847017 0.320579 0.329553 -0.096064
C25   C     C_3   0.827167 0.080484 0.130578 -0.244855
C26   C     C_3   0.723311 0.029763 0.144432 -0.445639
C27   C     C_3   0.612121 0.153777 0.710476 -0.244055
C28   C     C_3   0.686847 0.053674 0.777601 -0.427499
C29   C     C_3   0.877164 0.072630 0.316768 -0.215797
C30   C     C_3   0.759771 0.045947 0.336879 -0.392173
C31   C     C_3   0.686496 0.475167 0.175384 -0.303284
C32   C     C_3   0.552766 0.469154 0.190566 -0.417287
C33   C     C_2   0.198082 0.874835 0.275691 0.524653
C34   C     C_2   0.836077 0.211071 0.279400 0.035662
C35   C     C_2   0.548092 0.357226 0.888731 0.573708
C36   C     C_2   0.334735 0.835536 0.325413 0.062094
C37   C     C_2   0.364296 0.804156 0.149537 -0.078143
C38   C     C_2   0.439794 0.847604 0.209866 -0.151814
C39   C     C_2   0.446720 0.826003 0.294664 -0.183601
C40   C     C_2   0.408015 0.397069 0.683835 -0.129131
Cr1   Cr    Cr6+3 0.608020 0.610770 0.522990 1.021793
Cr2   Cr    Cr6+3 0.289390 0.599570 0.488050 1.042850
Cr3   Cr    Cr6+3 0.602610 0.289690 0.489020 0.972086
Cr4   Cr    Cr6+3 0.053780 0.052210 0.965970 1.010491
Cr5   Cr    Cr6+3 0.060060 0.372530 0.992430 1.042436
Cr6   Cr    Cr6+3 0.372600 0.061970 0.991430 1.005971
H1    H     H_    0.254986 0.345562 0.772613 0.074561
H2    H     H_    0.789904 0.110097 0.067718 0.178537
H3    H     H_    0.935599 0.990116 0.131000 0.185994
H4    H     H_    0.742608 0.097608 0.826085 0.201009
H5    H     H_    0.766736 0.948800 0.752142 0.140026
H6    H     H_    0.609552 0.035747 0.803472 0.170474
H7    H     H_    0.565099 0.098217 0.663385 0.179693
H8    H     H_    0.692992 0.165976 0.684880 0.179331
H9    H     H_    0.659114 0.108073 0.300916 0.178348
H10   H     H_    0.787178 0.931006 0.322733 0.106364
H11   H     H_    0.748893 0.068610 0.402493 0.194459
H12   H     H_    0.323514 0.497171 0.707102 0.088721
H13   H     H_    0.930926 0.983609 0.273142 0.194049
H14   H     H_    0.955885 0.059944 0.370973 0.161155
H15   H     H_    0.485047 0.470055 0.132871 0.179153
H16   H     H_    0.574973 0.374657 0.220041 0.163965
H17   H     H_    0.492237 0.561105 0.232705 0.154106
H18   H     H_    0.719911 0.533461 0.227863 0.143022
H19   H     H_    0.656649 0.541902 0.124626 0.156889
H20   H     H_    0.077024 0.792403 0.204901 0.312208
H21   H     H_    0.600425 0.372722 0.009078 0.326626
H22   H     H_    0.877794 0.390295 0.308082 0.094906
H23   H     H_    0.481221 0.917682 0.199796 0.148867
H24   H     H_    0.547478 0.798627 0.331600 0.136930
H25   H     H_    0.326336 0.730613 0.157396 0.130924
H26   H     H_    0.775512 0.938225 0.181509 0.125358
H27   H     H_    0.632352 0.119441 0.172116 0.188463
H28   H     H_    0.682897 0.989660 0.085905 0.165159
O1    O     O_R   0.749250 0.499990 0.439200 -0.509025
O2    O     O_R   0.411120 0.181190 0.091480 -0.525805
O3    O     O_R   0.364220 0.944920 0.062310 -0.521608
O4    O     O_R   0.477870 0.725740 0.440280 -0.508459
O5    O     O_R   0.158740 0.906940 0.874970 -0.519853
O6    O     O_R   0.930920 0.176940 0.885610 -0.480075
O7    O     O_R   0.910730 0.394510 0.895320 -0.468774
O8    O     O_R   0.185840 0.361180 0.920280 -0.513925
O9    O     O_R   0.399210 0.173040 0.915160 -0.485850
O10   O     O_R   0.353170 0.937370 0.898860 -0.498741
O11   O     O_3   0.162150 0.162240 0.983280 -0.302117
O12   O     O_R   0.299400 0.468710 0.556310 -0.502315
O13   O     O_R   0.260770 0.742210 0.412610 -0.469402
O14   O     O_R   0.297990 0.466320 0.394220 -0.466925
O15   O     O_R   0.487720 0.253870 0.385870 -0.542155
O16   O     O_R   0.721940 0.304340 0.422320 -0.499750
O17   O     O_R   0.750770 0.502570 0.614050 -0.500681
O18   O     O_R   0.479280 0.728140 0.602370 -0.483982
O19   O     O_R   0.262290 0.744790 0.587460 -0.514083
O20   O     O_2   0.138271 0.988546 0.245704 -0.557114
O21   O     O_R   0.150338 0.771512 0.253880 -0.707461
O22   O     O_2   0.640581 0.383907 0.876419 -0.500211
O23   O     O_R   0.489240 0.256450 0.560730 -0.519984
O24   O     O_R   0.528401 0.355461 0.968115 -0.694191
O25   O     O_R   0.723350 0.306730 0.584410 -0.532159
O26   O     O_3   0.500010 0.500010 0.500020 -0.292022
O27   O     O_R   0.170650 0.915100 0.051290 -0.501266
O28   O     O_R   0.941960 0.184500 0.049060 -0.502095
O29   O     O_R   0.922640 0.402670 0.071640 -0.507306
O30   O     O_R   0.196880 0.368740 0.083740 -0.479612

loop_
_geom_bond_atom_site_label_1
_geom_bond_atom_site_label_2
_ccdc_geom_bond_type
C1    O13   A    
C16   O16   A    
Cr2   O19   S    
C26   H26   S    
Cr5   O8    S    
C19   O12   A    
C33   O20   D    
C26   H27   S    
Cr6   O2    S    
C19   O23   A    
C27   H8    S    
C35   O22   D    
C12   C23   D    
C37   C38   D    
C10   O29   A    
Cr3   O25   S    
C32   H15   S    
C11   O2    A    
C38   C39   S    
C28   H5    S    
C16   O1    A    
C30   H11   S    
C17   O5    A    
C33   C36   S    
Cr5   O29   S    
H21   O24   S    
C5    C27   S    
C28   H4    S    
C7    C14   S    
C29   H13   S    
C8    C9    T    
C24   C34   D    
C11   O30   A    
Cr2   O12   S    
C14   O6    A    
C35   O24   S    
C13   C37   S    
Cr6   O11   S    
C38   H23   S    
C16   C24   S    
C21   C22   T    
C1    O4    A    
C33   O21   S    
C15   O8    A    
C36   C39   D    
C20   O17   A    
C13   O3    A    
Cr3   O16   S    
C40   H12   S    
Cr4   O6    S    
Cr3   O26   S    
Cr1   O4    S    
Cr4   O28   S    
C15   O9    A    
C25   C26   S    
C30   H10   S    
C29   C34   S    
C8    C18   S    
Cr5   O11   S    
C29   C30   S    
Cr5   O30   S    
Cr2   O26   S    
Cr1   O1    S    
C31   C32   S    
C29   H14   S    
C3    C35   S    
C23   C34   S    
Cr1   O26   S    
Cr3   O15   S    
C2    C15   S    
C25   H2    S    
C10   C12   S    
Cr6   O10   S    
C9    C17   S    
Cr1   O17   S    
C37   H25   S    
C12   C31   S    
Cr2   O14   S    
C13   O27   A    
Cr4   O11   S    
C4    O15   A    
C31   H19   S    
C31   H18   S    
Cr4   O5    S    
Cr5   O7    S    
Cr3   O23   S    
C32   H17   S    
C3    C5    S    
Cr6   O3    S    
Cr4   O27   S    
C27   H7    S    
C6    C7    T    
C4    O14   A    
C2    H1    S    
C6    C20   S    
C30   H9    S    
C11   C22   S    
C17   O10   A    
C18   O18   A    
C2    C3    D    
C32   H16   S    
C4    C21   S    
C28   H6    S    
C20   O25   A    
C10   O28   A    
C26   H28   S    
C39   H24   S    
C23   C25   S    
C25   H3    S    
C19   C40   S    
C24   H22   S    
Cr6   O9    S    
Cr1   O18   S    
C5    C40   D    
C27   C28   S    
C18   O19   A    
Cr2   O13   S    
C14   O7    A    
C1    C36   S    
H20   O21   S    
