data_mof_unit_44682.cif
_audit_creation_date              2012-12-11T14:08:10-0500
_audit_creation_method            fapswitch 2.2
_symmetry_space_group_name_H-M    P1
_symmetry_Int_Tables_number       1
_space_group_crystal_system       triclinic
_cell_length_a                    10.934976
_cell_length_b                    10.942669
_cell_length_c                    18.646438
_cell_angle_alpha                 90.035548
_cell_angle_beta                  89.996802
_cell_angle_gamma                 60.447006
_cell_volume                      1940.91324536

loop_
_atom_site_label
_atom_site_type_symbol
_atom_type_description
_atom_site_fract_x
_atom_site_fract_y
_atom_site_fract_z
_atom_type_partial_charge
C1    C     C_R   0.233076 0.646432 0.607654 0.532949
C2    C     C_2   0.782222 0.155544 0.707191 -0.176080
C3    C     C_2   0.167648 0.665591 0.677902 -0.120288
C4    C     C_R   0.652638 0.620290 0.602026 0.537018
C5    C     C_2   0.190473 0.663157 0.838123 0.225583
C6    C     C_2   0.178377 0.566744 0.797836 -0.180935
C7    C     C_2   0.204161 0.552889 0.720164 -0.193466
C8    C     C_2   0.649508 0.647278 0.317247 -0.119718
C9    C     C_2   0.634523 0.662540 0.159437 -0.033949
C10   C     C_2   0.705418 0.541762 0.195703 0.206180
C11   C     C_2   0.681978 0.538391 0.272790 -0.149789
C12   C     C_3   0.685299 0.542939 0.801569 -0.248141
C13   C     C_2   0.600107 0.260302 0.312987 -0.040919
C14   C     C_2   0.633194 0.209486 0.161086 -0.125925
C15   C     C_2   0.511583 0.250681 0.194838 -0.153122
C16   C     C_R   0.628257 0.227597 0.601971 0.554021
C17   C     C_2   0.489561 0.303615 0.268589 0.203644
C18   C     C_2   0.097128 0.699126 0.352269 0.048596
C19   C     C_2   0.048800 0.723445 0.195317 -0.118586
C20   C     C_2   0.993846 0.832222 0.240794 -0.172632
C21   C     C_2   0.055775 0.817574 0.312782 0.240282
C22   C     C_R   0.702863 0.103420 0.897870 0.549486
C23   C     C_3   0.692894 0.678950 0.812903 0.076800
C24   C     C_R   0.722046 0.689071 0.888679 0.538010
C25   C     C_R   0.116927 0.707318 0.906647 0.603303
C26   C     C_R   0.673120 0.113935 0.101339 0.555050
C27   C     C_R   0.692483 0.687789 0.094527 0.572832
C28   C     C_R   0.212061 0.654043 0.405163 0.612922
C29   C     C_R   0.023751 0.748237 0.119242 0.564547
C30   C     C_R   0.641754 0.622278 0.392980 0.544710
C31   C     C_R   0.579325 0.295732 0.387983 0.610533
C32   C     C_3   0.550279 0.808899 0.783561 0.220702
C33   C     C_3   0.537188 0.782627 0.703319 -0.130765
C34   C     C_3   0.667155 0.646105 0.677257 0.011617
C35   C     C_3   0.821674 0.664917 0.769570 -0.250707
C36   C     C_3   0.538014 0.955582 0.790567 -0.314368
C37   C     C_3   0.021738 0.614357 0.347179 -0.418447
C38   C     C_3   0.799646 0.658812 0.689002 -0.270414
C39   C     C_3   0.676629 0.520476 0.721190 -0.227330
C40   C     C_2   0.675172 0.157231 0.671064 -0.124519
C41   C     C_2   0.688745 0.169639 0.828254 -0.129849
C42   C     C_2   0.800438 0.124547 0.784423 -0.175168
Cr1   Cr    Cr6+3 0.393010 0.398050 0.501480 1.040334
Cr2   Cr    Cr6+3 0.398820 0.707980 0.501630 1.050448
Cr3   Cr    Cr6+3 0.708140 0.393940 0.496850 1.024875
Cr4   Cr    Cr6+3 0.937950 0.938450 0.008940 1.047632
Cr5   Cr    Cr6+3 0.626180 0.937030 0.994750 1.002754
Cr6   Cr    Cr6+3 0.937790 0.625760 0.001410 1.038860
H1    H     H_    0.772279 0.421770 0.705208 0.147063
H2    H     H_    0.109080 0.771415 0.699469 0.153852
H3    H     H_    0.706356 0.437024 0.294687 0.129570
H4    H     H_    0.545116 0.752543 0.183782 0.066903
H5    H     H_    0.624153 0.750921 0.298344 0.089005
H6    H     H_    0.431036 0.232357 0.171379 0.153674
H7    H     H_    0.711271 0.233851 0.181889 0.111439
H8    H     H_    0.707590 0.193068 0.295294 0.039821
H9    H     H_    0.924649 0.937446 0.220470 0.118389
H10   H     H_    0.440258 0.774978 0.694819 0.186885
H11   H     H_    0.122791 0.618129 0.213083 0.114765
H12   H     H_    0.917133 0.565603 0.784934 0.141793
H13   H     H_    0.525383 0.870402 0.668393 0.094765
H14   H     H_    0.844163 0.751323 0.781777 0.116210
H15   H     H_    0.787401 0.755500 0.662659 0.118254
H16   H     H_    0.779863 0.450090 0.824006 0.135272
H17   H     H_    0.592331 0.549648 0.829572 0.155834
H18   H     H_    0.583827 0.506932 0.710275 0.119280
H19   H     H_    0.640955 0.950598 0.785322 0.109268
H20   H     H_    0.465114 0.031083 0.750266 0.098386
H21   H     H_    0.487048 0.004539 0.841817 0.193242
H22   H     H_    0.326078 0.677638 0.778020 0.344416
H23   H     H_    0.893890 0.567464 0.665287 0.147175
H24   H     H_    0.437854 0.830253 0.870674 0.354982
H25   H     H_    0.854823 0.346722 0.197712 0.311696
H26   H     H_    0.288492 0.398996 0.255156 0.308055
H27   H     H_    0.055942 0.993921 0.298614 0.320386
H28   H     H_    0.928417 0.663687 0.311519 0.124218
H29   H     H_    0.093265 0.506507 0.327995 0.171373
H30   H     H_    0.983315 0.607131 0.401273 0.139131
H31   H     H_    0.906549 0.058994 0.804495 0.178526
H32   H     H_    0.855629 0.180253 0.680566 0.153611
H33   H     H_    0.583086 0.236055 0.807733 0.105719
H34   H     H_    0.607451 0.124592 0.697193 0.099406
H35   H     H_    0.142774 0.499313 0.821651 0.123726
H36   H     H_    0.259862 0.446981 0.698518 0.158424
O1    O     O_R   0.507110 0.256280 0.580300 -0.520114
O2    O     O_R   0.837080 0.593860 0.915300 -0.524975
O3    O     O_R   0.064770 0.636080 0.932550 -0.535987
O4    O     O_R   0.280830 0.527190 0.577940 -0.508513
O5    O     O_R   0.068250 0.829200 0.092940 -0.496197
O6    O     O_R   0.799650 0.057040 0.080330 -0.513212
O7    O     O_R   0.586130 0.079760 0.077080 -0.509988
O8    O     O_R   0.627700 0.809630 0.066580 -0.515619
O9    O     O_R   0.816140 0.597180 0.075920 -0.442924
O10   O     O_R   0.045360 0.639170 0.081440 -0.494171
O11   O     O_3   0.833980 0.833750 0.001700 -0.285275
O12   O     O_R   0.524640 0.695370 0.425100 -0.479866
O13   O     O_R   0.261360 0.738990 0.584270 -0.516889
O14   O     O_R   0.532590 0.694780 0.574370 -0.517337
O15   O     O_R   0.744470 0.503750 0.577000 -0.522763
O16   O     O_R   0.698520 0.277230 0.571620 -0.492527
O17   O     O_R   0.498530 0.256920 0.419280 -0.459150
O18   O     O_R   0.272880 0.527780 0.428680 -0.489164
O19   O     O_R   0.252780 0.739630 0.423250 -0.443125
O20   O     O_3   0.250725 0.738541 0.812062 -0.659623
O21   O     O_3   0.433527 0.815180 0.818634 -0.684701
O22   O     O_3   0.806401 0.421829 0.161493 -0.670056
O23   O     O_R   0.735890 0.504390 0.415980 -0.520891
O24   O     O_3   0.354897 0.384487 0.294636 -0.689466
O25   O     O_3   0.089264 0.918247 0.335077 -0.661249
O26   O     O_R   0.690560 0.277820 0.422350 -0.512395
O27   O     O_3   0.499990 0.499990 0.499980 -0.286367
O28   O     O_R   0.089190 0.825870 0.932320 -0.466026
O29   O     O_R   0.819070 0.053960 0.931440 -0.488931
O30   O     O_R   0.607070 0.076440 0.916460 -0.537912
O31   O     O_R   0.647110 0.806550 0.917690 -0.527676

loop_
_geom_bond_atom_site_label_1
_geom_bond_atom_site_label_2
_ccdc_geom_bond_type
Cr5   O30   S    
C33   H10   S    
Cr6   O11   S    
C4    O14   A    
C30   O23   A    
C18   C21   D    
C41   C42   D    
C19   C20   D    
C29   O5    A    
C36   H19   S    
Cr4   O5    S    
Cr5   O31   S    
C12   C23   S    
Cr6   O10   S    
Cr1   O4    S    
C31   O17   A    
C18   C37   S    
Cr4   O28   S    
C2    H32   S    
C29   O10   A    
C12   H16   S    
H22   O20   S    
C22   C41   S    
C25   O3    A    
Cr5   O8    S    
C30   O12   A    
C25   O28   A    
Cr2   O14   S    
C3    H2    S    
C22   O29   A    
Cr4   O11   S    
C23   C24   S    
C9    C10   D    
C13   H8    S    
C1    O4    A    
C7    H36   S    
C5    O20   S    
C42   H31   S    
C9    H4    S    
Cr1   O27   S    
Cr2   O19   S    
C4    C34   S    
H27   O25   S    
Cr6   O9    S    
C34   C39   S    
Cr1   O1    S    
C15   H6    S    
C40   H34   S    
C35   C38   S    
C18   C28   S    
Cr3   O15   S    
C17   O24   S    
C1    O13   A    
Cr3   O26   S    
C16   O16   A    
C19   H11   S    
C26   O7    A    
C37   H29   S    
C35   H12   S    
C1    C3    S    
Cr1   O17   S    
Cr2   O12   S    
C2    C40   D    
Cr2   O13   S    
C41   H33   S    
C20   C21   S    
Cr3   O27   S    
C33   C34   S    
Cr6   O3    S    
C27   O8    A    
C14   C26   S    
C16   C40   S    
C5    C25   S    
C39   H1    S    
C37   H28   S    
C23   C35   S    
C32   O21   S    
C16   O1    A    
C39   H18   S    
Cr6   O2    S    
C27   O9    A    
C19   C29   S    
C32   C36   S    
C36   H21   S    
C9    C27   S    
C38   H15   S    
C12   H17   S    
C15   C17   S    
C38   H23   S    
C6    H35   S    
Cr4   O29   S    
C34   C38   S    
Cr5   O7    S    
C13   C31   S    
Cr3   O16   S    
C8    H5    S    
C21   O25   S    
C36   H20   S    
C6    C7    S    
Cr4   O6    S    
C26   O6    A    
C37   H30   S    
C3    C7    D    
C13   C17   D    
C8    C30   S    
C23   C32   S    
C12   C39   S    
Cr1   O18   S    
C32   C33   S    
C28   O19   A    
H25   O22   S    
C5    C6    D    
C2    C42   S    
C8    C11   D    
C31   O26   A    
C14   H7    S    
C35   H14   S    
C11   H3    S    
C10   C11   S    
H26   O24   S    
Cr2   O27   S    
C28   O18   A    
C22   O30   A    
H24   O21   S    
C24   O31   A    
C33   H13   S    
C4    O15   A    
C10   O22   S    
Cr5   O11   S    
C14   C15   D    
C20   H9    S    
C24   O2    A    
Cr3   O23   S    
