data_mof_unit_25879.cif
_audit_creation_date              2012-12-10T18:14:41-0500
_audit_creation_method            fapswitch 2.2
_symmetry_space_group_name_H-M    P1
_symmetry_Int_Tables_number       1
_space_group_crystal_system       triclinic
_cell_length_a                    11.184722
_cell_length_b                    9.903917
_cell_length_c                    27.444612
_cell_angle_alpha                 88.686864
_cell_angle_beta                  90.174329
_cell_angle_gamma                 90.10477
_cell_volume                      3039.29272368

loop_
_atom_site_label
_atom_site_type_symbol
_atom_type_description
_atom_site_fract_x
_atom_site_fract_y
_atom_site_fract_z
_atom_type_partial_charge
C1    C     C_R   0.259993 0.499059 0.500301 0.833039
C2    C     C_R   0.357451 0.549591 0.285845 -0.074614
C3    C     C_R   0.446398 0.510468 0.253433 0.257645
C4    C     C_R   0.364985 0.480667 0.103284 -0.044428
C5    C     C_R   0.354085 0.605036 0.126891 -0.006439
C6    C     C_R   0.317707 0.720035 0.100344 -0.109020
C7    C     C_R   0.394282 0.362528 0.130739 -0.088418
C8    C     C_R   0.489694 0.508166 0.354469 -0.067950
C9    C     C_R   0.479110 0.491357 0.646832 -0.125008
C10   C     C_R   0.305018 0.589496 0.973412 0.036559
C11   C     C_R   0.386424 0.359818 0.976307 0.064678
C12   C     C_R   0.501839 0.501834 0.407966 0.830507
C13   C     C_R   0.348795 0.474941 0.949116 0.073871
C14   C     C_R   0.257580 0.697495 0.944970 -0.165770
C15   C     C_R   0.260977 0.696362 0.894356 -0.091090
C16   C     C_R   0.313018 0.588484 0.870190 -0.034984
C17   C     C_R   0.357697 0.476913 0.897424 -0.043522
C18   C     C_R   0.413208 0.369117 0.873104 -0.093417
C19   C     C_R   0.416716 0.374641 0.821478 0.604808
C20   C     C_R   0.323277 0.591046 0.819245 0.604509
C21   C     C_R   0.341204 0.412415 0.710963 0.011832
C22   C     C_R   0.385034 0.408767 0.663284 -0.182589
C23   C     C_R   0.737892 0.500214 0.499022 0.767794
C24   C     C_R   0.543318 0.564150 0.682430 -0.170843
C25   C     C_R   0.496808 0.573576 0.729614 -0.170373
C26   C     C_R   0.397970 0.497004 0.744569 0.320648
C27   C     C_R   0.315353 0.594206 0.025031 0.057555
C28   C     C_R   0.349536 0.476069 0.052005 0.051682
C29   C     C_R   0.370554 0.354235 0.027780 0.027335
C30   C     C_R   0.296993 0.714427 0.050542 -0.193170
C31   C     C_R   0.394460 0.236109 0.107033 -0.078104
C32   C     C_R   0.449334 0.258723 0.951994 -0.160715
C33   C     C_R   0.464090 0.261875 0.901477 -0.021427
C34   C     C_R   0.501449 0.498212 0.592765 0.843910
C35   C     C_R   0.376126 0.231879 0.055955 -0.030543
C36   C     C_3   0.068010 0.617661 0.530650 -0.281575
C37   C     C_3   0.064554 0.363514 0.525456 -0.147112
C38   C     C_3   0.928696 0.638687 0.522022 -0.101671
C39   C     C_3   0.924271 0.369944 0.530520 -0.130457
C40   C     C_3   0.064531 0.501546 0.446086 -0.130467
C41   C     C_3   0.119086 0.495921 0.501009 -0.133594
C42   C     C_3   0.875333 0.499910 0.500723 -0.125134
C43   C     C_3   0.924090 0.489421 0.447953 -0.469598
C44   C     C_3   0.584717 0.077836 0.539275 -0.167806
C45   C     C_3   0.570110 0.915889 0.543918 -0.183630
C46   C     C_3   0.377170 0.081350 0.510082 0.008040
C47   C     C_3   0.375581 0.917573 0.501729 -0.019264
C48   C     C_3   0.549815 0.084224 0.453925 -0.156263
C49   C     C_3   0.571597 0.924454 0.458766 -0.156731
C50   C     C_R   0.381837 0.612737 0.176560 0.599714
C51   C     C_R   0.420899 0.376146 0.181129 0.568022
C52   C     C_R   0.562790 0.479826 0.271207 -0.030172
C53   C     C_R   0.583972 0.476830 0.322347 -0.161710
C54   C     C_R   0.380409 0.552715 0.335477 -0.093724
Cu1   Cu    Cu3+1 0.499860 0.642410 0.500020 1.009586
Cu2   Cu    Cu3+1 0.499860 0.357590 0.500020 0.987459
H1    H     H_    0.311668 0.588850 0.359449 0.215107
H2    H     H_    0.495007 0.179924 0.972666 0.156667
H3    H     H_    0.547296 0.625945 0.757246 0.168785
H4    H     H_    0.113316 0.705988 0.515572 0.209874
H5    H     H_    0.084584 0.287190 0.498570 0.080306
H6    H     H_    0.269459 0.577200 0.272440 0.184389
H7    H     H_    0.881306 0.566295 0.423967 0.241239
H8    H     H_    0.891656 0.395156 0.431446 0.182682
H9    H     H_    0.676391 0.090978 0.524360 0.146917
H10   H     H_    0.663301 0.876966 0.540136 0.155264
H11   H     H_    0.639107 0.132031 0.447731 0.157728
H12   H     H_    0.669026 0.919026 0.467518 0.143403
H13   H     H_    0.306230 0.815979 0.117900 0.186022
H14   H     H_    0.348836 0.336145 0.639150 0.216023
H15   H     H_    0.224344 0.782139 0.874201 0.207795
H16   H     H_    0.215567 0.783893 0.960810 0.173297
H17   H     H_    0.271822 0.807861 0.032622 0.158947
N1    N     N_R   0.416552 0.499887 0.202408 -0.450683
N2    N     N_R   0.374665 0.485492 0.796077 -0.448511
N3    N     N_3   0.500250 0.143650 0.501060 -0.237278
N4    N     N_3   0.500250 0.856350 0.501060 -0.234117
O1    O     O_R   0.317570 0.620260 0.500030 -0.602625
O2    O     O_R   0.317570 0.379740 0.500030 -0.579796
O3    O     O_R   0.499900 0.620250 0.430280 -0.534681
O4    O     O_R   0.499900 0.379750 0.430280 -0.508648
O5    O     O_R   0.682190 0.620260 0.500010 -0.560187
O6    O     O_R   0.682190 0.379740 0.500010 -0.635310
O7    O     O_R   0.499860 0.620280 0.569750 -0.576041
O8    O     O_R   0.499860 0.379720 0.569750 -0.624096
O9    O     O_2   0.376617 0.732897 0.198704 -0.506422
O10   O     O_2   0.283027 0.698592 0.792978 -0.488142
O11   O     O_2   0.452802 0.267840 0.208819 -0.511837
O12   O     O_2   0.460700 0.270363 0.796451 -0.498570
C55   C     C_2   0.661902 0.458390 0.236079 0.911065
O13   O     O_2   0.667301 0.526954 0.198506 -0.557521
O14   O     O_R   0.748366 0.359483 0.245537 -0.716236
H18   H     H_    0.810520 0.354954 0.218815 0.356779
C56   C     C_2   0.405294 0.107252 0.135433 0.438594
H19   H     H_    0.344025 0.084942 0.165140 0.127493
O15   O     O_2   0.484637 0.027082 0.126517 -0.505205
C57   C     C_2   0.673921 0.582954 0.679791 1.004626
O16   O     O_2   0.719414 0.687819 0.693350 -0.457567
O17   O     O_R   0.747773 0.473633 0.670366 -0.678017
H20   H     H_    0.701962 0.386095 0.666627 0.305238
C58   C     C_2   0.539698 0.154183 0.881297 0.942083
O18   O     O_2   0.628030 0.183550 0.857099 -0.520876
O19   O     O_R   0.513471 0.018953 0.892510 -0.742139
H21   H     H_    0.572276 0.954467 0.877396 0.347840
C59   C     C_2   0.343017 0.100679 0.033895 0.328932
H22   H     H_    0.384923 0.007507 0.046128 0.111697
O20   O     O_2   0.266044 0.095645 0.002316 -0.516845
C60   C     C_2   0.102807 0.611671 0.584646 0.537612
H23   H     H_    0.037757 0.590859 0.612897 0.147223
O21   O     O_2   0.206361 0.622109 0.597771 -0.528471
C61   C     C_2   0.121278 0.296470 0.569138 0.412200
H24   H     H_    0.107037 0.189063 0.575180 0.175365
O22   O     O_2   0.172552 0.359228 0.600181 -0.566794
C62   C     C_2   0.868010 0.690392 0.567793 0.367881
H25   H     H_    0.902399 0.781051 0.584538 0.167824
O23   O     O_2   0.781261 0.635852 0.586093 -0.547944
C63   C     C_2   0.874714 0.376791 0.582164 0.578003
H26   H     H_    0.779484 0.389976 0.586034 0.121319
O24   O     O_2   0.934679 0.366460 0.619226 -0.468295
C64   C     C_2   0.908753 0.758472 0.486386 0.312432
H27   H     H_    0.841012 0.755070 0.458351 0.160132
O25   O     O_2   0.962416 0.865075 0.491014 -0.518446
C65   C     C_2   0.879816 0.234246 0.511395 0.307092
H28   H     H_    0.836013 0.225799 0.476409 0.105127
O26   O     O_2   0.900512 0.129388 0.534209 -0.490271
C66   C     C_2   0.095031 0.632422 0.418938 0.456066
H29   H     H_    0.134847 0.714267 0.437547 0.095158
O27   O     O_2   0.068414 0.649578 0.375998 -0.472965
C67   C     C_2   0.108495 0.385072 0.415232 0.532409
H30   H     H_    0.068728 0.285403 0.419426 0.084416
O28   O     O_2   0.185675 0.400185 0.384298 -0.507174
C68   C     C_2   0.604389 0.141891 0.589125 0.895488
O29   O     O_2   0.706359 0.168279 0.601644 -0.583561
O30   O     O_R   0.514703 0.149644 0.624147 -0.725830
H31   H     H_    0.545024 0.182988 0.656598 0.342527
C69   C     C_2   0.548772 0.866430 0.596573 0.910674
O31   O     O_2   0.634854 0.825519 0.619825 -0.528442
O32   O     O_R   0.441717 0.882332 0.621477 -0.691653
H32   H     H_    0.445555 0.848447 0.656600 0.367189
C70   C     C_2   0.338567 0.132186 0.559980 0.393967
H33   H     H_    0.344601 0.237104 0.565877 0.157946
O33   O     O_2   0.300512 0.065096 0.594263 -0.456287
C71   C     C_2   0.300444 0.853033 0.540808 0.485106
H34   H     H_    0.336484 0.773498 0.563027 0.204690
O34   O     O_2   0.197387 0.889365 0.547526 -0.544489
C72   C     C_2   0.485011 0.114269 0.406111 0.534964
H35   H     H_    0.403079 0.062219 0.397222 0.110534
O35   O     O_2   0.532496 0.180190 0.373476 -0.557485
C73   C     C_2   0.579217 0.856046 0.409663 0.506394
H36   H     H_    0.508106 0.862362 0.382966 0.119067
O36   O     O_2   0.670946 0.799545 0.397297 -0.528125
C74   C     C_2   0.275328 0.137099 0.478637 0.230009
H37   H     H_    0.185029 0.108047 0.488667 0.096113
O37   O     O_2   0.288557 0.204286 0.441522 -0.515037
C75   C     C_2   0.305302 0.878708 0.455571 0.281526
H38   H     H_    0.215198 0.915617 0.449556 0.117004
O38   O     O_2   0.341264 0.798968 0.426212 -0.571040
C76   C     C_2   0.237569 0.325265 0.724039 0.526717
H39   H     H_    0.205937 0.250789 0.698572 0.124857
O39   O     O_2   0.184554 0.336993 0.762518 -0.493896
C77   C     C_2   0.707580 0.466106 0.341457 0.886143
O40   O     O_2   0.762513 0.569491 0.349676 -0.503064
O41   O     O_R   0.764550 0.341733 0.348348 -0.709841
H40   H     H_    0.715884 0.263572 0.335912 0.372640

loop_
_geom_bond_atom_site_label_1
_geom_bond_atom_site_label_2
_ccdc_geom_bond_type
C10   C27   A    
C71   H34   S    
C6    H13   S    
C46   C74   S    
Cu1   Cu2   S    
C66   H29   S    
Cu2   N3    S    
C23   O5    A    
C75   O38   D    
C21   C76   S    
C48   N3    S    
C52   C55   S    
C61   H24   S    
C51   N1    A    
C32   H2    S    
C21   C26   A    
C46   N3    S    
C62   H25   S    
C44   H9    S    
C43   H7    S    
C65   H28   S    
C52   C53   A    
C59   O20   D    
C58   O18   D    
C23   C42   S    
C23   O6    A    
C33   C58   S    
C27   C28   A    
C28   C29   A    
C49   H12   S    
C70   O33   D    
C67   H30   S    
C73   O36   D    
C5    C6    A    
C38   C62   S    
C9    C22   A    
C65   O26   D    
C36   C60   S    
C15   C16   A    
C20   O10   S    
C47   C71   S    
C39   C65   S    
C60   H23   S    
C18   C19   A    
C44   N3    S    
C3    N1    S    
C77   O41   S    
C40   C43   S    
O41   H40   S    
C49   N4    S    
C16   C17   A    
C48   C72   S    
C8    C12   S    
C38   C64   S    
C58   O19   S    
C21   C22   A    
C27   C30   A    
C76   O39   D    
C1    O1    A    
C36   C41   S    
C34   O7    A    
C4    C7    A    
C4    C28   A    
C64   O25   D    
C43   H8    S    
C57   O16   D    
C39   C42   S    
C72   O35   D    
C75   H38   S    
C7    C31   A    
C24   C57   S    
Cu2   O4    S    
C70   H33   S    
C69   O32   S    
C10   C14   A    
C8    C54   A    
Cu1   O1    S    
C69   O31   D    
C25   C26   A    
C39   C63   S    
C20   N2    A    
C34   O8    A    
C51   O11   S    
C19   O12   S    
C55   O14   S    
O17   H20   S    
C16   C20   A    
C40   C66   S    
C17   C18   A    
C61   O22   D    
C24   C25   A    
Cu1   O5    S    
C56   O15   D    
Cu2   O2    S    
C50   N1    A    
C68   O30   S    
C1    C41   S    
C40   C41   S    
C6    C30   A    
C74   O37   D    
C11   C32   A    
C31   C56   S    
C2    C54   A    
C76   H39   S    
C1    O2    A    
C31   C35   A    
C5    C50   A    
C42   C43   S    
C47   N4    S    
C30   H17   S    
C45   H10   S    
C64   H27   S    
Cu2   O6    S    
C46   C70   S    
C72   H35   S    
C71   O34   D    
C46   C47   S    
C48   C49   S    
C45   C69   S    
C66   O27   D    
C37   H5    S    
C14   H16   S    
C44   C45   S    
C4    C5    A    
C36   H4    S    
C10   C13   A    
C8    C53   A    
C62   O23   D    
C3    C52   A    
C9    C24   A    
C38   C42   S    
O30   H31   S    
C49   C73   S    
C44   C68   S    
C40   C67   S    
C15   H15   S    
C59   H22   S    
C29   C35   A    
Cu2   O8    S    
C13   C17   A    
C57   O17   S    
C32   C33   A    
C63   O24   D    
C2    C3    A    
C7    C51   A    
C37   C39   S    
C77   O40   D    
C73   H36   S    
Cu1   O3    S    
C11   C13   A    
C53   C77   S    
C55   O13   D    
C9    C34   S    
C47   C75   S    
C19   N2    A    
Cu1   N4    S    
C12   O3    A    
C36   C38   S    
O14   H18   S    
C60   O21   D    
C12   O4    A    
C68   O29   D    
C48   H11   S    
C37   C41   S    
C56   H19   S    
C18   C33   A    
C37   C61   S    
O32   H32   S    
C50   O9    S    
C74   H37   S    
C11   C29   A    
C26   N2    S    
O19   H21   S    
C14   C15   A    
C45   N4    S    
C35   C59   S    
C25   H3    S    
Cu1   O7    S    
C63   H26   S    
C22   H14   S    
C2    H6    S    
C67   O28   D    
C54   H1    S    
