data_mof_unit_18716.cif
_audit_creation_date              2012-12-10T17:27:53-0500
_audit_creation_method            fapswitch 2.2
_symmetry_space_group_name_H-M    P1
_symmetry_Int_Tables_number       1
_space_group_crystal_system       triclinic
_cell_length_a                    10.6436
_cell_length_b                    12.016786
_cell_length_c                    12.907999
_cell_angle_alpha                 93.617366
_cell_angle_beta                  91.871061
_cell_angle_gamma                 88.120549
_cell_volume                      1646.0073369

loop_
_atom_site_label
_atom_site_type_symbol
_atom_type_description
_atom_site_fract_x
_atom_site_fract_y
_atom_site_fract_z
_atom_type_partial_charge
C1    C     C_R   0.491219 0.521933 0.700497 0.971689
C2    C     C_R   0.942565 0.402767 0.454770 -0.135831
C3    C     C_R   0.873339 0.503887 0.470082 -0.299389
C4    C     C_R   0.935021 0.604636 0.496027 0.406793
C5    C     C_R   0.060220 0.599631 0.530840 0.430748
C6    C     C_R   0.125495 0.496057 0.525146 -0.266764
C7    C     C_R   0.481834 0.464237 0.189559 -0.158482
C8    C     C_R   0.479639 0.536158 0.812719 -0.375146
C9    C     C_R   0.554945 0.632736 0.970801 0.456375
C10   C     C_R   0.518516 0.634720 0.866285 0.357330
C11   C     C_R   0.434420 0.449730 0.868461 0.446195
C12   C     C_R   0.739327 0.500463 0.487531 0.979833
C13   C     C_R   0.437198 0.461738 0.977276 -0.204119
C14   C     C_R   0.516083 0.543435 0.026920 -0.188867
C15   C     C_R   0.549328 0.534522 0.131588 0.097885
C16   C     C_R   0.382595 0.401000 0.144792 -0.089729
C17   C     C_R   0.364388 0.394044 0.036319 0.599368
C18   C     C_R   0.403937 0.950858 0.389462 -0.309795
C19   C     C_R   0.410891 0.835399 0.398902 0.230169
C20   C     C_R   0.547212 0.858728 0.548299 0.198735
C21   C     C_R   0.550608 0.976698 0.536659 -0.155077
C22   C     C_R   0.470973 0.021762 0.459083 -0.011717
C23   C     C_R   0.497621 0.477712 0.300230 0.940329
C24   C     C_R   0.459566 0.137748 0.451559 -0.191534
C25   C     C_R   0.608492 0.168572 0.590282 0.570521
C26   C     C_R   0.627557 0.052040 0.598696 0.314292
C27   C     C_R   0.260268 0.499277 0.511538 0.897245
C28   C     C_R   0.895534 0.308299 0.396207 0.561211
C29   C     C_R   0.956377 0.204241 0.404031 -0.297452
C30   C     C_R   0.058674 0.192051 0.473009 0.047083
C31   C     C_R   0.110122 0.287075 0.525978 0.132621
C32   C     C_R   0.061800 0.395142 0.502475 -0.093435
H1    H     H_    0.397619 0.172838 0.393129 0.154477
H2    H     H_    0.347821 0.985178 0.326784 0.143475
H3    H     H_    0.918708 0.131597 0.361406 0.173264
N1    N     N_R   0.523130 0.207800 0.519340 -0.158734
N2    N     N_R   0.476870 0.792180 0.480660 -0.107305
O1    O     O_R   0.506170 0.421690 0.658830 -0.554251
O2    O     O_R   0.491330 0.609320 0.646410 -0.566500
O3    O     O_R   0.690660 0.406170 0.506210 -0.573983
O4    O     O_R   0.675810 0.593790 0.493790 -0.586469
O5    O     O_R   0.508670 0.390680 0.353590 -0.605251
O6    O     O_R   0.493830 0.578310 0.341170 -0.608950
O7    O     O_R   0.324190 0.406210 0.506210 -0.648528
O8    O     O_R   0.309340 0.593830 0.493790 -0.606604
Zn1   Zn    Zn3+2 0.509910 0.374720 0.508290 0.988226
Zn2   Zn    Zn3+2 0.490090 0.625280 0.491710 0.981507
O9    O     O_3   0.871825 0.707073 0.495486 -0.612833
C33   C     C_3   0.848172 0.733601 0.391192 -0.339825
H4    H     H_    0.936783 0.740797 0.349328 0.133923
H5    H     H_    0.796492 0.815153 0.390515 0.183300
H6    H     H_    0.788636 0.671346 0.347730 0.193501
O10   O     O_3   0.261574 0.340970 0.987793 -0.562432
C34   C     C_3   0.250208 0.230292 0.017111 -0.269222
H7    H     H_    0.173027 0.227162 0.072541 0.183898
H8    H     H_    0.338468 0.192918 0.050749 0.128243
H9    H     H_    0.223405 0.177159 0.946969 0.179567
O11   O     O_3   0.523454 0.732833 0.817297 -0.593926
C35   C     C_3   0.405268 0.788928 0.826284 -0.242910
H10   H     H_    0.382538 0.809176 0.909082 0.165735
H11   H     H_    0.329296 0.739430 0.786233 0.181126
H12   H     H_    0.408200 0.868982 0.788245 0.163910
O12   O     O_3   0.386926 0.355206 0.815985 -0.571857
C36   C     C_3   0.471219 0.263598 0.830657 -0.143516
H13   H     H_    0.571636 0.286667 0.830630 0.180615
H14   H     H_    0.453947 0.198750 0.767310 0.172971
H15   H     H_    0.455595 0.225396 0.904531 0.130266
O13   O     O_3   0.660798 0.245026 0.662653 -0.609246
C37   C     C_3   0.792470 0.247443 0.657196 -0.205970
H16   H     H_    0.827629 0.218332 0.580004 0.145716
H17   H     H_    0.837122 0.199119 0.719674 0.187336
H18   H     H_    0.821527 0.334900 0.672577 0.172220
O14   O     O_3   0.715126 0.015381 0.671544 -0.620562
C38   C     C_3   0.825970 0.976097 0.621581 -0.363420
H19   H     H_    0.809618 0.939252 0.541192 0.178745
H20   H     H_    0.871955 0.911001 0.668290 0.208891
H21   H     H_    0.893981 0.043066 0.619129 0.167694
N3    N     N_3   0.354298 0.762438 0.319712 -0.405753
H22   H     H_    0.313159 0.807733 0.260192 0.151795
H23   H     H_    0.282047 0.721332 0.351984 0.186854
N4    N     N_3   0.612844 0.806163 0.631030 -0.345130
H24   H     H_    0.706630 0.792173 0.612816 0.243176
H25   H     H_    0.605352 0.856041 0.699587 0.255886
O15   O     O_3   0.790074 0.316153 0.331444 -0.589360
C39   C     C_3   0.827320 0.352488 0.235711 -0.339810
H26   H     H_    0.863146 0.438633 0.244891 0.158370
H27   H     H_    0.744117 0.353783 0.181779 0.197974
H28   H     H_    0.899277 0.294378 0.199401 0.162569
N5    N     N_3   0.107202 0.082086 0.490423 -0.488063
H29   H     H_    0.201484 0.078024 0.470620 0.193719
H30   H     H_    0.103563 0.069562 0.569628 0.183733
N6    N     N_3   0.191481 0.270882 0.615479 -0.444570
H31   H     H_    0.277869 0.236724 0.591278 0.216017
H32   H     H_    0.206138 0.345929 0.658891 0.242789
O16   O     O_3   0.115667 0.688789 0.587448 -0.602524
C40   C     C_3   0.117682 0.785452 0.530897 -0.179637
H33   H     H_    0.116338 0.767790 0.445593 0.119224
H34   H     H_    0.205463 0.829656 0.552625 0.161735
H35   H     H_    0.038258 0.842915 0.552807 0.185608
N7    N     N_3   0.652846 0.593302 0.181129 -0.464351
H36   H     H_    0.731978 0.582660 0.135319 0.180475
H37   H     H_    0.627956 0.677647 0.194486 0.257489
N8    N     N_3   0.294411 0.351443 0.208643 -0.456243
H38   H     H_    0.341240 0.289764 0.249904 0.196869
H39   H     H_    0.257091 0.412786 0.261025 0.182171
O17   O     O_3   0.607596 0.726170 0.021076 -0.606466
C41   C     C_3   0.728433 0.741536 0.982898 -0.289024
H40   H     H_    0.721959 0.787093 0.910666 0.225625
H41   H     H_    0.783358 0.661575 0.969554 0.130148
H42   H     H_    0.782027 0.793784 0.041683 0.171307

loop_
_geom_bond_atom_site_label_1
_geom_bond_atom_site_label_2
_ccdc_geom_bond_type
C6    C32   A    
C21   C26   A    
C28   O15   S    
C1    C8    S    
O14   C38   S    
O16   C40   S    
C15   N7    S    
N4    H24   S    
C39   H26   S    
O3    Zn1   S    
C24   N1    A    
C23   O5    A    
C38   H20   S    
C28   C29   A    
C10   O11   S    
C11   O12   S    
C5    C6    A    
N3    H23   S    
O17   C41   S    
C40   H35   S    
C26   O14   S    
C23   O6    A    
C2    C32   A    
C18   C19   A    
O5    Zn1   S    
C37   H17   S    
N7    H36   S    
C20   N4    S    
C3    C12   S    
C19   N2    A    
C5    O16   S    
C27   O7    A    
C6    C27   S    
O13   C37   S    
C33   H5    S    
C38   H21   S    
C40   H34   S    
C41   H40   S    
N1    Zn1   S    
N5    H30   S    
C9    C10   A    
C27   O8    A    
C7    C15   A    
C35   H10   S    
C21   C22   A    
C41   H41   S    
C25   O13   S    
C30   N5    S    
N7    H37   S    
N4    H25   S    
O7    Zn1   S    
O8    Zn2   S    
C34   H8    S    
C35   H11   S    
C38   H19   S    
C39   H27   S    
C36   H15   S    
O15   C39   S    
N3    H22   S    
C16   C17   A    
C25   C26   A    
O10   C34   S    
C36   H14   S    
C12   O3    A    
C37   H18   S    
C9    C14   A    
C29   C30   A    
C16   N8    S    
C31   C32   A    
C33   H6    S    
C40   H33   S    
N6    H32   S    
O4    Zn2   S    
N8    H39   S    
C18   H2    S    
C1    O1    A    
C7    C16   A    
C33   H4    S    
C41   H42   S    
C22   C24   A    
O11   C35   S    
N2    Zn2   S    
C3    C4    A    
C17   O10   S    
C12   O4    A    
O2    Zn2   S    
C4    O9    S    
C39   H28   S    
C34   H7    S    
O9    C33   S    
C35   H12   S    
C18   C22   A    
C4    C5    A    
C29   H3    S    
C24   H1    S    
C13   C17   A    
C19   N3    S    
C36   H13   S    
C2    C3    A    
C9    O17   S    
C20   N2    A    
C11   C13   A    
C30   C31   A    
C8    C11   A    
C7    C23   S    
N6    H31   S    
C37   H16   S    
O1    Zn1   S    
C1    O2    A    
C25   N1    A    
O12   C36   S    
C20   C21   A    
C8    C10   A    
C31   N6    S    
N8    H38   S    
C14   C15   A    
C2    C28   A    
N5    H29   S    
C13   C14   A    
O6    Zn2   S    
C34   H9    S    
