data_mof_unit_65843.cif
_audit_creation_date              2013-03-05T16:28:49-0500
_audit_creation_method            fapswitch 2.2
_symmetry_space_group_name_H-M    P1
_symmetry_Int_Tables_number       1
_space_group_crystal_system       triclinic
_cell_length_a                    32.260988
_cell_length_b                    32.261173
_cell_length_c                    38.838468
_cell_angle_alpha                 90.097232
_cell_angle_beta                  89.902347
_cell_angle_gamma                 89.99898
_cell_volume                      40422.0795201

loop_
_atom_site_label
_atom_site_type_symbol
_atom_site_description
_atom_site_fract_x
_atom_site_fract_y
_atom_site_fract_z
_atom_type_partial_charge
O1    O     O_R   0.940210 0.534570 0.999910 -0.572697
O2    O     O_R   0.534570 0.059790 0.999910 -0.572694
O3    O     O_R   0.059790 0.465430 0.999910 -0.572731
O4    O     O_R   0.465430 0.940210 0.999910 -0.572697
O5    O     O_R   0.940210 0.465430 0.000090 -0.572693
O6    O     O_R   0.534570 0.940210 0.000090 -0.572699
O7    O     O_R   0.059790 0.534570 0.000090 -0.572695
O8    O     O_R   0.465430 0.059790 0.000090 -0.572734
O9    O     O_R   0.440210 0.034570 0.499910 -0.572690
O10   O     O_R   0.034570 0.559790 0.499910 -0.572655
O11   O     O_R   0.559790 0.965430 0.499910 -0.572729
O12   O     O_R   0.965430 0.440210 0.499910 -0.572730
O13   O     O_R   0.440210 0.965430 0.500090 -0.572719
O14   O     O_R   0.034570 0.440210 0.500090 -0.572635
O15   O     O_R   0.559790 0.034570 0.500090 -0.572718
O16   O     O_R   0.965430 0.559790 0.500090 -0.572755
C1    C     C_R   0.920467 0.500001 0.000044 0.826402
C2    C     C_R   0.499999 0.079533 0.000044 0.826389
C3    C     C_R   0.079533 0.499999 0.999956 0.826385
C4    C     C_R   0.500001 0.920467 0.999956 0.826403
C5    C     C_R   0.420467 0.000000 0.500045 0.826418
C6    C     C_R   0.999999 0.579534 0.500044 0.826369
C7    C     C_R   0.579534 1.000000 0.499955 0.826399
C8    C     C_R   1.000000 0.420467 0.499955 0.826398
O17   O     O_R   0.000050 0.534570 0.950000 -0.582756
O18   O     O_R   0.534570 0.999950 0.950000 -0.582736
O19   O     O_R   0.999950 0.465430 0.950000 -0.582737
O20   O     O_R   0.465430 0.000050 0.950000 -0.582766
O21   O     O_R   0.000050 0.465430 0.050000 -0.582760
O22   O     O_R   0.534570 0.000050 0.050000 -0.582766
O23   O     O_R   0.999950 0.534570 0.050000 -0.582736
O24   O     O_R   0.465430 0.999950 0.050000 -0.582737
O25   O     O_R   0.500050 0.034570 0.450000 -0.582765
O26   O     O_R   0.034570 0.499950 0.450000 -0.582745
O27   O     O_R   0.499950 0.965430 0.450000 -0.582747
O28   O     O_R   0.965430 0.500050 0.450000 -0.582755
O29   O     O_R   0.500050 0.965430 0.550000 -0.582763
O30   O     O_R   0.034570 0.500050 0.550000 -0.582767
O31   O     O_R   0.499950 0.034570 0.550000 -0.582754
O32   O     O_R   0.965430 0.499950 0.550000 -0.582736
C9    C     C_R   0.000001 0.499970 0.933482 0.787863
C10   C     C_R   0.500031 0.000010 0.933482 0.787868
C11   C     C_R   0.000011 0.500031 0.066518 0.787865
C12   C     C_R   0.499970 0.000001 0.066518 0.787870
C13   C     C_R   0.500001 0.999970 0.433482 0.787881
C14   C     C_R   0.000031 0.500011 0.433482 0.787864
C15   C     C_R   0.500010 0.000031 0.566518 0.787876
C16   C     C_R   0.999970 0.500001 0.566518 0.787866
Cu1   Cu    Cu3+1 0.000000 0.540950 0.000000 0.996308
Cu2   Cu    Cu3+1 0.540950 0.000000 0.000000 0.996292
Cu3   Cu    Cu3+1 1.000000 0.459050 0.000000 0.996300
Cu4   Cu    Cu3+1 0.459050 0.000000 0.000000 0.996281
Cu5   Cu    Cu3+1 0.500000 0.040950 0.500000 0.996236
Cu6   Cu    Cu3+1 0.040950 0.500000 0.500000 0.996355
Cu7   Cu    Cu3+1 0.500000 0.959050 0.500000 0.996226
Cu8   Cu    Cu3+1 0.959050 0.500000 0.500000 0.996231
C17   C     C_R   0.986589 0.464834 0.877226 -0.167109
C18   C     C_R   0.465052 0.013498 0.877284 -0.167190
C19   C     C_R   0.013382 0.534974 0.877244 -0.167206
C20   C     C_R   0.535193 0.986704 0.877186 -0.167151
C21   C     C_R   0.986703 0.535193 0.122814 -0.167140
C22   C     C_R   0.464833 0.986590 0.122774 -0.167122
C23   C     C_R   0.013499 0.465052 0.122716 -0.167172
C24   C     C_R   0.534974 0.013382 0.122756 -0.167220
C25   C     C_R   0.486590 0.964834 0.377226 -0.167182
C26   C     C_R   0.965050 0.513494 0.377284 -0.167140
C27   C     C_R   0.513382 0.034974 0.377244 -0.167170
C28   C     C_R   0.035195 0.486708 0.377186 -0.167136
C29   C     C_R   0.486704 0.035193 0.622814 -0.167192
C30   C     C_R   0.964832 0.486592 0.622774 -0.167117
C31   C     C_R   0.513496 0.965051 0.622716 -0.167174
C32   C     C_R   0.034975 0.513379 0.622756 -0.167159
H1    H     H_    0.975976 0.437453 0.890718 0.159778
H2    H     H_    0.437641 0.024099 0.890819 0.159739
H3    H     H_    0.024012 0.562375 0.890746 0.159732
H4    H     H_    0.562565 0.976061 0.890645 0.159800
H5    H     H_    0.976059 0.562564 0.109355 0.159788
H6    H     H_    0.437452 0.975978 0.109283 0.159789
H7    H     H_    0.024100 0.437642 0.109181 0.159738
H8    H     H_    0.562376 0.024011 0.109254 0.159738
H9    H     H_    0.475977 0.937453 0.390718 0.159773
H10   H     H_    0.937638 0.524092 0.390819 0.159693
H11   H     H_    0.524012 0.062375 0.390746 0.159798
H12   H     H_    0.062568 0.476068 0.390645 0.159745
H13   H     H_    0.476063 0.062566 0.609355 0.159793
H14   H     H_    0.937450 0.475981 0.609283 0.159718
H15   H     H_    0.524096 0.937640 0.609181 0.159773
H16   H     H_    0.062378 0.524006 0.609254 0.159714
C33   C     C_R   0.986173 0.464963 0.841266 -0.138327
C34   C     C_R   0.465248 0.013943 0.841328 -0.138704
C35   C     C_R   0.013739 0.534808 0.841287 -0.138718
C36   C     C_R   0.535095 0.986376 0.841225 -0.138380
C37   C     C_R   0.986375 0.535094 0.158774 -0.138372
C38   C     C_R   0.464962 0.986174 0.158734 -0.138331
C39   C     C_R   0.013944 0.465249 0.158672 -0.138667
C40   C     C_R   0.534809 0.013739 0.158712 -0.138751
C41   C     C_R   0.486173 0.964963 0.341266 -0.138401
C42   C     C_R   0.965247 0.513939 0.341328 -0.138641
C43   C     C_R   0.513739 0.034809 0.341287 -0.138679
C44   C     C_R   0.035096 0.486380 0.341225 -0.138375
C45   C     C_R   0.486376 0.035095 0.658774 -0.138432
C46   C     C_R   0.964962 0.486175 0.658734 -0.138328
C47   C     C_R   0.513941 0.965248 0.658672 -0.138661
C48   C     C_R   0.034810 0.513736 0.658712 -0.138688
H17   H     H_    0.975546 0.437547 0.827789 0.160121
H18   H     H_    0.437853 0.024578 0.827902 0.159963
H19   H     H_    0.024343 0.562214 0.827831 0.159911
H20   H     H_    0.562522 0.975779 0.827718 0.160118
H21   H     H_    0.975777 0.562522 0.172282 0.160087
H22   H     H_    0.437546 0.975549 0.172212 0.160146
H23   H     H_    0.024579 0.437854 0.172098 0.159961
H24   H     H_    0.562215 0.024342 0.172168 0.159923
H25   H     H_    0.475547 0.937547 0.327788 0.160127
H26   H     H_    0.937851 0.524570 0.327902 0.159910
H27   H     H_    0.524343 0.062215 0.327831 0.159973
H28   H     H_    0.062525 0.475786 0.327718 0.160035
H29   H     H_    0.475780 0.062523 0.672282 0.160096
H30   H     H_    0.937545 0.475552 0.672212 0.160069
H31   H     H_    0.524574 0.937852 0.672098 0.160002
H32   H     H_    0.062217 0.524337 0.672168 0.159869
C49   C     C_R   0.999940 0.499879 0.822962 0.049660
C50   C     C_R   0.500195 0.000187 0.822962 0.049644
C51   C     C_R   0.000187 0.500195 0.177038 0.049648
C52   C     C_R   0.499879 0.999940 0.177038 0.049654
C53   C     C_R   0.499940 0.999879 0.322962 0.049629
C54   C     C_R   0.000195 0.500187 0.322962 0.049723
C55   C     C_R   0.500186 0.000194 0.677038 0.049632
C56   C     C_R   0.999879 0.499939 0.677038 0.049726
C57   C     C_R   0.999998 0.499916 0.895524 -0.036469
C58   C     C_R   0.500095 0.000067 0.895524 -0.036488
C59   C     C_R   0.000067 0.500095 0.104476 -0.036480
C60   C     C_R   0.499916 0.999998 0.104476 -0.036476
C61   C     C_R   0.499998 0.999916 0.395524 -0.036509
C62   C     C_R   0.000095 0.500067 0.395524 -0.036433
C63   C     C_R   0.500067 0.000095 0.604476 -0.036505
C64   C     C_R   0.999916 0.499997 0.604476 -0.036429
N1    N     N_R   0.025451 0.525554 0.767140 -0.224881
N2    N     N_R   0.525899 0.974683 0.767067 -0.224582
N3    N     N_R   0.974362 0.474218 0.767142 -0.224300
N4    N     N_R   0.474561 0.025772 0.767215 -0.224549
N5    N     N_R   0.025774 0.474562 0.232785 -0.224545
N6    N     N_R   0.525556 0.025450 0.232859 -0.224849
N7    N     N_R   0.974682 0.525898 0.232933 -0.224623
N8    N     N_R   0.474217 0.974364 0.232859 -0.224286
N9    N     N_R   0.525450 0.025556 0.267140 -0.224824
N10   N     N_R   0.025902 0.474686 0.267067 -0.224597
N11   N     N_R   0.474363 0.974218 0.267142 -0.224293
N12   N     N_R   0.974559 0.525770 0.267215 -0.224593
N13   N     N_R   0.525771 0.974560 0.732785 -0.224523
N14   N     N_R   0.025557 0.525448 0.732859 -0.224863
N15   N     N_R   0.474684 0.025900 0.732933 -0.224596
N16   N     N_R   0.974217 0.474364 0.732859 -0.224335
C65   C     C_R   0.999877 0.499918 0.715040 0.411473
C66   C     C_R   0.500223 0.000228 0.715040 0.411323
C67   C     C_R   0.000228 0.500223 0.284960 0.411464
C68   C     C_R   0.499919 0.999878 0.284960 0.411332
C69   C     C_R   0.499877 0.999919 0.215040 0.411341
C70   C     C_R   0.000223 0.500228 0.215040 0.411440
C71   C     C_R   0.500228 0.000223 0.784960 0.411332
C72   C     C_R   0.999919 0.499877 0.784960 0.411449
H33   H     H_    0.789183 0.433873 0.995676 0.193435
H34   H     H_    0.433679 0.210809 0.002099 0.193477
H35   H     H_    0.210817 0.566179 0.003750 0.193529
H36   H     H_    0.566325 0.789191 0.998147 0.193449
H37   H     H_    0.789191 0.566308 0.002301 0.193448
H38   H     H_    0.433831 0.789184 0.003876 0.193443
H39   H     H_    0.210809 0.433668 0.998273 0.193473
H40   H     H_    0.566146 0.210817 0.995879 0.193527
H41   H     H_    0.289190 0.933646 0.499666 0.193597
H42   H     H_    0.934346 0.710802 0.508337 0.193527
H43   H     H_    0.710811 0.066346 0.500094 0.193405
H44   H     H_    0.065334 0.289174 0.509248 0.193373
H45   H     H_    0.289185 0.066304 0.498315 0.193397
H46   H     H_    0.934192 0.289200 0.492755 0.193622
H47   H     H_    0.710815 0.933705 0.501915 0.193401
H48   H     H_    0.065142 0.710826 0.489676 0.193410
C73   C     C_R   0.728487 0.462187 0.995884 0.295987
C74   C     C_R   0.461813 0.271510 0.999570 0.296228
C75   C     C_R   0.271513 0.537865 0.003788 0.295947
C76   C     C_R   0.538177 0.728490 0.000572 0.296240
C77   C     C_R   0.728490 0.538185 0.999686 0.296244
C78   C     C_R   0.462145 0.728487 0.003860 0.295969
C79   C     C_R   0.271510 0.461822 0.000644 0.296231
C80   C     C_R   0.537831 0.271514 0.996000 0.295961
C81   C     C_R   0.228491 0.961888 0.498169 0.296240
C82   C     C_R   0.961938 0.771506 0.503169 0.296120
C83   C     C_R   0.771511 0.038113 0.501687 0.295950
C84   C     C_R   0.037146 0.228482 0.506927 0.297755
C85   C     C_R   0.228488 0.038017 0.497399 0.297627
C86   C     C_R   0.961887 0.228496 0.497470 0.295968
C87   C     C_R   0.771513 0.961996 0.502731 0.296125
C88   C     C_R   0.037001 0.771518 0.492464 0.296293
C89   C     C_R   0.706411 0.500208 0.997528 -0.112611
C90   C     C_R   0.499802 0.293589 0.997528 -0.112611
C91   C     C_R   0.293589 0.499825 0.002473 -0.112610
C92   C     C_R   0.500180 0.706411 0.002473 -0.112611
C93   C     C_R   0.206412 0.999947 0.497525 -0.112580
C94   C     C_R   0.999406 0.793589 0.497560 -0.112707
C95   C     C_R   0.793589 0.000061 0.502468 -0.112640
C96   C     C_R   0.999459 0.206412 0.502454 -0.112616
C97   C     C_R   0.772039 0.537477 0.000807 -0.208819
C98   C     C_R   0.537295 0.227966 0.997182 -0.208485
C99   C     C_R   0.227961 0.462516 0.999517 -0.208890
C100  C     C_R   0.462687 0.772035 0.002680 -0.208533
C101  C     C_R   0.772035 0.462717 0.997067 -0.208541
C102  C     C_R   0.537481 0.772038 0.999446 -0.208837
C103  C     C_R   0.227965 0.537319 0.002609 -0.208473
C104  C     C_R   0.462517 0.227961 0.000693 -0.208886
C105  C     C_R   0.272036 0.037416 0.498559 -0.209438
C106  C     C_R   0.036642 0.727971 0.493688 -0.208885
C107  C     C_R   0.727965 0.962589 0.501571 -0.208807
C108  C     C_R   0.962732 0.272044 0.496399 -0.207993
C109  C     C_R   0.272039 0.962531 0.499320 -0.208176
C110  C     C_R   0.036761 0.272029 0.505708 -0.209390
C111  C     C_R   0.727962 0.037466 0.500543 -0.208671
C112  C     C_R   0.962808 0.727958 0.504221 -0.208623
C113  C     C_R   0.793718 0.500058 0.999427 0.018826
C114  C     C_R   0.499943 0.206283 0.999428 0.018766
C115  C     C_R   0.206282 0.499949 0.000573 0.018766
C116  C     C_R   0.500051 0.793718 0.000573 0.018819
C117  C     C_R   0.293718 0.999983 0.499430 0.018653
C118  C     C_R   0.999835 0.706284 0.499439 0.018856
C119  C     C_R   0.706283 0.000016 0.500567 0.018932
C120  C     C_R   0.999847 0.293717 0.500566 0.018695
C121  C     C_1   0.661515 0.500113 0.998942 0.139935
C122  C     C_1   0.499891 0.338485 0.998942 0.139924
C123  C     C_1   0.338485 0.499904 0.001059 0.139933
C124  C     C_1   0.500097 0.661515 0.001058 0.139946
C125  C     C_1   0.161516 0.999967 0.498940 0.140669
C126  C     C_1   0.999676 0.838485 0.498955 0.140253
C127  C     C_1   0.838486 0.000032 0.501055 0.140240
C128  C     C_1   0.999701 0.161516 0.501052 0.141027
C129  C     C_1   0.838457 0.500022 0.999823 0.017308
C130  C     C_1   0.499978 0.161543 0.999823 0.017294
C131  C     C_1   0.161543 0.499980 0.000177 0.017295
C132  C     C_1   0.500019 0.838457 0.000177 0.017299
C133  C     C_1   0.338457 0.999993 0.499826 0.017395
C134  C     C_1   0.999940 0.661544 0.499829 0.017325
C135  C     C_1   0.661543 0.000005 0.500173 0.017274
C136  C     C_1   0.999943 0.338456 0.500173 0.017449
C137  C     C_1   0.875892 0.500005 0.999982 -0.153500
C138  C     C_1   0.499994 0.124108 0.999982 -0.153497
C139  C     C_1   0.124108 0.499995 0.000018 -0.153490
C140  C     C_1   0.500004 0.875892 0.000018 -0.153512
C141  C     C_1   0.375892 0.999998 0.499984 -0.153538
C142  C     C_1   0.999987 0.624109 0.499985 -0.153496
C143  C     C_1   0.624108 0.000000 0.500016 -0.153521
C144  C     C_1   0.999988 0.375892 0.500016 -0.153481
C145  C     C_1   0.624078 0.500050 0.999712 -0.047802
C146  C     C_1   0.499951 0.375921 0.999712 -0.047824
C147  C     C_1   0.375921 0.499957 0.000288 -0.047789
C148  C     C_1   0.500043 0.624079 0.000287 -0.047773
C149  C     C_1   0.124080 0.999983 0.499711 -0.048158
C150  C     C_1   0.999856 0.875921 0.499715 -0.047538
C151  C     C_1   0.875922 0.000014 0.500287 -0.047081
C152  C     C_1   0.999865 0.124079 0.500287 -0.047129
O33   O     O_R   0.500080 0.440100 0.971010 -0.562896
O34   O     O_R   0.440100 0.499920 0.971010 -0.576341
O35   O     O_R   0.499920 0.559900 0.971010 -0.576369
O36   O     O_R   0.559900 0.500080 0.971010 -0.562918
O37   O     O_R   0.500080 0.559900 0.028990 -0.562922
O38   O     O_R   0.440100 0.500080 0.028990 -0.562909
O39   O     O_R   0.499920 0.440100 0.028990 -0.576331
O40   O     O_R   0.559900 0.499920 0.028990 -0.576351
O41   O     O_R   0.000080 0.940100 0.471010 -0.563446
O42   O     O_R   0.940100 0.999920 0.471010 -0.575922
O43   O     O_R   0.999920 0.059900 0.471010 -0.575387
O44   O     O_R   0.059900 0.000080 0.471010 -0.563202
O45   O     O_R   0.000080 0.059900 0.528990 -0.563376
O46   O     O_R   0.940100 0.000080 0.528990 -0.563450
O47   O     O_R   0.999920 0.940100 0.528990 -0.575366
O48   O     O_R   0.059900 0.999920 0.528990 -0.575778
C153  C     C_R   0.499997 0.420475 0.999959 0.820856
C154  C     C_R   0.420476 0.499997 0.000041 0.820905
C155  C     C_R   0.500003 0.579524 0.000041 0.820915
C156  C     C_R   0.579524 0.500003 0.999959 0.820871
C157  C     C_R   0.999992 0.920475 0.499959 0.820437
C158  C     C_R   0.920476 0.000001 0.500041 0.821345
C159  C     C_R   0.999991 0.079525 0.500041 0.820754
C160  C     C_R   0.079525 0.999998 0.499959 0.819939
Cu9   Cu    Cu3+1 0.500000 0.500000 0.965720 1.063802
Cu10  Cu    Cu3+1 0.500000 0.500000 0.034280 1.063805
Cu11  Cu    Cu3+1 1.000000 0.000000 0.465720 1.064453
Cu12  Cu    Cu3+1 1.000000 0.000000 0.534280 1.064430
N17   N     N_R   0.707451 0.422890 0.993149 0.144399
O49   O     O_R   0.673172 0.419470 0.975765 -0.309697
O50   O     O_R   0.724849 0.389381 0.004889 -0.304976
N18   N     N_R   0.422394 0.292541 0.000651 0.145846
O51   O     O_R   0.416625 0.326832 0.983730 -0.311316
O52   O     O_R   0.390703 0.275131 0.015538 -0.304466
N19   N     N_R   0.292548 0.577195 0.006183 0.144449
O53   O     O_R   0.326827 0.580834 0.023538 -0.309413
O54   O     O_R   0.275151 0.610554 0.994153 -0.305224
N20   N     N_R   0.577599 0.707458 0.999636 0.145886
O55   O     O_R   0.583275 0.673166 0.016577 -0.311128
O56   O     O_R   0.609369 0.724868 0.984867 -0.304667
N21   N     N_R   0.707459 0.577598 0.000888 0.145884
O57   O     O_R   0.673167 0.583441 0.983984 -0.311082
O58   O     O_R   0.724868 0.609222 0.015872 -0.304759
N22   N     N_R   0.422823 0.707452 0.006329 0.144406
O59   O     O_R   0.419232 0.673173 0.023690 -0.309564
O60   O     O_R   0.389430 0.724849 0.994362 -0.305037
N23   N     N_R   0.292542 0.422397 0.999783 0.145848
O61   O     O_R   0.326833 0.416766 0.016736 -0.311344
O62   O     O_R   0.275132 0.390586 0.985074 -0.304403
N24   N     N_R   0.577141 0.292549 0.993384 0.144430
O63   O     O_R   0.580639 0.326827 0.976009 -0.309525
O64   O     O_R   0.610599 0.275151 0.005225 -0.305196
N25   N     N_R   0.207459 0.922453 0.497794 0.143664
O65   O     O_R   0.173197 0.917517 0.480639 -0.309183
O66   O     O_R   0.224851 0.890061 0.511529 -0.307744
N26   N     N_R   0.922905 0.792533 0.507953 0.145630
O67   O     O_R   0.914842 0.826809 0.491673 -0.310391
O68   O     O_R   0.893455 0.775129 0.525743 -0.305614
N27   N     N_R   0.792543 0.077547 0.501911 0.145073
O69   O     O_R   0.826829 0.082567 0.519018 -0.309826
O70   O     O_R   0.775140 0.109868 0.488074 -0.304418
N28   N     N_R   0.075968 0.207442 0.512587 0.146147
O71   O     O_R   0.077411 0.173156 0.530144 -0.317734
O72   O     O_R   0.110663 0.224844 0.503418 -0.302409
N29   N     N_R   0.207454 0.077425 0.496228 0.145974
O73   O     O_R   0.173166 0.081775 0.479013 -0.318117
O74   O     O_R   0.224863 0.110275 0.509269 -0.303335
N30   N     N_R   0.922767 0.207469 0.493341 0.144095
O75   O     O_R   0.915026 0.173210 0.509776 -0.307068
O76   O     O_R   0.892971 0.224859 0.476028 -0.307484
N31   N     N_R   0.792548 0.922597 0.504036 0.145715
O77   O     O_R   0.826837 0.918334 0.521266 -0.310692
O78   O     O_R   0.775143 0.889687 0.491100 -0.304625
N32   N     N_R   0.075706 0.792557 0.486164 0.145140
O79   O     O_R   0.076803 0.826839 0.468582 -0.312055
O80   O     O_R   0.110577 0.775158 0.494768 -0.303240

loop_
_geom_bond_atom_site_label_1
_geom_bond_atom_site_label_2
_geom_bond_distance
_ccdc_geom_bond_type
C92   C124  1.449368 S    
O25   C13   1.286517 A    
N19   O53   1.301266 A    
C86   N30   1.441870 S    
N23   O62   1.301578 A    
C75   C91   1.419664 A    
O42   C158  1.292155 A    
C73   C89   1.419636 A    
O31   C15   1.286709 A    
O21   Cu3   1.952457 S    
O18   Cu2   1.953148 S    
N4    C71   1.357891 A    
C42   H26   1.082985 S    
C85   N29   1.441926 S    
N3    N16   1.331528 A    
C105  C117  1.396073 A    
C4    C140  1.438035 S    
C86   C108  1.405855 A    
O24   Cu4   1.953153 S    
N30   O75   1.301238 A    
Cu1   Cu3   2.642190 S    
C74   C104  1.405858 A    
Cu2   Cu4   2.642175 S    
O3    C3    1.284331 A    
C88   C94   1.419799 A    
C76   C92   1.419629 A    
C3    C139  1.438030 S    
C20   C36   1.396686 A    
C1    C137  1.438027 S    
C29   C63   1.404065 A    
C30   C64   1.404086 A    
H33   C101  1.083802 S    
H44   C110  1.083842 S    
Cu6   Cu8   2.642175 S    
O38   C154  1.291265 A    
C75   C103  1.405832 A    
N32   O79   1.301254 A    
C22   C60   1.404086 A    
O35   Cu9   1.942990 S    
O17   C9    1.286517 A    
C20   H4    1.083081 S    
C117  C133  1.443432 S    
C149  C160  1.437407 S    
C78   N22   1.441828 S    
C14   C62   1.474237 S    
N23   O61   1.301269 A    
C48   C56   1.404618 A    
C107  C119  1.396028 A    
O41   C157  1.291282 A    
N24   O63   1.301260 A    
C133  C141  1.207723 T    
C19   C35   1.396524 A    
C131  C139  1.207723 T    
N32   O80   1.301605 A    
O26   Cu6   1.953148 S    
O7    C3    1.284340 A    
O27   C13   1.286732 A    
N22   O59   1.301273 A    
O41   Cu11  1.943684 S    
C123  C147  1.208044 T    
C85   C93   1.419770 A    
O32   C16   1.286726 A    
C19   C57   1.404050 A    
N1    C72   1.357845 A    
C77   C97   1.405853 A    
C37   C51   1.404679 A    
C91   C123  1.449353 S    
C12   C60   1.474233 S    
H41   C109  1.083860 S    
C13   C61   1.474233 S    
C77   N21   1.441846 S    
C11   C59   1.474233 S    
C89   C121  1.449360 S    
N17   O50   1.301571 A    
H36   C102  1.083793 S    
O9    C5    1.284350 A    
O11   C7    1.284341 A    
H40   C98   1.083818 S    
O34   Cu9   1.942978 S    
O4    C4    1.284349 A    
O47   C157  1.292160 A    
H42   C112  1.083878 S    
N29   O73   1.301237 A    
O5    Cu3   1.939828 S    
C119  C135  1.443438 S    
C96   C128  1.449359 S    
C81   C93   1.419744 A    
C87   C107  1.405842 A    
O48   Cu12  1.942977 S    
C27   H11   1.083086 S    
C106  C118  1.396072 A    
O34   C154  1.292164 A    
C73   N17   1.441835 S    
O16   Cu8   1.939844 S    
O7    Cu1   1.939838 S    
O38   Cu10  1.943675 S    
C101  C113  1.396012 A    
O40   C156  1.292170 A    
O23   C11   1.286709 A    
C44   C54   1.404677 A    
N19   O54   1.301582 A    
C46   C56   1.404677 A    
C150  C157  1.437402 S    
C84   C96   1.419745 A    
C22   H6    1.083077 S    
N26   O67   1.301215 A    
O14   C8    1.284366 A    
C95   C127  1.449348 S    
O2    Cu2   1.939849 S    
C26   C62   1.404076 A    
C36   H20   1.082979 S    
N26   O68   1.301702 A    
O28   C14   1.286532 A    
O26   C14   1.286706 A    
N12   C67   1.357893 A    
H47   C107  1.083807 S    
O29   C15   1.286537 A    
C47   C55   1.404617 A    
O8    Cu4   1.939844 S    
O30   C16   1.286508 A    
O48   C160  1.292178 A    
O33   Cu9   1.943684 S    
N21   O58   1.301558 A    
N8    N11   1.331528 A    
C55   C66   1.475937 S    
O19   Cu3   1.953152 S    
N25   O66   1.301659 A    
N2    N13   1.331469 A    
N7    N12   1.331469 A    
O44   Cu11  1.943674 S    
C115  C131  1.443436 S    
C24   C40   1.396521 A    
C6    C142  1.438051 S    
C84   C110  1.405820 A    
C74   N18   1.441882 S    
C49   C72   1.475933 S    
N18   O52   1.301602 A    
C28   C44   1.396686 A    
C36   C50   1.404681 A    
C79   C91   1.419666 A    
O46   C158  1.291271 A    
O6    Cu2   1.939858 S    
C83   N27   1.441856 S    
C120  C136  1.443446 S    
C130  C138  1.207727 T    
C23   C59   1.404075 A    
N1    N14   1.331411 A    
O39   C153  1.292168 A    
C29   H13   1.083080 S    
C18   H2    1.083084 S    
N7    C70   1.357863 A    
C108  C120  1.396094 A    
C39   C51   1.404621 A    
C31   C47   1.396582 A    
C76   N20   1.441843 S    
C16   C64   1.474233 S    
H45   C105  1.083858 S    
C93   C125  1.449347 S    
O12   C8    1.284318 A    
O1    C1    1.284337 A    
O46   Cu12  1.943675 S    
C98   C114  1.396039 A    
O13   C5    1.284335 A    
C80   C90   1.419681 A    
C45   C55   1.404678 A    
C81   C109  1.405831 A    
C7    C143  1.438030 S    
C21   C59   1.404064 A    
O29   Cu7   1.952457 S    
N16   C65   1.357910 A    
N30   O76   1.301661 A    
C35   C49   1.404618 A    
C33   H17   1.082978 S    
Cu11  Cu12  2.662761 S    
C124  C148  1.208051 T    
N8    C69   1.357908 A    
C37   H21   1.082984 S    
O40   Cu10  1.942977 S    
C152  C159  1.437408 S    
C44   H28   1.082983 S    
C147  C154  1.437379 S    
O36   Cu9   1.943674 S    
C86   C96   1.419696 A    
O10   C6    1.284355 A    
C74   C90   1.419683 A    
O18   C10   1.286706 A    
O39   Cu10  1.942991 S    
C17   C33   1.396744 A    
C100  C116  1.396014 A    
C78   C100  1.405836 A    
O15   Cu5   1.939838 S    
C43   H27   1.082987 S    
N20   O55   1.301276 A    
C21   C37   1.396686 A    
O5    C1    1.284351 A    
C23   C39   1.396582 A    
C29   C45   1.396690 A    
O45   C159  1.291282 A    
C135  C143  1.207722 T    
H37   C97   1.083798 S    
N9    C68   1.357845 A    
C109  C117  1.396084 A    
C146  C153  1.437391 S    
N10   C67   1.357863 A    
C24   C60   1.404054 A    
O32   Cu8   1.953153 S    
N14   C65   1.357844 A    
N24   O64   1.301593 A    
C50   C71   1.475933 S    
O35   C155  1.292169 A    
H39   C99   1.083812 S    
C127  C151  1.208040 T    
C53   C68   1.475937 S    
C27   C43   1.396524 A    
H43   C111  1.083806 S    
C54   C67   1.475933 S    
C2    C138  1.438041 S    
O22   Cu2   1.952450 S    
N27   O69   1.301264 A    
O21   C11   1.286537 A    
C24   H8    1.083087 S    
N6    N9    1.331415 A    
O22   C12   1.286508 A    
O23   Cu1   1.953146 S    
N22   O60   1.301567 A    
C104  C114  1.396055 A    
C28   H12   1.083079 S    
C34   H18   1.082984 S    
C41   C53   1.404680 A    
O3    Cu3   1.939833 S    
C32   C48   1.396521 A    
C102  C116  1.396031 A    
C38   H22   1.082980 S    
O8    C2    1.284326 A    
C83   C95   1.419651 A    
N13   C66   1.357893 A    
N17   O49   1.301272 A    
O28   Cu8   1.952455 S    
C35   H19   1.082987 S    
C25   H9    1.083078 S    
O30   Cu6   1.952450 S    
O43   Cu11  1.942990 S    
C52   C69   1.475933 S    
C134  C142  1.207736 T    
C81   N25   1.441903 S    
C145  C156  1.437376 S    
C15   C63   1.474233 S    
N11   C68   1.357907 A    
C18   C34   1.396582 A    
N4    N15   1.331469 A    
C56   C65   1.475933 S    
C31   H15   1.083081 S    
N3    C72   1.357909 A    
C21   H5    1.083080 S    
C22   C38   1.396744 A    
C151  C158  1.437372 S    
O9    Cu5   1.939847 S    
N6    C69   1.357843 A    
C113  C129  1.443436 S    
O11   Cu7   1.939833 S    
C122  C146  1.208048 T    
O16   C6    1.284318 A    
C103  C115  1.396029 A    
C126  C150  1.208051 T    
C30   C46   1.396744 A    
O6    C4    1.284335 A    
O44   C160  1.291273 A    
C45   H29   1.082981 S    
C90   C122  1.449358 S    
C28   C62   1.404063 A    
N31   O77   1.301274 A    
C85   C105  1.405831 A    
C26   C42   1.396578 A    
O31   Cu5   1.953146 S    
C33   C49   1.404680 A    
C18   C58   1.404075 A    
H35   C103  1.083810 S    
C73   C101  1.405831 A    
O17   Cu1   1.952452 S    
C97   C113  1.396032 A    
N5    C70   1.357891 A    
C42   C54   1.404619 A    
C136  C144  1.207730 T    
C82   C94   1.419766 A    
C48   H32   1.082986 S    
O42   Cu11  1.942978 S    
N20   O56   1.301561 A    
O2    C2    1.284341 A    
N21   O57   1.301281 A    
C128  C152  1.208059 T    
C43   C53   1.404619 A    
C23   H7    1.083082 S    
N25   O65   1.301228 A    
C40   H24   1.082985 S    
O4    Cu4   1.939839 S    
H46   C108  1.083851 S    
C17   C57   1.404086 A    
C27   C61   1.404053 A    
C87   C95   1.419660 A    
C31   C63   1.404078 A    
C32   C64   1.404057 A    
C26   H10   1.083084 S    
C17   H1    1.083080 S    
C82   N26   1.441925 S    
N15   C66   1.357863 A    
C88   N32   1.441953 S    
N2    C71   1.357863 A    
C87   N31   1.441857 S    
N29   O74   1.301634 A    
C82   C112  1.405857 A    
N28   O72   1.301592 A    
O45   Cu12  1.943683 S    
C75   N19   1.441856 S    
C46   H30   1.082981 S    
O15   C7    1.284333 A    
C34   C50   1.404621 A    
C76   C102  1.405857 A    
C32   H16   1.083082 S    
Cu5   Cu7   2.642190 S    
O25   Cu5   1.952452 S    
C83   C111  1.405845 A    
N27   O70   1.301580 A    
C80   C98   1.405833 A    
C40   C52   1.404621 A    
O27   Cu7   1.953152 S    
C114  C130  1.443447 S    
C84   N28   1.441906 S    
C20   C58   1.404065 A    
C5    C141  1.438027 S    
Cu9   Cu10  2.662761 S    
C118  C134  1.443458 S    
O36   C156  1.291271 A    
N28   O71   1.301258 A    
O19   C9    1.286732 A    
C88   C106  1.405819 A    
O24   C12   1.286726 A    
C10   C58   1.474233 S    
H38   C100  1.083795 S    
C79   N23   1.441869 S    
O12   Cu8   1.939839 S    
C110  C120  1.396046 A    
N5    N10   1.331473 A    
C129  C137  1.207720 T    
O14   Cu6   1.939858 S    
C8    C144  1.438041 S    
C78   C92   1.419629 A    
C41   H25   1.082979 S    
C30   H14   1.083077 S    
C19   H3    1.083087 S    
H34   C104  1.083818 S    
C121  C145  1.208044 T    
C116  C132  1.443441 S    
C47   H31   1.082985 S    
O13   Cu7   1.939828 S    
C111  C119  1.396036 A    
C125  C149  1.208053 T    
C94   C126  1.449339 S    
O37   C155  1.291276 A    
C51   C70   1.475933 S    
O33   C153  1.291268 A    
C99   C115  1.396043 A    
C79   C99   1.405853 A    
N18   O51   1.301254 A    
C132  C140  1.207723 T    
C25   C41   1.396744 A    
C39   H23   1.082986 S    
C9    C57   1.474233 S    
C80   N24   1.441872 S    
O20   Cu4   1.952455 S    
O47   Cu12  1.942991 S    
N31   O78   1.301570 A    
O20   C10   1.286532 A    
H48   C106  1.083866 S    
O10   Cu6   1.939849 S    
C148  C155  1.437384 S    
C112  C118  1.396114 A    
O37   Cu10  1.943683 S    
O43   C159  1.292172 A    
C77   C89   1.419638 A    
O1    Cu1   1.939847 S    
C25   C61   1.404085 A    
C38   C52   1.404678 A    
