data_mof_unit_8523.cif
_audit_creation_date              2012-12-10T19:00:16-0500
_audit_creation_method            fapswitch 2.2
_symmetry_space_group_name_H-M    P1
_symmetry_Int_Tables_number       1
_space_group_crystal_system       triclinic
_cell_length_a                    9.583246
_cell_length_b                    10.878697
_cell_length_c                    13.44118
_cell_angle_alpha                 89.796891
_cell_angle_beta                  72.839546
_cell_angle_gamma                 89.959518
_cell_volume                      1338.89578608

loop_
_atom_site_label
_atom_site_type_symbol
_atom_type_description
_atom_site_fract_x
_atom_site_fract_y
_atom_site_fract_z
_atom_type_partial_charge
C1    C     C_R   0.497961 0.737017 0.504710 0.839554
C2    C     C_R   0.440710 0.512393 0.977342 0.101713
C3    C     C_R   0.464133 0.468355 0.874497 0.049672
C4    C     C_R   0.542537 0.479858 0.031714 0.097864
C5    C     C_R   0.658396 0.397220 0.985381 0.122199
C6    C     C_R   0.671256 0.347262 0.887935 -0.204371
C7    C     C_R   0.573842 0.380649 0.834435 -0.182940
C8    C     C_R   0.531212 0.524103 0.131819 -0.142201
C9    C     C_R   0.736354 0.399424 0.140840 -0.199949
C10   C     C_R   0.374991 0.510762 0.814345 -0.102466
C11   C     C_R   0.371819 0.938669 0.521942 -0.049024
C12   C     C_R   0.421567 0.499382 0.700067 0.790313
C13   C     C_R   0.493878 0.868991 0.518300 -0.134195
C14   C     C_R   0.615356 0.931585 0.531041 -0.264489
C15   C     C_R   0.617495 0.060693 0.538508 0.367436
C16   C     C_R   0.497782 0.130133 0.522452 -0.208634
C17   C     C_R   0.375741 0.062778 0.519376 -0.084934
C18   C     C_3   0.229515 0.072622 0.501925 0.488356
C19   C     C_3   0.223225 0.930317 0.509226 0.250757
C20   C     C_R   0.963924 0.496023 0.408736 0.163125
C21   C     C_R   0.889065 0.513441 0.589799 0.023002
C22   C     C_R   0.037058 0.512930 0.589827 0.054621
C23   C     C_R   0.498344 0.262886 0.507622 0.822653
C24   C     C_R   0.111191 0.494243 0.408769 0.195601
C25   C     C_3   0.144387 0.391102 0.332216 0.418961
C26   C     C_3   0.988015 0.397606 0.329098 -0.510770
C27   C     C_R   0.578082 0.497845 0.300411 0.783677
C28   C     C_R   0.756479 0.360602 0.039188 -0.172466
C29   C     C_R   0.621599 0.479006 0.188048 -0.047615
C30   C     C_R   0.249583 0.579614 0.861965 -0.148284
C31   C     C_R   0.218684 0.614295 0.965504 -0.146361
C32   C     C_R   0.314540 0.584397 0.022081 -0.123343
Cu1   Cu    Cu3+1 0.359330 0.500020 0.500010 1.029793
Cu2   Cu    Cu3+1 0.640670 0.499980 0.499990 0.999759
H1    H     H_    0.804355 0.360926 0.184431 0.151113
H2    H     H_    0.236085 0.108739 0.423314 0.014002
H3    H     H_    0.223436 0.884620 0.435368 0.021557
H4    H     H_    0.805298 0.523445 0.663228 0.137608
H5    H     H_    0.060953 0.521950 0.663086 0.151825
H6    H     H_    0.173387 0.303918 0.364456 0.127303
H7    H     H_    0.978709 0.433942 0.254052 0.207739
H8    H     H_    0.755452 0.280361 0.853595 0.200096
H9    H     H_    0.923183 0.313552 0.358116 0.232921
H10   H     H_    0.844053 0.296710 0.004616 0.158133
H11   H     H_    0.449001 0.589742 0.170378 0.152817
H12   H     H_    0.177975 0.610727 0.818066 0.190225
H13   H     H_    0.284610 0.616814 0.101164 0.160969
H14   H     H_    0.122051 0.668309 0.001295 0.155075
H15   H     H_    0.581471 0.333968 0.762661 0.210736
H16   H     H_    0.709701 0.879762 0.535710 0.216665
N1    N     N_R   0.852320 0.499070 0.499340 -0.163676
N2    N     N_R   0.148230 0.499110 0.499340 -0.216051
O1    O     O_R   0.381190 0.680360 0.500000 -0.543780
O2    O     O_R   0.618780 0.680320 0.499990 -0.590631
O3    O     O_R   0.323230 0.500000 0.650990 -0.569693
O4    O     O_R   0.560820 0.499960 0.650980 -0.593562
O5    O     O_R   0.381220 0.319680 0.500010 -0.561985
O6    O     O_R   0.618810 0.319640 0.500000 -0.526002
O7    O     O_R   0.439180 0.500040 0.349020 -0.554480
O8    O     O_R   0.676770 0.500000 0.349010 -0.595736
S1    S     S_3+6 0.773303 0.118657 0.569856 0.047705
O9    O     O_2   0.756924 0.245320 0.614985 -0.267710
O10   O     O_2   0.804354 0.034547 0.649452 -0.205849
O11   O     O_3   0.916715 0.116281 0.461742 -0.540865
H17   H     H_    0.938017 0.028033 0.446603 0.347498
F1    F     F_    0.131183 0.135097 0.581917 -0.539625
S2    S     S_3+6 0.095338 0.864941 0.623653 0.070389
O12   O     O_2   0.164150 0.758452 0.662720 -0.331423
O13   O     O_2   0.047744 0.957228 0.710011 -0.165019
O14   O     O_3   0.949498 0.813655 0.590979 -0.549406
H18   H     H_    0.883284 0.779279 0.656253 0.361809
F2    F     F_    0.241578 0.425204 0.238220 -0.677706

loop_
_geom_bond_atom_site_label_1
_geom_bond_atom_site_label_2
_ccdc_geom_bond_type
C17   C18   S    
Cu1   O3    S    
S1    O11   S    
C2    C4    A    
C1    O2    A    
C19   S2    S    
C6    C7    A    
C18   F1    S    
C5    C28   A    
C10   C30   A    
C31   C32   A    
Cu2   O8    S    
C9    C29   A    
C30   C31   A    
C4    C8    A    
S2    O14   S    
O11   H17   S    
C14   C15   A    
C2    C3    A    
C15   S1    S    
C16   C23   S    
C25   H6    S    
C3    C10   A    
C27   O7    A    
C13   C14   A    
Cu1   N2    S    
Cu2   O4    S    
C11   C13   A    
C11   C19   S    
Cu2   N1    S    
C12   O4    A    
C20   C26   S    
C14   H16   S    
C23   O5    A    
C5    C6    A    
C10   C12   S    
C2    C32   A    
C22   N2    A    
C26   H7    S    
Cu1   Cu2   S    
C26   H9    S    
Cu2   O2    S    
C20   N1    A    
C3    C7    A    
C24   N2    A    
C27   O8    A    
Cu1   O1    S    
S1    O9    D    
C32   H13   S    
C9    H1    S    
C12   O3    A    
C27   C29   S    
C22   H5    S    
S2    O12   D    
C16   C17   A    
C20   C24   A    
C21   N1    A    
O14   H18   S    
C1    C13   S    
C24   C25   S    
C7    H15   S    
C28   H10   S    
S1    O10   D    
C18   C19   S    
C6    H8    S    
C31   H14   S    
C8    C29   A    
Cu2   O6    S    
C1    O1    A    
C8    H11   S    
C11   C17   A    
Cu1   O5    S    
C19   H3    S    
C25   C26   S    
C21   C22   A    
C18   H2    S    
Cu1   O7    S    
C30   H12   S    
C23   O6    A    
C21   H4    S    
C15   C16   A    
C9    C28   A    
C25   F2    S    
C4    C5    A    
S2    O13   D    
