data_mof_unit_24706.cif
_audit_creation_date              2012-12-10T20:37:30-0500
_audit_creation_method            fapswitch 2.2
_symmetry_space_group_name_H-M    P1
_symmetry_Int_Tables_number       1
_space_group_crystal_system       triclinic
_cell_length_a                    15.712574
_cell_length_b                    10.692438
_cell_length_c                    9.889091
_cell_angle_alpha                 89.232679
_cell_angle_beta                  90.668162
_cell_angle_gamma                 90.313259
_cell_volume                      1661.13850046

loop_
_atom_site_label
_atom_site_type_symbol
_atom_type_description
_atom_site_fract_x
_atom_site_fract_y
_atom_site_fract_z
_atom_type_partial_charge
C1    C     C_R   0.502954 0.259789 0.500533 0.895335
C2    C     C_3   0.083292 0.498799 0.500569 0.028483
C3    C     C_3   0.971871 0.617674 0.480091 -0.224110
C4    C     C_3   0.916813 0.499320 0.501509 0.053204
C5    C     C_3   0.026110 0.540878 0.383213 0.238975
C6    C     C_3   0.970017 0.423553 0.401422 -0.235760
C7    C     C_1   0.174028 0.499547 0.498535 0.055199
C8    C     C_1   0.826059 0.499498 0.502669 -0.034590
C9    C     C_R   0.528835 0.061433 0.620568 0.115451
C10   C     C_R   0.517905 0.128285 0.499850 -0.093225
C11   C     C_R   0.525456 0.066293 0.376072 -0.203806
C12   C     C_R   0.338046 0.500197 0.499303 0.934008
C13   C     C_R   0.525993 0.936957 0.375075 -0.216677
C14   C     C_R   0.519102 0.870974 0.497866 -0.094512
C15   C     C_R   0.529391 0.933636 0.619403 0.124824
C16   C     C_3   0.480432 0.922067 0.747417 -0.446479
C17   C     C_3   0.479520 0.063469 0.748666 -0.479211
C18   C     C_R   0.429910 0.460381 0.070629 0.133165
C19   C     C_R   0.564591 0.553423 0.073107 -0.200187
C20   C     C_R   0.565422 0.552762 0.929024 0.231855
C21   C     C_R   0.429572 0.461265 0.928204 0.093788
C22   C     C_3   0.388909 0.335111 0.923902 0.051368
C23   C     C_R   0.503507 0.739894 0.499202 0.868720
C24   C     C_3   0.389562 0.334091 0.078471 0.060799
C25   C     C_R   0.661982 0.500038 0.500737 0.896053
C26   C     C_3   0.973739 0.457147 0.619317 0.210645
C27   C     C_3   0.027749 0.381533 0.521788 0.267805
C28   C     C_1   0.249250 0.500029 0.498071 -0.076558
C29   C     C_1   0.750808 0.499748 0.502301 -0.186175
C30   C     C_3   0.029861 0.574562 0.600519 -0.241031
H1    H     H_    0.518997 0.880118 0.831194 0.194464
H2    H     H_    0.414592 0.102603 0.733848 0.237901
H3    H     H_    0.517875 0.102224 0.833596 0.190631
H4    H     H_    0.616907 0.595266 0.128682 0.162732
H5    H     H_    0.432690 0.265985 0.882036 0.096666
H6    H     H_    0.433198 0.262796 0.123117 0.101717
H7    H     H_    0.944238 0.363439 0.319780 0.167828
H8    H     H_    0.947366 0.713495 0.460618 0.166126
H9    H     H_    0.055924 0.634826 0.681794 0.172127
H10   H     H_    0.524365 0.116269 0.280086 0.166609
H11   H     H_    0.524928 0.889881 0.278732 0.173163
H12   H     H_    0.416192 0.879888 0.732447 0.220669
N1    N     N_R   0.499430 0.499140 0.142800 -0.132357
N2    N     N_R   0.499430 0.499180 0.857150 -0.138679
O1    O     O_R   0.500010 0.316790 0.614690 -0.619376
O2    O     O_R   0.500000 0.316760 0.385350 -0.622819
O3    O     O_R   0.376780 0.500010 0.614650 -0.584243
O4    O     O_R   0.376770 0.499970 0.385310 -0.580696
O5    O     O_R   0.500000 0.683240 0.614650 -0.614345
O6    O     O_R   0.499990 0.683210 0.385310 -0.623374
O7    O     O_R   0.623230 0.500030 0.614690 -0.587770
O8    O     O_R   0.623220 0.499990 0.385350 -0.627090
Zn1   Zn    Zn3+2 0.500010 0.500020 0.653130 0.982484
Zn2   Zn    Zn3+2 0.499990 0.499980 0.346870 0.969603
Br1   Br    Br    0.069852 0.213056 0.549900 -0.470537
N3    N     N_2   0.634279 0.609667 0.859636 -0.256003
H13   H     H_    0.639649 0.703929 0.878980 0.200648
C31   C     C_3   0.714851 0.545927 0.877011 -0.737949
H14   H     H_    0.738324 0.553348 0.983040 0.211260
H15   H     H_    0.762727 0.589523 0.809151 0.247037
H16   H     H_    0.708141 0.445661 0.850365 0.249753
Br2   Br    Br    0.278044 0.338562 0.833469 -0.416559
Br3   Br    Br    0.279290 0.338455 0.166418 -0.389167
N4    N     N_2   0.940577 0.411588 0.746857 -0.321134
H17   H     H_    0.899809 0.336413 0.736141 0.235114
C32   C     C_3   0.003103 0.394259 0.853749 -0.661062
H18   H     H_    0.970566 0.365852 0.948445 0.227607
H19   H     H_    0.038139 0.482864 0.872541 0.247011
H20   H     H_    0.048876 0.320140 0.826921 0.290182
N5    N     N_2   0.058364 0.586723 0.255287 -0.268910
H21   H     H_    0.103660 0.656058 0.266376 0.239208
C33   C     C_3   0.993698 0.617791 0.155481 -0.740652
H22   H     H_    0.024497 0.646234 0.059325 0.244275
H23   H     H_    0.954286 0.696588 0.190892 0.230047
H24   H     H_    0.952275 0.535433 0.135595 0.240502

loop_
_geom_bond_atom_site_label_1
_geom_bond_atom_site_label_2
_ccdc_geom_bond_type
C32   H19   S    
C18   C21   A    
C2    C7    S    
C4    C8    S    
C13   H11   S    
C16   H1    S    
O4    Zn2   S    
C22   H5    S    
C26   C27   S    
O6    Zn2   S    
C12   C28   S    
C18   C24   S    
C8    C29   T    
C12   O3    A    
C5    C6    S    
C27   Br1   S    
C1    O2    A    
C23   O5    A    
C32   H20   S    
C31   H15   S    
C15   C16   S    
N3    H13   S    
C26   N4    S    
N2    Zn1   S    
C19   C20   A    
C3    H8    S    
O8    Zn2   S    
C16   C17   S    
C2    C27   S    
C9    C10   A    
C20   N3    S    
O3    Zn1   S    
C31   H16   S    
C32   H18   S    
O1    Zn1   S    
C13   C14   A    
C17   H3    S    
C33   H24   S    
C20   N2    A    
C19   N1    A    
C25   C29   S    
C4    C6    S    
C23   O6    A    
C31   H14   S    
C7    C28   T    
O7    Zn1   S    
N4    C32   S    
C14   C23   S    
C3    C30   S    
C25   O7    A    
C5    N5    S    
C22   Br2   S    
C21   N2    A    
N1    Zn2   S    
C6    C27   S    
O2    Zn2   S    
C6    H7    S    
C24   H6    S    
N5    H21   S    
C33   H23   S    
C26   C30   S    
C24   Br3   S    
C22   C24   S    
C2    C5    S    
C3    C4    S    
C16   H12   S    
C9    C17   S    
C1    C10   S    
C33   H22   S    
C3    C5    S    
C19   H4    S    
C4    C26   S    
C2    C30   S    
N4    H17   S    
C9    C15   A    
C25   O8    A    
C18   N1    A    
C11   C13   A    
C1    O1    A    
O5    Zn1   S    
C12   O4    A    
N3    C31   S    
C30   H9    S    
C11   H10   S    
C10   C11   A    
C17   H2    S    
C14   C15   A    
N5    C33   S    
C21   C22   S    
