data_mof_unit_22988.cif
_audit_creation_date              2012-10-26T20:03:19-0400
_audit_creation_method            fapswitch 2.2
_symmetry_space_group_name_H-M    P1
_symmetry_Int_Tables_number       1
_space_group_crystal_system       triclinic
_cell_length_a                    10.594019
_cell_length_b                    12.403303
_cell_length_c                    13.26593
_cell_angle_alpha                 117.32006
_cell_angle_beta                  76.33485
_cell_angle_gamma                 100.987021
_cell_volume                      1498.04712545

loop_
_atom_site_label
_atom_site_type_symbol
_atom_type_description
_atom_site_fract_x
_atom_site_fract_y
_atom_site_fract_z
_atom_type_partial_charge
C1    C     C_R   0.512291 0.854920 0.286780 0.521744
C2    C     C_R   0.503160 0.565578 0.009766 0.037602
C3    C     C_R   0.461548 0.651384 0.124091 0.024920
C4    C     C_R   0.740214 0.999350 0.499528 0.541267
C5    C     C_R   0.459087 0.440381 0.977206 0.039289
C6    C     C_R   0.364256 0.404684 0.054512 0.053148
C7    C     C_R   0.313423 0.492535 0.161613 -0.138959
C8    C     C_R   0.359993 0.614216 0.195444 -0.120922
C9    C     C_R   0.506816 0.349200 0.869972 -0.112917
C10   C     C_R   0.362397 0.193624 0.912738 -0.133184
C11   C     C_R   0.521842 0.772544 0.163417 -0.001766
C12   C     C_3   0.014761 0.014427 0.603221 -0.118847
C13   C     C_R   0.712084 0.343764 0.327716 -0.158326
C14   C     C_R   0.306131 0.750357 0.625695 0.052746
C15   C     C_R   0.242611 0.639426 0.619897 -0.152404
C16   C     C_R   0.481293 0.145018 0.713353 0.556468
C17   C     C_R   0.307738 0.534671 0.556456 -0.109658
C18   C     C_R   0.441468 0.541509 0.510167 0.010338
C19   C     C_R   0.493423 0.651389 0.500421 0.178352
C20   C     C_R   0.520355 0.440489 0.461655 -0.002314
C21   C     C_R   0.635832 0.442558 0.382605 0.019519
C22   C     C_R   0.675725 0.544419 0.360135 -0.174196
C23   C     C_3   0.932560 0.907073 0.521290 -0.119400
C24   C     C_R   0.607914 0.647741 0.419900 -0.102733
C25   C     C_R   0.496078 0.341996 0.493816 0.220794
C26   C     C_R   0.678415 0.245243 0.355148 0.023935
C27   C     C_R   0.259839 0.000412 0.500151 0.558784
C28   C     C_3   0.985372 0.984948 0.396060 -0.132289
C29   C     C_3   0.043082 0.893440 0.417735 -0.131337
C30   C     C_3   0.122928 0.000718 0.499693 0.050729
C31   C     C_3   0.067572 0.092300 0.477980 -0.101590
C32   C     C_3   0.957100 0.105942 0.581548 -0.111563
C33   C     C_3   0.877202 0.998705 0.499618 0.041388
C34   C     C_R   0.318667 0.281459 0.022478 -0.129997
C35   C     C_R   0.454128 0.228297 0.835373 0.008197
C36   C     C_R   0.604577 0.811618 0.084558 -0.134093
C37   C     C_R   0.633332 0.730820 0.969422 -0.139800
C38   C     C_R   0.585727 0.608739 0.932253 -0.110957
Cu1   Cu    Cu3+1 0.529830 0.098270 0.475420 0.961902
Cu2   Cu    Cu3+1 0.470170 0.901730 0.524580 0.910876
H1    H     H_    0.081620 0.806650 0.350778 0.104184
H2    H     H_    0.970013 0.972800 0.311387 0.105181
H3    H     H_    0.250635 0.448192 0.539563 0.137023
H4    H     H_    0.030178 0.026584 0.687883 0.108587
H5    H     H_    0.874618 0.831063 0.538821 0.122829
H6    H     H_    0.320329 0.100026 0.886770 0.121437
H7    H     H_    0.237211 0.467153 0.219637 0.104174
H8    H     H_    0.245901 0.253705 0.080894 0.102754
H9    H     H_    0.762794 0.545856 0.298167 0.110091
H10   H     H_    0.141402 0.633660 0.659739 0.104775
H11   H     H_    0.645178 0.720518 0.396195 0.179797
H12   H     H_    0.583299 0.369742 0.809847 0.123274
H13   H     H_    0.125442 0.168262 0.460329 0.134431
H14   H     H_    0.918704 0.192767 0.648539 0.117882
H15   H     H_    0.650170 0.904279 0.112423 0.125169
H16   H     H_    0.612893 0.551400 0.841782 0.120403
H17   H     H_    0.696480 0.762159 0.909099 0.117120
H18   H     H_    0.312628 0.678807 0.277140 0.145662
H19   H     H_    0.736941 0.168743 0.312064 0.118411
H20   H     H_    0.798488 0.343377 0.264606 0.094420
H21   H     H_    0.253628 0.830814 0.670617 0.124453
I1    I     I_    0.355807 0.358059 0.646764 -0.405150
N1    N     N_R   0.575030 0.246270 0.438190 -0.222268
N2    N     N_R   0.425760 0.754330 0.561190 -0.238250
O1    O     O_R   0.537510 0.972500 0.318130 -0.506291
O2    O     O_R   0.487140 0.806530 0.359650 -0.523629
O3    O     O_R   0.708330 0.082950 0.479220 -0.506111
O4    O     O_R   0.657960 0.916980 0.520740 -0.524378
O5    O     O_R   0.512860 0.193470 0.640350 -0.467348
O6    O     O_R   0.462490 0.027500 0.681870 -0.506082
O7    O     O_R   0.342040 0.083020 0.479260 -0.474427
O8    O     O_R   0.291670 0.917050 0.520780 -0.522867

loop_
_geom_bond_atom_site_label_1
_geom_bond_atom_site_label_2
_ccdc_geom_bond_type
C23   H5    S    
C1    C11   S    
C7    C8    A    
C13   H20   S    
C12   C23   S    
C37   C38   A    
Cu2   O6    S    
C23   C29   S    
C36   C37   A    
C16   C35   S    
C5    C6    A    
C20   C25   A    
C18   C19   A    
C25   N1    A    
C15   H10   S    
C8    H18   S    
C23   C33   S    
C10   H6    S    
C1    O1    A    
C10   C35   A    
C26   H19   S    
C12   C30   S    
C24   H11   S    
Cu2   O2    S    
C21   C22   A    
C12   C32   S    
C27   C30   S    
Cu1   O1    S    
C9    H12   S    
C32   H14   S    
C17   C18   A    
C16   O6    A    
C3    C8    A    
Cu1   Cu2   S    
C4    O4    A    
C14   H21   S    
C6    C34   A    
C11   C36   A    
C26   N1    A    
C17   H3    S    
C5    C9    A    
C29   C30   S    
C2    C38   A    
C31   C32   S    
C19   N2    A    
C14   N2    A    
C1    O2    A    
Cu1   O5    S    
C13   C21   A    
C10   C34   A    
C31   H13   S    
C22   H9    S    
C28   C33   S    
C22   C24   A    
C13   C26   A    
C2    C5    A    
C34   H8    S    
C27   O7    A    
C15   C17   A    
C4    C33   S    
C28   C29   S    
Cu2   O8    S    
C29   H1    S    
Cu1   O3    S    
C28   C31   S    
C16   O5    A    
C4    O3    A    
C6    C7    A    
Cu1   N1    S    
Cu2   N2    S    
C32   C33   S    
C19   C24   A    
C12   H4    S    
C36   H15   S    
C30   C31   S    
C28   H2    S    
C2    C3    A    
C18   C20   A    
C25   I1    S    
C3    C11   A    
C38   H16   S    
C20   C21   A    
Cu2   O4    S    
C9    C35   A    
Cu1   O7    S    
C14   C15   A    
C37   H17   S    
C27   O8    A    
C7    H7    S    
