data_mof_unit_31381.cif
_audit_creation_date              2012-12-11T14:29:37-0500
_audit_creation_method            fapswitch 2.2
_symmetry_space_group_name_H-M    P1
_symmetry_Int_Tables_number       1
_space_group_crystal_system       triclinic
_cell_length_a                    6.945625
_cell_length_b                    14.843072
_cell_length_c                    16.192354
_cell_angle_alpha                 90.197059
_cell_angle_beta                  89.712913
_cell_angle_gamma                 89.755855
_cell_volume                      1669.29510688

loop_
_atom_site_label
_atom_site_type_symbol
_atom_type_description
_atom_site_fract_x
_atom_site_fract_y
_atom_site_fract_z
_atom_type_partial_charge
O1    O     O_R   0.494400 0.416610 0.413880 -0.546142
O2    O     O_R   0.823920 0.406790 0.585520 -0.529949
O3    O     O_R   0.994250 0.583390 0.586120 -0.526525
C1    C     C_R   0.654396 0.384462 0.613047 0.789590
O4    O     O_R   0.824110 0.405730 0.414490 -0.542342
O5    O     O_R   0.994440 0.582310 0.413870 -0.532295
C2    C     C_R   0.654848 0.381598 0.388279 0.681332
O6    O     O_R   0.494210 0.417690 0.586130 -0.526762
O7    O     O_3   0.660810 0.557940 0.500000 -0.359823
V1    V     V_3+5 0.935650 0.489250 0.500000 1.517095
O8    O     O_R   0.324160 0.593210 0.414480 -0.549700
C3    C     C_R   0.155650 0.614403 0.385888 0.732579
O9    O     O_R   0.323970 0.594270 0.585510 -0.530378
C4    C     C_R   0.153377 0.616691 0.613939 0.751600
V2    V     V_3+5 0.435660 0.510750 0.500000 1.504037
O10   O     O_3   0.160630 0.442060 0.500000 -0.358046
H1    H     H_    0.109703 0.917054 0.495150 0.155538
C5    C     C_R   0.146097 0.564100 0.794739 0.108888
C6    C     C_R   0.140888 0.542501 0.878693 -0.107909
C7    C     C_R   0.126929 0.608660 0.938319 -0.160956
C8    C     C_R   0.119372 0.698089 0.915436 -0.133638
C9    C     C_R   0.125127 0.724284 0.831287 0.059322
C10   C     C_R   0.137186 0.656473 0.768076 0.037796
C11   C     C_R   0.123199 0.817273 0.811388 -0.160802
C12   C     C_R   0.133538 0.844939 0.726943 -0.004480
C13   C     C_R   0.118631 0.777776 0.663534 0.027449
C14   C     C_R   0.135612 0.683914 0.683054 -0.165904
C15   C     C_R   0.153732 0.937479 0.701924 -0.098088
C16   C     C_R   0.166366 0.959989 0.618029 0.177548
C17   C     C_R   0.126833 0.895822 0.558736 -0.156627
C18   C     C_R   0.084540 0.807939 0.581411 -0.102206
H2    H     H_    0.147156 0.472964 0.898637 0.139159
H3    H     H_    0.122786 0.590516 0.003026 0.123896
H4    H     H_    0.110269 0.746398 0.965440 0.099987
C19   C     C_2   0.986036 0.708044 0.281652 -0.113488
C20   C     C_2   0.150527 0.682105 0.318969 -0.300597
H5    H     H_    0.850601 0.678910 0.301787 0.146567
H6    H     H_    0.287593 0.710529 0.300878 0.129734
C21   C     C_2   0.973398 0.775848 0.213952 -0.135428
C22   C     C_2   0.126335 0.814248 0.176851 -0.303518
H7    H     H_    0.829532 0.794060 0.193801 0.138083
H8    H     H_    0.271340 0.796514 0.195060 0.131261
C23   C     C_2   0.776563 0.212851 0.784797 -0.116709
C24   C     C_2   0.612960 0.175385 0.813061 -0.297033
H9    H     H_    0.910763 0.198405 0.815733 0.177942
H10   H     H_    0.476816 0.189292 0.783216 0.167772
C25   C     C_2   0.788535 0.273142 0.711835 -0.091867
C26   C     C_2   0.637613 0.318502 0.680856 -0.269415
H11   H     H_    0.930210 0.282602 0.684971 0.183108
H12   H     H_    0.495721 0.309578 0.707352 0.163961
C27   C     C_2   0.774052 0.209730 0.213406 -0.121205
C28   C     C_2   0.613554 0.186781 0.171938 -0.302043
H13   H     H_    0.909682 0.176783 0.198240 0.154309
H14   H     H_    0.480554 0.223751 0.182191 0.138985
C29   C     C_2   0.780528 0.284263 0.275474 -0.167748
C30   C     C_2   0.638152 0.305012 0.329797 -0.186745
H15   H     H_    0.913366 0.322549 0.277576 0.140763
O11   O     O_R   0.770210 0.079270 0.910680 -0.534304
O12   O     O_R   0.440150 0.091160 0.082270 -0.545681
O13   O     O_R   0.269970 0.914530 0.082860 -0.543654
C31   C     C_R   0.608592 0.114267 0.109323 0.739640
O14   O     O_R   0.440480 0.090100 0.911240 -0.527907
O15   O     O_R   0.270310 0.913460 0.910610 -0.535574
C32   C     C_R   0.609009 0.111459 0.882864 0.757427
O16   O     O_R   0.769870 0.080340 0.082930 -0.542536
O17   O     O_3   0.603660 0.938980 0.996790 -0.376224
V3    V     V_3+5 0.328750 0.007610 0.996740 1.461682
O18   O     O_R   0.940600 0.902510 0.911180 -0.539126
C33   C     C_R   0.109958 0.883956 0.880451 0.709553
O19   O     O_R   0.940270 0.903570 0.082200 -0.543828
C34   C     C_R   0.109521 0.881853 0.110295 0.733884
V4    V     V_3+5 0.828770 0.986010 0.996670 1.450915
O20   O     O_3   0.103730 0.054750 0.996710 -0.365406
I1    I     I_    0.165452 0.444546 0.723599 -0.445144
C35   C     C_1   0.467242 0.249770 0.337603 0.351486
N1    N     N_1   0.330756 0.205846 0.344253 -0.334903
C36   C     C_1   0.153943 0.012570 0.758239 0.315070
N2    N     N_1   0.151859 0.073978 0.802186 -0.344502
I2    I     I_    0.213941 0.094161 0.576037 -0.393454
C37   C     C_1   0.950620 0.763584 0.527477 0.293655
N3    N     N_1   0.837184 0.731852 0.484379 -0.321001

loop_
_geom_bond_atom_site_label_1
_geom_bond_atom_site_label_2
_ccdc_geom_bond_type
C29   C30   D    
C22   C34   S    
O2    C1    A    
C6    C7    A    
C1    O6    A    
C18   C37   S    
C21   H7    S    
C36   N2    T    
C24   C32   S    
C12   C15   A    
C13   C14   A    
O14   V3    S    
C15   C16   A    
C19   H5    S    
C26   H12   S    
C28   C31   S    
O5    C3    A    
C17   C18   A    
V2    O10   S    
C5    C6    A    
O14   C32   A    
O12   V3    S    
O8    V2    S    
O17   V4    S    
O15   C33   A    
O13   V3    S    
C24   H10   S    
O18   C33   A    
O19   C34   A    
V3    O20   S    
C10   C14   A    
C4    C14   S    
C3    C20   S    
O7    V1    S    
C22   H8    S    
O17   V3    S    
C13   C18   A    
C5    I1    S    
C30   C35   S    
O9    C4    A    
H1    C17   S    
C2    C30   S    
C6    H2    S    
C28   H14   S    
C11   C33   S    
O11   C32   A    
O15   V3    S    
O12   C31   A    
C5    C10   A    
C11   C12   A    
C25   H11   S    
C21   C22   D    
O4    C2    A    
C37   N3    T    
C8    H4    S    
O13   C34   A    
C12   C13   A    
C27   C28   D    
C27   H13   S    
C19   C20   D    
C19   C21   S    
C35   N1    T    
C16   C17   A    
C25   C26   D    
C16   I2    S    
O18   V4    S    
C15   C36   S    
C23   H9    S    
O3    C4    A    
O1    V2    S    
C7    H3    S    
O6    V2    S    
C29   H15   S    
C23   C24   D    
C9    C11   A    
O2    V1    S    
C1    C26   S    
O1    C2    A    
V4    O20   S    
O5    V1    S    
O8    C3    A    
O16   V4    S    
O9    V2    S    
O7    V2    S    
O4    V1    S    
O3    V1    S    
V1    O10   S    
O11   V4    S    
C20   H6    S    
C27   C29   S    
C31   O16   A    
C7    C8    A    
C9    C10   A    
O19   V4    S    
C8    C9    A    
C23   C25   S    
