data_mof_unit_9867.cif
_audit_creation_date              2012-12-11T15:54:42-0500
_audit_creation_method            fapswitch 2.2
_symmetry_space_group_name_H-M    P1
_symmetry_Int_Tables_number       1
_space_group_crystal_system       triclinic
_cell_length_a                    6.92637
_cell_length_b                    14.452387
_cell_length_c                    16.15781
_cell_angle_alpha                 90.203663
_cell_angle_beta                  90.4164
_cell_angle_gamma                 89.490272
_cell_volume                      1617.32189411

loop_
_atom_site_label
_atom_site_type_symbol
_atom_type_description
_atom_site_fract_x
_atom_site_fract_y
_atom_site_fract_z
_atom_type_partial_charge
O1    O     O_R   0.638180 0.333920 0.163320 -0.560711
O2    O     O_R   0.361820 0.666080 0.836680 -0.560711
O3    O     O_R   0.308470 0.344960 0.336080 -0.522586
O4    O     O_R   0.691530 0.655040 0.663920 -0.522591
O5    O     O_R   0.138140 0.166110 0.336680 -0.504818
O6    O     O_R   0.861860 0.833890 0.663320 -0.504827
C1    C     C_R   0.477197 0.367007 0.364981 0.872634
C2    C     C_R   0.522802 0.632993 0.635019 0.872614
O7    O     O_R   0.308460 0.344950 0.163930 -0.510143
O8    O     O_R   0.691540 0.655050 0.836070 -0.510142
O9    O     O_R   0.138140 0.166100 0.163310 -0.500365
O10   O     O_R   0.861860 0.833900 0.836690 -0.500365
C3    C     C_R   0.476434 0.367706 0.135316 0.800185
C4    C     C_R   0.523566 0.632293 0.864684 0.800184
O11   O     O_R   0.638180 0.333930 0.336700 -0.534657
O12   O     O_R   0.361820 0.666070 0.663300 -0.534648
O13   O     O_3   0.471670 0.191340 0.250000 -0.358815
O14   O     O_3   0.528330 0.808660 0.750000 -0.358807
V1    V     V_3+5 0.196830 0.260900 0.250000 1.696851
V2    V     V_3+5 0.803170 0.739100 0.750000 1.696853
O15   O     O_R   0.808420 0.155070 0.163920 -0.550732
O16   O     O_R   0.191580 0.844930 0.836080 -0.550734
C5    C     C_R   0.977363 0.135751 0.132857 0.800887
C6    C     C_R   0.022637 0.864250 0.867142 0.800857
O17   O     O_R   0.808420 0.155080 0.336070 -0.543403
O18   O     O_R   0.191580 0.844920 0.663930 -0.543395
C7    C     C_R   0.979623 0.131845 0.363863 0.866198
C8    C     C_R   0.020376 0.868159 0.636140 0.866202
V3    V     V_3+5 0.696830 0.239130 0.250000 1.611453
V4    V     V_3+5 0.303170 0.760870 0.750000 1.611479
O19   O     O_3   0.971850 0.308690 0.250010 -0.372695
O20   O     O_3   0.028150 0.691310 0.749990 -0.372691
C9    C     C_R   0.071020 0.191740 0.535431 0.323332
C10   C     C_R   0.929005 0.808257 0.464573 0.323342
C11   C     C_R   0.105725 0.219710 0.618033 0.369125
C12   C     C_R   0.894235 0.780290 0.381974 0.369116
C13   C     C_R   0.068911 0.158563 0.683012 0.310405
C14   C     C_R   0.930969 0.841445 0.316993 0.310401
C15   C     C_R   0.004008 0.068886 0.665000 0.181209
C16   C     C_R   0.995901 0.931119 0.335000 0.181206
C17   C     C_R   0.013364 0.032741 0.583042 -0.107494
C18   C     C_R   0.986608 0.967261 0.416959 -0.107478
C19   C     C_R   0.028879 0.096735 0.516415 -0.058350
C20   C     C_R   0.971125 0.903265 0.483588 -0.058348
C21   C     C_R   0.999638 0.935687 0.566649 -0.034974
C22   C     C_R   0.000361 0.064314 0.433353 -0.034970
C23   C     C_R   0.156294 0.998118 0.945926 -0.183478
C24   C     C_R   0.843706 0.001883 0.054073 -0.183448
H1    H     H_    0.276890 0.998644 0.903577 0.194541
H2    H     H_    0.723112 0.001356 0.096423 0.194523
C25   C     C_R   0.147429 0.065506 0.008213 0.410915
C26   C     C_R   0.852570 0.934496 0.991785 0.410934
C27   C     C_R   0.989949 0.067707 0.063764 -0.154554
C28   C     C_R   0.010050 0.932295 0.936234 -0.154574
C29   C     C_R   0.431117 0.528069 0.421760 0.319835
C30   C     C_R   0.568877 0.471930 0.578241 0.319844
C31   C     C_R   0.444776 0.592739 0.487164 0.331807
C32   C     C_R   0.555222 0.407260 0.512836 0.331804
C33   C     C_R   0.512820 0.564966 0.565870 -0.340348
C34   C     C_R   0.487177 0.435033 0.434131 -0.340353
C35   C     C_R   0.328045 0.494720 0.046331 0.400028
C36   C     C_R   0.671955 0.505280 0.953669 0.400030
C37   C     C_R   0.344053 0.557516 0.980165 -0.276470
C38   C     C_R   0.655947 0.442484 0.019835 -0.276470
H3    H     H_    0.222724 0.602607 0.965734 0.156455
H4    H     H_    0.777275 0.397393 0.034266 0.156453
C39   C     C_R   0.514306 0.563861 0.933544 -0.089620
C40   C     C_R   0.485694 0.436139 0.066456 -0.089619
O21   O     O_3   0.914938 0.809679 0.236414 -0.595958
H5    H     H_    0.902656 0.863184 0.198542 0.346989
O22   O     O_3   0.084852 0.190341 0.763590 -0.595964
H6    H     H_    0.097088 0.136843 0.801472 0.346993
O23   O     O_3   0.084395 0.256238 0.472760 -0.628570
H7    H     H_    0.088061 0.319981 0.495259 0.346309
O24   O     O_3   0.915721 0.743751 0.527242 -0.628568
H8    H     H_    0.912012 0.680010 0.504740 0.346321
O25   O     O_3   0.169127 0.308925 0.632964 -0.604629
H9    H     H_    0.199004 0.317682 0.692441 0.377058
O26   O     O_3   0.830854 0.691071 0.367048 -0.604638
H10   H     H_    0.800919 0.682318 0.307575 0.377066
Cl1   Cl    Cl    0.855525 0.018092 0.740355 -0.642028
Cl2   Cl    Cl    0.144358 0.981902 0.259630 -0.642034
Cl3   Cl    Cl    0.333736 0.147956 0.010502 -0.626196
Cl4   Cl    Cl    0.666264 0.852045 0.989497 -0.626182
Cl5   Cl    Cl    0.348618 0.564676 0.323263 -0.525082
Cl6   Cl    Cl    0.651376 0.435323 0.676738 -0.525073
Cl7   Cl    Cl    0.384844 0.710123 0.469170 -0.575432
Cl8   Cl    Cl    0.615166 0.289878 0.530829 -0.575436
O27   O     O_3   0.161306 0.491117 0.092630 -0.619512
H11   H     H_    0.066644 0.537106 0.071091 0.305383
O28   O     O_3   0.838694 0.508883 0.907370 -0.619513
H12   H     H_    0.933356 0.462894 0.928909 0.305381

loop_
_geom_bond_atom_site_label_1
_geom_bond_atom_site_label_2
_ccdc_geom_bond_type
C14   C16   A    
C37   H3    S    
O13   V3    S    
O23   H7    S    
O4    C2    A    
V1    O19   S    
C23   H1    S    
O25   H9    S    
O9    V1    S    
C36   C39   A    
C38   C40   A    
C11   C13   A    
O3    C1    A    
C2    C33   S    
C31   C33   A    
C6    C28   S    
C35   C37   A    
C18   C22   A    
O9    C5    A    
C26   Cl4   S    
O7    C3    A    
C36   C38   A    
C9    C11   A    
O5    C7    A    
O7    V1    S    
O6    C8    A    
C26   C28   A    
C4    C39   S    
O3    V1    S    
O14   V4    S    
C10   C12   A    
C10   O24   S    
C16   C18   A    
C14   O21   S    
C2    O12   A    
C29   C34   A    
C17   C19   A    
C18   C20   A    
C35   O27   S    
O11   V3    S    
O17   V3    S    
C24   C27   A    
C37   C39   A    
C8    C21   S    
C9    C19   A    
C16   Cl2   S    
C10   C20   A    
C15   Cl1   S    
C15   C17   A    
O8    C4    A    
O8    V2    S    
O28   H12   S    
C23   C25   A    
C1    O11   A    
O15   V3    S    
C11   O25   S    
C31   Cl7   S    
C25   C27   A    
C38   H4    S    
C29   Cl5   S    
O24   H8    S    
C30   Cl6   S    
C36   O28   S    
O10   V2    S    
O1    V3    S    
C29   C31   A    
C23   C28   A    
C7    C22   S    
C9    O23   S    
O18   V4    S    
C13   O22   S    
O16   C6    A    
O1    C3    A    
O12   V4    S    
C12   C14   A    
C25   Cl3   S    
C1    C34   S    
C20   C21   A    
V2    O20   S    
O16   V4    S    
C12   O26   S    
C32   Cl8   S    
O5    V1    S    
O17   C7    A    
O6    V2    S    
O10   C6    A    
O18   C8    A    
C30   C33   A    
O2    V4    S    
O15   C5    A    
O22   H6    S    
V3    O19   S    
V4    O20   S    
C35   C40   A    
C5    C27   S    
C24   H2    S    
O13   V1    S    
C30   C32   A    
O14   V2    S    
O21   H5    S    
O2    C4    A    
C19   C22   A    
O26   H10   S    
O4    V2    S    
C24   C26   A    
C13   C15   A    
C17   C21   A    
O27   H11   S    
C32   C34   A    
C3    C40   S    
