data_mof_unit_39930.cif
_audit_creation_date              2012-12-10T16:57:49-0500
_audit_creation_method            fapswitch 2.2
_symmetry_space_group_name_H-M    P1
_symmetry_Int_Tables_number       1
_space_group_crystal_system       triclinic
_cell_length_a                    7.921689
_cell_length_b                    8.612363
_cell_length_c                    19.139579
_cell_angle_alpha                 93.024645
_cell_angle_beta                  84.90852
_cell_angle_gamma                 92.364742
_cell_volume                      1297.94478611

loop_
_atom_site_label
_atom_site_type_symbol
_atom_type_description
_atom_site_fract_x
_atom_site_fract_y
_atom_site_fract_z
_atom_type_partial_charge
C1    C     C_R   0.543381 0.793236 0.498821 0.931628
C2    C     C_R   0.535177 0.401400 0.174151 -0.199503
C3    C     C_R   0.493368 0.491242 0.855572 0.002939
C4    C     C_R   0.482112 0.536551 0.147110 -0.018311
C5    C     C_R   0.644043 0.449049 0.815519 0.216547
C6    C     C_R   0.435556 0.666687 0.191320 0.201879
C7    C     C_R   0.640417 0.423766 0.741821 0.137617
C8    C     C_R   0.444773 0.658435 0.264484 0.146781
C9    C     C_R   0.492830 0.460017 0.710096 -0.125476
C10   C     C_R   0.498607 0.519017 0.291037 -0.082904
C11   C     C_R   0.473167 0.534282 0.071782 0.307455
C12   C     C_R   0.457088 0.206698 0.502581 0.931925
C13   C     C_R   0.482940 0.510010 0.931160 0.300449
C14   C     C_3   0.169393 0.434704 0.725761 -0.879149
C15   C     C_3   0.594998 0.239922 0.272631 -0.925171
C16   C     C_3   0.805859 0.431889 0.850577 -0.905517
C17   C     C_3   0.373526 0.809620 0.159495 -0.870074
C18   C     C_3   0.779111 0.337593 0.698465 -0.856350
C19   C     C_3   0.400121 0.798708 0.312764 -0.899967
C20   C     C_3   0.692937 0.993254 0.426458 -0.931570
C21   C     C_3   0.317360 0.008216 0.579453 -0.915804
C22   C     C_3   0.011092 0.314250 0.448723 -0.501320
C23   C     C_2   0.560658 0.952006 0.485782 -0.010295
C24   C     C_3   0.989437 0.686241 0.551029 -0.517810
C25   C     C_2   0.442761 0.048271 0.517568 -0.001342
C26   C     C_R   0.498035 0.486332 0.633992 0.866213
C27   C     C_R   0.499821 0.503795 0.366232 0.876241
C28   C     C_R   0.338795 0.470110 0.752849 0.165105
C29   C     C_R   0.543776 0.390787 0.245627 0.152624
C30   C     C_R   0.341788 0.492970 0.824822 -0.230383
H1    H     H_    0.223888 0.507992 0.857566 0.167454
H2    H     H_    0.792748 0.455736 0.908086 0.251244
H3    H     H_    0.849749 0.311236 0.842817 0.238585
H4    H     H_    0.318465 0.897173 0.198366 0.245132
H5    H     H_    0.480557 0.868097 0.128512 0.249157
H6    H     H_    0.272399 0.774706 0.124555 0.243420
H7    H     H_    0.723794 0.257753 0.658307 0.243902
H8    H     H_    0.869227 0.421263 0.671659 0.262445
H9    H     H_    0.845934 0.259599 0.729768 0.233173
H10   H     H_    0.424423 0.785067 0.367762 0.250571
H11   H     H_    0.478249 0.901689 0.295325 0.241391
H12   H     H_    0.569723 0.302904 0.138820 0.166899
H13   H     H_    0.263415 0.821816 0.312238 0.249783
H14   H     H_    0.722680 0.890684 0.390407 0.247891
H15   H     H_    0.648335 0.081662 0.393295 0.247066
H16   H     H_    0.811795 0.032994 0.449195 0.253744
H17   H     H_    0.302769 0.109642 0.617595 0.229434
H18   H     H_    0.191651 0.978541 0.560178 0.249019
H19   H     H_    0.359975 0.912747 0.609673 0.244252
H20   H     H_    0.918626 0.268806 0.411902 0.176194
H21   H     H_    0.131465 0.331306 0.416356 0.220146
H22   H     H_    0.019965 0.227904 0.489151 0.187648
H23   H     H_    0.177241 0.353877 0.678638 0.257174
H24   H     H_    0.082470 0.732183 0.587516 0.178920
H25   H     H_    0.980762 0.772376 0.510484 0.197669
H26   H     H_    0.869190 0.669566 0.583585 0.216908
H27   H     H_    0.090318 0.368422 0.765035 0.233721
H28   H     H_    0.108961 0.544495 0.715771 0.250769
H29   H     H_    0.714002 0.259176 0.298886 0.256323
H30   H     H_    0.492089 0.195264 0.310341 0.222153
H31   H     H_    0.617647 0.149175 0.229746 0.244308
H32   H     H_    0.903026 0.516907 0.829117 0.245676
N1    N     N_R   0.397086 0.400964 0.970003 -0.164649
N2    N     N_R   0.557245 0.644659 0.032878 -0.168194
N3    N     N_R   0.392981 0.412556 0.039419 -0.171830
N4    N     N_R   0.561505 0.633068 0.963299 -0.166748
N5    N     N_2   0.950330 0.457950 0.481240 0.002428
N6    N     N_2   0.049670 0.542050 0.518760 -0.001837
O1    O     O_R   0.389250 0.738570 0.504600 -0.614172
O2    O     O_R   0.610750 0.261430 0.495400 -0.614892
O3    O     O_R   0.678400 0.711620 0.492580 -0.628795
O4    O     O_R   0.321600 0.288380 0.507420 -0.638312
O5    O     O_R   0.355380 0.513500 0.607880 -0.608321
O6    O     O_R   0.644620 0.486500 0.392120 -0.605899
O7    O     O_R   0.644530 0.486550 0.595850 -0.630013
O8    O     O_R   0.355470 0.513450 0.404150 -0.624513
Zn1   Zn    Zn3+2 0.306930 0.517990 0.508030 0.932279
Zn2   Zn    Zn3+2 0.693070 0.482010 0.491970 0.934840

loop_
_geom_bond_atom_site_label_1
_geom_bond_atom_site_label_2
_ccdc_geom_bond_type
C10   C27   S    
N1    N3    A    
O2    Zn2   S    
C15   H30   S    
O1    Zn1   S    
C21   H19   S    
C24   H25   S    
C1    O3    A    
C2    C29   A    
C18   H7    S    
C30   H1    S    
C24   H24   S    
C26   O5    A    
C6    C17   S    
C5    C16   S    
C21   C25   S    
C17   H6    S    
C27   O6    A    
C20   H15   S    
C3    C13   S    
C22   H20   S    
C21   H18   S    
C12   O4    A    
N5    Zn2   S    
C16   H32   S    
C20   H14   S    
C19   H13   S    
C9    C26   S    
C15   C29   S    
C13   N4    A    
C14   H28   S    
C8    C19   S    
N5    N6    D    
O8    Zn1   S    
C4    C6    A    
C11   N2    A    
C5    C7    A    
C6    C8    A    
C1    O1    A    
N2    N4    A    
C3    C30   A    
C2    C4    A    
C18   H9    S    
O4    Zn1   S    
C16   H3    S    
C13   N1    A    
C20   C23   S    
C7    C18   S    
C26   O7    A    
C15   H31   S    
C4    C11   S    
C1    C23   S    
C16   H2    S    
C17   H4    S    
C27   O8    A    
C22   H22   S    
N6    Zn1   S    
C7    C9    A    
C14   H27   S    
C12   O2    A    
C15   H29   S    
C3    C5    A    
C24   H26   S    
C12   C25   S    
C28   C30   A    
C18   H8    S    
C10   C29   A    
C2    H12   S    
C23   C25   D    
O7    Zn2   S    
C22   N5    S    
C19   H10   S    
C24   N6    S    
C19   H11   S    
C14   H23   S    
C8    C10   A    
O6    Zn2   S    
O5    Zn1   S    
C17   H5    S    
C14   C28   S    
O3    Zn2   S    
C20   H16   S    
C11   N3    A    
C9    C28   A    
C22   H21   S    
C21   H17   S    
