data_mof_unit_9194.cif
_audit_creation_date              2012-12-11T14:33:55-0500
_audit_creation_method            fapswitch 2.2
_symmetry_space_group_name_H-M    P1
_symmetry_Int_Tables_number       1
_space_group_crystal_system       triclinic
_cell_length_a                    14.09709
_cell_length_b                    14.091383
_cell_length_c                    27.27058
_cell_angle_alpha                 89.963028
_cell_angle_beta                  90.020616
_cell_angle_gamma                 120.002219
_cell_volume                      4691.35497933

loop_
_atom_site_label
_atom_site_type_symbol
_atom_type_description
_atom_site_fract_x
_atom_site_fract_y
_atom_site_fract_z
_atom_type_partial_charge
C1    C     C_R   0.237205 0.785179 0.570126 0.540045
C2    C     C_R   0.214802 0.451942 0.570149 0.539888
C3    C     C_R   0.547755 0.762651 0.570216 0.540304
C4    C     C_3   0.607979 0.710017 0.797243 -0.130586
C5    C     C_3   0.289954 0.896011 0.797050 -0.133643
C6    C     C_3   0.103951 0.393742 0.797107 -0.135318
C7    C     C_3   0.603437 0.702807 0.740126 -0.185699
C8    C     C_3   0.297178 0.899607 0.739924 -0.189739
C9    C     C_3   0.100331 0.396996 0.739981 -0.187371
C10   C     C_1   0.675116 0.847604 0.866711 -0.022119
C11   C     C_1   0.151803 0.828640 0.866336 -0.023710
C12   C     C_1   0.172346 0.324616 0.866680 -0.031695
C13   C     C_1   0.597608 0.797069 0.664025 -0.061627
C14   C     C_1   0.202240 0.800817 0.663768 -0.059695
C15   C     C_1   0.199115 0.400850 0.663843 -0.060600
C16   C     C_1   0.581280 0.785338 0.620466 0.011383
C17   C     C_1   0.214199 0.796123 0.620264 0.011678
C18   C     C_1   0.203767 0.417641 0.620312 0.011408
C19   C     C_R   0.105688 0.221470 0.088393 0.546715
C20   C     C_R   0.778491 0.884180 0.088385 0.546713
C21   C     C_R   0.115787 0.894260 0.088385 0.549439
C22   C     C_R   0.108182 0.222426 0.951932 0.567180
C23   C     C_R   0.777673 0.885836 0.951884 0.570104
C24   C     C_R   0.114139 0.891913 0.951850 0.560720
C25   C     C_R   0.627185 0.898659 0.362517 -0.102752
C26   C     C_R   0.101295 0.728767 0.362621 -0.102762
C27   C     C_R   0.271405 0.372890 0.362552 -0.102840
C28   C     C_R   0.656228 0.914888 0.313107 0.012455
C29   C     C_R   0.085059 0.741527 0.313203 0.012323
C30   C     C_R   0.258626 0.343877 0.313145 0.012359
C31   C     C_R   0.694567 0.935010 0.211700 0.015406
C32   C     C_R   0.064908 0.759571 0.211780 0.015459
C33   C     C_R   0.240441 0.305476 0.211748 0.015350
C34   C     C_R   0.232667 0.788283 0.432115 0.545005
C35   C     C_R   0.211764 0.444451 0.432101 0.544984
C36   C     C_R   0.555584 0.767364 0.432105 0.545125
C37   C     C_R   0.678231 0.012358 0.236708 -0.119972
C38   C     C_R   0.987490 0.666006 0.236876 -0.120019
C39   C     C_R   0.334080 0.321821 0.236811 -0.119823
C40   C     C_R   0.657150 0.001079 0.286957 -0.067361
C41   C     C_R   0.998790 0.656280 0.287134 -0.067436
C42   C     C_R   0.343872 0.342944 0.287053 -0.067341
C43   C     C_R   0.715798 0.945024 0.161265 -0.134319
C44   C     C_R   0.054867 0.770729 0.161336 -0.134359
C45   C     C_R   0.229221 0.284179 0.161319 -0.134270
C46   C     C_R   0.729779 0.865290 0.137062 0.004057
C47   C     C_R   0.134681 0.864316 0.137051 0.003416
C48   C     C_R   0.135568 0.270233 0.137060 0.003984
C49   C     C_R   0.657095 0.743448 0.364845 -0.089743
C50   C     C_R   0.256697 0.913770 0.364780 -0.089794
C51   C     C_R   0.086382 0.343078 0.364769 -0.089775
C52   C     C_R   0.679676 0.753187 0.314800 0.000779
C53   C     C_R   0.246912 0.926556 0.314727 0.000769
C54   C     C_R   0.073563 0.320478 0.314726 0.000777
C55   C     C_R   0.677308 0.839045 0.288681 0.019190
C56   C     C_R   0.160975 0.838343 0.288688 0.019180
C57   C     C_R   0.161760 0.322819 0.288666 0.019202
C58   C     C_R   0.697403 0.675566 0.289576 0.217814
C59   C     C_R   0.324567 0.021809 0.289416 0.217950
C60   C     C_R   0.978261 0.302737 0.289445 0.217929
C61   C     C_R   0.708107 0.682623 0.238709 -0.130128
C62   C     C_R   0.317543 0.025312 0.238541 -0.130058
C63   C     C_R   0.974653 0.292049 0.238581 -0.130060
C64   C     C_R   0.704681 0.766709 0.213038 -0.028712
C65   C     C_R   0.233394 0.937795 0.212951 -0.028671
C66   C     C_R   0.062139 0.295452 0.212969 -0.028721
C67   C     C_3   0.530581 0.834477 0.742840 -0.233665
C68   C     C_3   0.162532 0.695922 0.742542 -0.236361
C69   C     C_3   0.304152 0.467328 0.742496 -0.236509
C70   C     C_R   0.692474 0.847134 0.237847 0.052825
C71   C     C_R   0.152880 0.845313 0.237847 0.052866
C72   C     C_R   0.154705 0.307630 0.237835 0.052834
C73   C     C_R   0.717445 0.773357 0.162718 -0.121156
C74   C     C_R   0.226743 0.943789 0.162625 -0.121260
C75   C     C_R   0.056047 0.282673 0.162654 -0.121213
C76   C     C_R   0.620692 0.808469 0.387382 -0.024059
C77   C     C_R   0.191594 0.812396 0.387401 -0.024060
C78   C     C_R   0.187745 0.379408 0.387364 -0.024026
C79   C     C_3   0.729436 0.903812 0.728185 -0.181335
C80   C     C_3   0.096780 0.828336 0.727720 -0.186630
C81   C     C_3   0.172721 0.268590 0.728319 -0.180415
C82   C     C_3   0.751952 0.912779 0.783995 0.134174
C83   C     C_3   0.089745 0.844759 0.783409 0.163161
C84   C     C_3   0.157759 0.246125 0.784182 0.158706
C85   C     C_1   0.715858 0.864553 0.907120 0.035499
C86   C     C_1   0.135172 0.851979 0.906878 0.010555
C87   C     C_1   0.148580 0.284112 0.907132 0.012043
C88   C     C_3   0.614045 0.808592 0.717550 -0.016308
C89   C     C_3   0.190590 0.805913 0.717226 -0.018543
C90   C     C_3   0.194302 0.384514 0.717390 -0.017778
C91   C     C_3   0.550825 0.849966 0.799325 -0.214097
C92   C     C_3   0.144429 0.700362 0.798786 -0.217052
C93   C     C_3   0.300095 0.446014 0.798865 -0.215454
C94   C     C_3   0.647027 0.831265 0.813776 0.008255
C95   C     C_3   0.167873 0.816920 0.813372 0.005271
C96   C     C_3   0.184096 0.352155 0.813681 0.007865
Cr1   Cr    Cr6+3 0.164410 0.584450 0.499910 1.073642
Cr2   Cr    Cr6+3 0.415550 0.579960 0.499910 1.073645
Cr3   Cr    Cr6+3 0.420040 0.835590 0.499910 1.073756
Cr4   Cr    Cr6+3 0.155170 0.075460 0.019960 1.039951
Cr5   Cr    Cr6+3 0.924540 0.079710 0.019960 1.062758
Cr6   Cr    Cr6+3 0.920290 0.844830 0.019960 1.038834
H1    H     H_    0.564994 0.931308 0.810551 0.212027
H2    H     H_    0.060713 0.635812 0.808772 0.216254
H3    H     H_    0.365460 0.428214 0.809068 0.214990
H4    H     H_    0.445682 0.766864 0.735718 0.106484
H5    H     H_    0.230126 0.678177 0.736310 0.108120
H6    H     H_    0.321532 0.552448 0.735815 0.108118
H7    H     H_    0.474965 0.790201 0.818952 0.085568
H8    H     H_    0.200311 0.680057 0.819230 0.088694
H9    H     H_    0.319468 0.522366 0.818926 0.087890
H10   H     H_    0.725337 0.015959 0.141395 0.109978
H11   H     H_    0.983846 0.709418 0.141528 0.110187
H12   H     H_    0.290564 0.274572 0.141500 0.110218
H13   H     H_    0.601758 0.951079 0.380343 0.177321
H14   H     H_    0.048796 0.650975 0.380519 0.177297
H15   H     H_    0.349206 0.398263 0.380419 0.177291
H16   H     H_    0.679670 0.080186 0.217292 0.128790
H17   H     H_    0.919597 0.599646 0.217522 0.128808
H18   H     H_    0.400441 0.320358 0.217442 0.129080
H19   H     H_    0.640767 0.059271 0.305304 0.231301
H20   H     H_    0.940560 0.581776 0.305552 0.231582
H21   H     H_    0.418422 0.359345 0.305439 0.231226
H22   H     H_    0.727267 0.710760 0.144105 0.128845
H23   H     H_    0.289427 0.016086 0.143943 0.128871
H24   H     H_    0.983683 0.272904 0.144001 0.128713
H25   H     H_    0.720402 0.623118 0.218841 0.122819
H26   H     H_    0.377099 0.097021 0.218605 0.122968
H27   H     H_    0.902890 0.279752 0.218671 0.122992
H28   H     H_    0.538837 0.910878 0.726881 0.154359
H29   H     H_    0.086831 0.628132 0.725954 0.152992
H30   H     H_    0.371995 0.459325 0.726062 0.152198
H31   H     H_    0.657107 0.678505 0.385792 0.218686
H32   H     H_    0.321741 0.978682 0.385663 0.218666
H33   H     H_    0.021458 0.343103 0.385671 0.218664
H34   H     H_    0.791990 0.891427 0.708833 0.136041
H35   H     H_    0.109672 0.902800 0.707686 0.132421
H36   H     H_    0.097965 0.206408 0.708720 0.133743
H37   H     H_    0.735852 0.980244 0.713154 0.192769
H38   H     H_    0.019631 0.758139 0.713433 0.194224
H39   H     H_    0.242743 0.261828 0.713725 0.193019
H40   H     H_    0.814091 0.888460 0.790496 0.196920
H41   H     H_    0.118669 0.932447 0.789121 0.219199
H42   H     H_    0.070562 0.186235 0.790489 0.183456
H43   H     H_    0.525070 0.631016 0.728542 0.118482
H44   H     H_    0.368083 0.891798 0.728131 0.120046
H45   H     H_    0.107683 0.475549 0.728047 0.119246
H46   H     H_    0.670049 0.690267 0.725447 0.199367
H47   H     H_    0.311027 0.979537 0.725564 0.197969
H48   H     H_    0.020605 0.330572 0.725679 0.200490
H49   H     H_    0.522978 0.657016 0.811022 0.112754
H50   H     H_    0.340349 0.860799 0.810618 0.115158
H51   H     H_    0.138341 0.479386 0.810473 0.114247
O1    O     O_R   0.137150 0.468200 0.553200 -0.496816
O2    O     O_R   0.531800 0.668950 0.553200 -0.496973
O3    O     O_R   0.331050 0.862850 0.553200 -0.497088
O4    O     O_R   0.179100 0.982980 0.967000 -0.515226
O5    O     O_R   0.017020 0.196120 0.967000 -0.487301
O6    O     O_R   0.803880 0.820900 0.967000 -0.526798
O7    O     O_R   0.173970 0.688730 0.549930 -0.496827
O8    O     O_R   0.311270 0.485240 0.549930 -0.496823
O9    O     O_R   0.514760 0.826030 0.549930 -0.496686
O10   O     O_R   0.140110 0.470540 0.446010 -0.502300
O11   O     O_R   0.529460 0.669570 0.446010 -0.502297
O12   O     O_R   0.330430 0.859890 0.446010 -0.502398
O13   O     O_R   0.176710 0.690910 0.450560 -0.495135
O14   O     O_R   0.309090 0.485800 0.450560 -0.495166
O15   O     O_R   0.514200 0.823290 0.450560 -0.495086
O16   O     O_3   0.333333 0.666667 0.499990 -0.300160
O17   O     O_R   0.176750 0.985260 0.074180 -0.522141
O18   O     O_R   0.014740 0.191490 0.074180 -0.525203
O19   O     O_R   0.808510 0.823250 0.074180 -0.523110
O20   O     O_R   0.146100 0.172630 0.068980 -0.497826
O21   O     O_R   0.827370 0.973470 0.068980 -0.500210
O22   O     O_R   0.026530 0.853900 0.068980 -0.496659
O23   O     O_3   1.000000 0.000000 0.020040 -0.222722
O24   O     O_R   0.148270 0.170520 0.969620 -0.498794
O25   O     O_R   0.829480 0.977750 0.969620 -0.460319
O26   O     O_R   0.022250 0.851730 0.969620 -0.493394
C97   C     C_2   0.671018 0.659206 0.818578 0.288681
H52   H     H_    0.731286 0.700164 0.847043 0.166733
O27   O     O_2   0.650142 0.567703 0.805814 -0.415724
C98   C     C_2   0.343925 0.009794 0.818668 0.285717
H53   H     H_    0.303516 0.031228 0.846581 0.173722
O28   O     O_2   0.436934 0.077969 0.806562 -0.417380
C99   C     C_2   0.990275 0.333427 0.818800 0.286936
H54   H     H_    0.970065 0.273797 0.847681 0.197973
O29   O     O_2   0.920930 0.355961 0.805843 -0.415913
S1    S     S_3+6 0.703265 0.566939 0.319766 0.014982
O30   O     O_2   0.795405 0.614318 0.356292 -0.249975
O31   O     O_2   0.597918 0.496204 0.346697 -0.272183
O32   O     O_3   0.724536 0.489037 0.279592 -0.517743
H55   H     H_    0.654669 0.447799 0.261433 0.354307
S2    S     S_3+6 0.433141 0.136380 0.319516 0.014970
O33   O     O_2   0.385773 0.181185 0.356007 -0.249752
O34   O     O_2   0.503911 0.101821 0.346475 -0.272292
O35   O     O_3   0.510929 0.235523 0.279261 -0.518401
H56   H     H_    0.552350 0.206984 0.261198 0.354286
S3    S     S_3+6 0.863738 0.296747 0.319560 0.015059
O36   O     O_2   0.818924 0.204478 0.356061 -0.249690
O37   O     O_2   0.898287 0.402058 0.346509 -0.272240
O38   O     O_3   0.764653 0.275517 0.279321 -0.518142
H57   H     H_    0.793260 0.345487 0.261208 0.354118
S4    S     S_3+6 0.817239 0.054079 0.803341 -0.022830
O39   O     O_2   0.888709 0.125242 0.762428 -0.350501
O40   O     O_2   0.736181 0.089890 0.815737 -0.205282
O41   O     O_3   0.894423 0.070798 0.853155 -0.529649
H58   H     H_    0.943697 0.043046 0.843453 0.383001
S5    S     S_3+6 0.949164 0.776547 0.803558 -0.038863
O42   O     O_2   0.877089 0.767815 0.761208 -0.327109
O43   O     O_2   0.911671 0.663280 0.822788 -0.264692
O44   O     O_3   0.937433 0.852820 0.848022 -0.559729
H59   H     H_    0.917721 0.807552 0.878109 0.364676
S6    S     S_3+6 0.228706 0.176381 0.804689 -0.046587
O45   O     O_2   0.243535 0.117179 0.762234 -0.322951
O46   O     O_2   0.339505 0.253474 0.825895 -0.266139
O47   O     O_3   0.150991 0.084488 0.847715 -0.561347
H60   H     H_    0.193598 0.109580 0.878528 0.366771

loop_
_geom_bond_atom_site_label_1
_geom_bond_atom_site_label_2
_ccdc_geom_bond_type
C15   C18   T    
C79   H37   S    
C10   C85   T    
C82   C94   S    
C7    H43   S    
C2    C18   S    
C33   C45   A    
S2    O34   D    
C48   C75   A    
C82   H40   S    
C27   C78   A    
C92   H8    S    
Cr2   O8    S    
C6    C9    S    
C53   C59   A    
C54   C60   A    
C55   C70   A    
C25   C28   A    
C40   H19   S    
C67   C88   S    
C33   C39   A    
C5    H50   S    
C31   C43   A    
C60   C63   A    
C19   O18   A    
Cr3   O15   S    
C37   C40   A    
C69   C93   S    
C25   H13   S    
C34   C77   S    
C64   C70   A    
S6    O46   D    
C53   C56   A    
S2    O35   S    
C28   C40   A    
C11   C86   T    
Cr6   O23   S    
C80   H35   S    
C30   C57   A    
C36   O15   A    
S5    O44   S    
Cr1   O16   S    
C84   C96   S    
C80   C89   S    
S1    O31   D    
C23   O25   A    
Cr5   O25   S    
C36   C76   S    
C60   S3    S    
C93   H3    S    
Cr2   O16   S    
C51   H33   S    
C45   H12   S    
C28   C55   A    
C31   C70   A    
C20   O21   A    
C37   H16   S    
C68   C92   S    
S1    O32   S    
C84   S6    S    
C21   O22   A    
C73   H22   S    
C23   O6    A    
Cr4   O23   S    
S3    O38   S    
C35   O14   A    
C64   C73   A    
C68   H5    S    
C32   C38   A    
C39   C42   A    
C34   O12   A    
Cr2   O14   S    
C33   C72   A    
C44   C47   A    
C1    O3    A    
C29   C41   A    
C49   C52   A    
C58   C61   A    
C81   H39   S    
S2    O33   D    
C63   C66   A    
S3    O36   D    
C2    O1    A    
C21   C47   S    
C27   C30   A    
Cr6   O26   S    
C14   C17   T    
Cr5   O21   S    
S1    O30   D    
C4    C97   S    
C80   C83   S    
Cr4   O24   S    
Cr4   O4    S    
C2    O8    A    
C67   C91   S    
C79   C88   S    
C5    C95   S    
C69   H6    S    
C97   O27   D    
C42   H21   S    
C68   C89   S    
C32   C71   A    
C27   H15   S    
C59   S2    S    
Cr6   O19   S    
C81   H36   S    
C66   C72   A    
C9    H48   S    
C50   C53   A    
O38   H57   S    
Cr4   O17   S    
O41   H58   S    
C26   C77   A    
Cr1   O7    S    
C38   C41   A    
C21   O17   A    
C50   H32   S    
S6    O45   D    
C22   O5    A    
C4    C7    S    
O47   H60   S    
C22   C87   S    
C9    H45   S    
C92   C95   S    
C35   O10   A    
C65   C74   A    
C31   C37   A    
C41   H20   S    
Cr6   O6    S    
C61   C64   A    
C98   H53   S    
C19   O20   A    
C14   C89   S    
C79   H34   S    
C5    C8    S    
Cr3   O9    S    
Cr1   O10   S    
C7    C88   S    
S4    O41   S    
C56   C71   A    
C83   C95   S    
Cr3   O3    S    
C83   H41   S    
C58   S1    S    
C3    O2    A    
S5    O42   D    
C32   C44   A    
C49   C76   A    
C61   H25   S    
Cr1   O1    S    
S4    O39   D    
C83   S5    S    
C52   C58   A    
C93   H9    S    
C4    C94   S    
C81   C90   S    
Cr3   O12   S    
C3    O9    A    
S4    O40   D    
Cr5   O5    S    
C93   C96   S    
C6    C96   S    
C62   H26   S    
C67   H28   S    
C43   H10   S    
C38   H17   S    
C99   O29   D    
C69   C90   S    
C50   C77   A    
C81   C84   S    
C97   H52   S    
C36   O11   A    
C7    H46   S    
C45   C48   A    
C11   C95   S    
C4    H49   S    
C49   H31   S    
Cr2   O2    S    
C59   C62   A    
C62   C65   A    
C20   O19   A    
C24   O4    A    
C1    O7    A    
C8    H44   S    
C47   C74   A    
C91   H1    S    
S6    O47   S    
C9    C90   S    
C44   H11   S    
C79   C82   S    
Cr2   O11   S    
C52   C55   A    
C67   H4    S    
Cr3   O16   S    
C29   C56   A    
C68   H29   S    
C6    C99   S    
C35   C78   S    
C1    C17   S    
C25   C76   A    
O32   H55   S    
C51   C54   A    
C75   H24   S    
C98   O28   D    
C8    H47   S    
Cr6   O22   S    
C51   C78   A    
C12   C87   T    
C80   H38   S    
C91   C94   S    
C82   S4    S    
C91   H7    S    
C69   H30   S    
C66   C75   A    
C13   C88   S    
S5    O43   D    
C24   O26   A    
Cr5   O18   S    
C30   C42   A    
C63   H27   S    
C57   C72   A    
O35   H56   S    
C43   C46   A    
C26   H14   S    
C6    H51   S    
C92   H2    S    
C74   H23   S    
C65   C71   A    
O44   H59   S    
C26   C29   A    
C39   H18   S    
C23   C85   S    
C13   C16   T    
Cr4   O20   S    
S3    O37   D    
C84   H42   S    
C12   C96   S    
Cr5   O23   S    
C8    C89   S    
C22   O24   A    
C99   H54   S    
C34   O13   A    
C24   C86   S    
C5    C98   S    
C46   C73   A    
C20   C46   S    
C3    C16   S    
Cr1   O13   S    
C19   C48   S    
C15   C90   S    
C54   C57   A    
C10   C94   S    
