data_mof_unit_66823.cif
_audit_creation_date              2013-03-05T15:41:44-0500
_audit_creation_method            fapswitch 2.2
_symmetry_space_group_name_H-M    P1
_symmetry_Int_Tables_number       1
_space_group_crystal_system       triclinic
_cell_length_a                    8.731574
_cell_length_b                    15.472295
_cell_length_c                    15.654854
_cell_angle_alpha                 97.839141
_cell_angle_beta                  101.046702
_cell_angle_gamma                 98.136835
_cell_volume                      2025.53941449

loop_
_atom_site_label
_atom_site_type_symbol
_atom_site_description
_atom_site_fract_x
_atom_site_fract_y
_atom_site_fract_z
_atom_type_partial_charge
P1    P     P_3+3 0.004200 0.709230 0.580350 0.464866
O1    O     O_2   0.174080 0.723060 0.553930 -0.305971
O2    O     O_3   0.901570 0.609580 0.550840 -0.367118
O3    O     O_3   0.370350 0.665080 0.388270 -0.361145
O4    O     O_2   0.345263 0.812499 0.480698 -0.316869
O5    O     O_3   0.058553 0.739383 0.694999 -0.612144
O6    O     O_3   0.326568 0.827110 0.320890 -0.613167
H1    H     H_    0.282570 0.714418 0.229089 0.018546
C1    C     C_3   0.249972 0.830104 0.167858 -1.101171
H2    H     H_    0.135757 0.840886 0.182925 0.293119
H3    H     H_    0.320029 0.895150 0.165715 0.258525
P2    P     P_3+3 0.305000 0.425570 0.290900 0.612112
P3    P     P_3+3 0.872639 0.604229 0.229465 0.505582
O7    O     O_2   0.134790 0.452800 0.278150 -0.298805
O8    O     O_3   0.937650 0.618620 0.340860 -0.370461
O9    O     O_2   0.987806 0.550614 0.193734 -0.283900
O10   O     O_3   0.242195 0.313558 0.231580 -0.570113
O11   O     O_3   0.920139 0.710465 0.205060 -0.507556
C2    C     C_3   0.901448 0.771700 0.276884 0.291286
H4    H     H_    0.006874 0.780894 0.332092 0.099829
H5    H     H_    0.794597 0.748435 0.302274 0.041213
C3    C     C_3   0.882367 0.861632 0.250416 0.153139
H6    H     H_    0.791930 0.888302 0.283027 0.074470
H7    H     H_    0.995082 0.906820 0.277993 0.037955
C4    C     C_3   0.723758 0.316121 0.240253 0.943143
H8    H     H_    0.805702 0.379313 0.269654 0.007070
C5    C     C_3   0.775318 0.274644 0.152251 0.027665
H9    H     H_    0.720220 0.299779 0.094346 0.112511
Ba1   Ba    Ba6+2 0.154730 0.543770 0.458180 1.272145
C6    C     C_3   0.126506 0.674110 0.733665 0.485806
H10   H     H_    0.217666 0.652713 0.699077 0.189810
H11   H     H_    0.031805 0.617673 0.732885 0.127736
C7    C     C_3   0.207332 0.713163 0.829187 -1.063488
H12   H     H_    0.316883 0.760391 0.831315 0.303412
H13   H     H_    0.237626 0.660017 0.866530 0.231434
H14   H     H_    0.128354 0.749016 0.862695 0.246080
C8    C     C_3   0.250402 0.238935 0.272817 0.798158
C9    C     C_3   0.281410 0.158343 0.210832 0.872467
H15   H     H_    0.379988 0.183062 0.182036 0.047367
P4    P     P_3+3 0.806080 0.290760 0.419570 0.549135
O12   O     O_2   0.636200 0.276890 0.446040 -0.238933
O13   O     O_3   0.908720 0.390410 0.449080 -0.416495
O14   O     O_3   0.439930 0.334910 0.611650 -0.420265
O15   O     O_3   0.733071 0.255683 0.301592 -0.527093
P5    P     P_3+3 0.936726 0.394691 0.774134 0.593053
O16   O     O_3   0.402060 0.547860 0.609750 -0.334946
O17   O     O_3   0.872630 0.381370 0.659060 -0.358188
O18   O     O_2   0.822642 0.447827 0.813890 -0.300150
O19   O     O_3   0.890125 0.289847 0.801051 -0.454706
Ba2   Ba    Ba6+2 0.655430 0.456220 0.541750 0.942352
P6    P     P_3+3 0.427262 0.780819 0.406706 0.495254
C10   C     C_3   0.340440 0.785099 0.238234 1.129278
H16   H     H_    0.224186 0.788861 0.101429 0.218653
O20   O     O_3   0.408220 0.452130 0.390170 -0.386356
C11   C     C_3   0.668589 0.728340 0.725040 0.516128
H17   H     H_    0.709115 0.685973 0.673466 0.047886
C12   C     C_3   0.805777 0.767885 0.802725 0.147541
H18   H     H_    0.897493 0.805536 0.775743 0.088043
H19   H     H_    0.851176 0.712778 0.832734 0.105348
P7    P     P_3+3 0.505748 0.574195 0.723483 0.518830
O21   O     O_2   0.675490 0.547140 0.721820 -0.351504
O22   O     O_3   0.539408 0.688688 0.754846 -0.548316
C13   C     C_3   0.929153 0.226020 0.739380 0.386829
H20   H     H_    0.861590 0.225963 0.671505 0.082420
H21   H     H_    0.057627 0.240345 0.739482 -0.041733
C14   C     C_3   0.886576 0.132778 0.761003 0.422076
H22   H     H_    0.766123 0.103489 0.720868 0.151178
P8    P     P_3+3 0.384303 0.219329 0.604133 0.423656
C15   C     C_3   0.465517 0.207436 0.774137 0.729978
H23   H     H_    0.365802 0.245841 0.770610 -0.988346
O23   O     O_2   0.470750 0.186079 0.531828 -0.314868
O24   O     O_3   0.500717 0.183244 0.691594 -0.503313
C16   C     C_3   0.420312 0.121545 0.810468 0.914323
H24   H     H_    0.300270 0.089404 0.770982 -0.053510
C17   C     C_R   0.165533 0.165335 0.558749 0.171755
C18   C     C_R   0.101659 0.072782 0.549604 -0.010021
C19   C     C_R   0.963379 0.887684 0.535806 -0.085641
C20   C     C_R   0.120824 0.920152 0.575621 -0.194441
C21   C     C_R   0.191892 0.006767 0.575148 0.210559
C22   C     C_R   0.897682 0.795039 0.526916 0.255819
H25   H     H_    0.194585 0.876496 0.603515 0.224900
C23   C     C_R   0.740070 0.766662 0.481348 -0.469109
C24   C     C_R   0.905888 0.197391 0.477713 0.339301
C25   C     C_R   0.841707 0.103765 0.472393 -0.183903
C26   C     C_R   0.937220 0.042974 0.510248 -0.002753
C27   C     C_R   0.689043 0.065686 0.424484 0.643749
C28   C     C_R   0.622161 0.977986 0.425854 -0.308645
C29   C     C_R   0.710433 0.917687 0.459965 -0.072847
C30   C     C_R   0.870734 0.949336 0.501493 0.010169
C31   C     C_R   0.644072 0.826029 0.449794 0.319773
C32   C     C_R   0.063956 0.221904 0.523285 -0.522691
H26   H     H_    0.501190 0.956811 0.391931 0.210783
H27   H     H_    0.687709 0.697752 0.475046 0.193229
H28   H     H_    0.117071 0.285613 0.518219 0.102260
C33   C     C_R   0.239101 0.484583 0.769744 0.162752
C34   C     C_R   0.147534 0.447288 0.823694 -0.021707
C35   C     C_R   0.218035 0.447824 0.913188 0.435092
C36   C     C_R   0.366674 0.503255 0.954842 -0.014650
C37   C     C_R   0.444757 0.548523 0.896548 -0.398116
C38   C     C_R   0.393997 0.527409 0.803438 0.225327
C39   C     C_R   0.602348 0.536429 0.091842 0.037029
C40   C     C_R   0.663580 0.551364 0.184064 0.167556
C41   C     C_R   0.404120 0.496319 0.213251 0.231011
C42   C     C_R   0.336951 0.504616 0.121733 0.452542
C43   C     C_R   0.436321 0.513875 0.056791 -0.174142
C44   C     C_R   0.567137 0.527941 0.242455 -0.461877
H29   H     H_    0.539703 0.603793 0.922014 0.231349
H30   H     H_    0.621892 0.530422 0.311090 0.207655
I1    I     I_    0.699424 0.139471 0.089750 -0.393908
I2    I     I_    0.960655 0.337536 0.106256 -0.101371
I3    I     I_    0.018752 0.190643 0.289096 -0.454893
O25   O     O_3   0.374059 0.260077 0.346133 -0.582293
C45   C     C_3   0.314417 0.287552 0.418856 0.099712
H31   H     H_    0.219165 0.328141 0.408149 0.065019
H32   H     H_    0.409467 0.329649 0.467766 0.247688
H33   H     H_    0.268757 0.226528 0.438168 0.110209
O26   O     O_3   0.149515 0.123101 0.139613 -0.637062
C46   C     C_3   0.169384 0.042876 0.091194 -0.230728
H34   H     H_    0.099133 0.035730 0.023230 0.172980
H35   H     H_    0.119433 0.985424 0.118224 0.187289
H36   H     H_    0.294961 0.039869 0.088095 0.143308
O27   O     O_3   0.338104 0.092808 0.257925 -0.638309
C47   C     C_3   0.231683 0.045066 0.298471 -0.227787
H37   H     H_    0.269567 0.981115 0.306319 0.202272
H38   H     H_    0.110422 0.029755 0.257931 0.159832
H39   H     H_    0.236553 0.080084 0.365829 0.184965
O28   O     O_3   0.501847 0.794967 0.232591 -0.671649
C48   C     C_3   0.516566 0.736030 0.158957 -0.364331
H40   H     H_    0.464883 0.756075 0.095767 0.184319
H41   H     H_    0.467074 0.668490 0.164137 0.117113
H42   H     H_    0.640508 0.734517 0.157823 0.261062
I4    I     I_    0.585969 0.827196 0.662230 -0.353403
O29   O     O_3   0.757267 0.825614 0.866008 -0.572926
C49   C     C_3   0.890628 0.867600 0.932381 -0.226266
H43   H     H_    0.865455 0.931734 0.961933 0.182565
H44   H     H_    0.000759 0.884229 0.907565 0.104880
H45   H     H_    0.912644 0.825715 0.984198 0.207629
O30   O     O_3   0.845863 0.854068 0.157265 -0.569539
C50   C     C_3   0.762024 0.920853 0.132192 -0.208206
H46   H     H_    0.839848 0.986561 0.152619 0.185568
H47   H     H_    0.652206 0.918786 0.157843 0.165164
H48   H     H_    0.720474 0.908292 0.059794 0.190289
O31   O     O_3   0.000302 0.081907 0.739685 -0.681169
C51   C     C_3   0.943843 0.991150 0.734936 -0.235814
H49   H     H_    0.852807 0.966809 0.673643 0.197062
H50   H     H_    0.894370 0.976205 0.792428 0.186822
H51   H     H_    0.043884 0.954548 0.734062 0.179250
I5    I     I_    0.876880 0.135932 0.898260 -0.198936
O32   O     O_3   0.608972 0.254722 0.828079 -0.528131
C52   C     C_3   0.587968 0.322544 0.891349 0.042866
H52   H     H_    0.706366 0.361570 0.920435 0.235635
H53   H     H_    0.549517 0.295464 0.946696 0.128687
H54   H     H_    0.509965 0.366700 0.862385 0.068450
O33   O     O_3   0.430257 0.144547 0.902202 -0.626308
C53   C     C_3   0.286925 0.114423 0.924414 -0.415698
H55   H     H_    0.264879 0.041259 0.918891 0.170170
H56   H     H_    0.188547 0.135694 0.882414 0.198926
H57   H     H_    0.293619 0.145622 0.993001 0.217455
O34   O     O_3   0.528694 0.064013 0.796825 -0.592396
C54   C     C_3   0.490766 0.984942 0.829676 -0.053077
H58   H     H_    0.579914 0.943126 0.819241 0.213225
H59   H     H_    0.371540 0.947923 0.794791 0.111862
H60   H     H_    0.501640 0.997152 0.902296 0.176528
I6    I     I_    0.434731 0.007848 0.584739 -0.228929
O35   O     O_3   0.616268 0.106866 0.360551 -0.527069
C55   C     C_3   0.632566 0.061241 0.279271 0.001752
H61   H     H_    0.552716 0.996030 0.260626 0.120172
H62   H     H_    0.756383 0.052597 0.278705 0.082320
H63   H     H_    0.593187 0.099971 0.229014 0.220888
I7    I     I_    0.770736 0.535515 0.010077 -0.334967
O36   O     O_3   0.141718 0.392118 0.958645 -0.530246
C56   C     C_3   0.206330 0.314105 0.951320 -0.042921
H64   H     H_    0.181938 0.280479 0.882010 0.094969
H65   H     H_    0.155851 0.268946 0.991451 0.203822
H66   H     H_    0.334828 0.327999 0.976666 0.057316
O37   O     O_3   0.179882 0.513870 0.099700 -0.524266
C57   C     C_3   0.160972 0.590138 0.059073 0.070886
H67   H     H_    0.101679 0.635230 0.097209 0.174306
H68   H     H_    0.086972 0.569567 0.991703 0.153899
H69   H     H_    0.269288 0.631088 0.050745 -0.002214
O38   O     O_3   0.169010 0.491195 0.685506 -0.649640
C58   C     C_3   0.166699 0.412216 0.630567 0.166488
H70   H     H_    0.174786 0.353057 0.663829 0.007233
H71   H     H_    0.250450 0.418604 0.587703 0.158471
H72   H     H_    0.057139 0.401100 0.582526 0.185164
O39   O     O_3   0.565016 0.333688 0.224830 -0.607950
C59   C     C_3   0.488948 0.326684 0.134580 -0.388153
H73   H     H_    0.474693 0.259604 0.096293 0.167164
H74   H     H_    0.550191 0.376079 0.103123 0.139202
H75   H     H_    0.368276 0.339725 0.126043 0.218863

loop_
_geom_bond_atom_site_label_1
_geom_bond_atom_site_label_2
_geom_bond_distance
_ccdc_geom_bond_type
C11   H17   1.112450 S    
C13   H21   1.111917 S    
O35   C55   1.410838 S    
O19   C13   1.408812 S    
P2    Ba1   3.551564 S    
C53   H56   1.095952 S    
C50   H47   1.106398 S    
C16   H24   1.117295 S    
C2    H4    1.113140 S    
C18   C21   1.429122 A    
C21   I6    2.094293 S    
C28   C29   1.389730 A    
C48   H40   1.109345 S    
C49   H45   1.110796 S    
C35   C36   1.432912 A    
C12   H18   1.106254 S    
C47   H37   1.101722 S    
C42   O37   1.381361 S    
O38   C58   1.390337 S    
P8    C17   1.928176 S    
C27   O35   1.362460 S    
C19   C30   1.429870 A    
Ba2   O20   2.872577 S    
C36   C43   1.572333 S    
P3    O11   1.748944 S    
O1    Ba1   2.933706 S    
C2    H5    1.115387 S    
C25   C27   1.400191 A    
O6    C10   1.401581 S    
O11   C2    1.418479 S    
P6    C31   1.880209 S    
C6    H10   1.107803 S    
Ba1   O13   2.934700 S    
C50   H48   1.102871 S    
C12   H19   1.112836 S    
Ba1   O20   3.069623 S    
O31   C51   1.407801 S    
C11   O22   1.396537 S    
C7    H14   1.107227 S    
P7    O22   1.739428 S    
P1    O1    1.608257 D    
O2    Ba1   3.080623 S    
C46   H34   1.104141 S    
O25   C45   1.380524 S    
C8    O25   1.383051 S    
C41   C42   1.470557 A    
C58   H70   1.117204 S    
C9    O26   1.425134 S    
O2    Ba2   2.935419 S    
C33   C34   1.395223 A    
C5    I2    2.067890 S    
O14   P8    1.767088 S    
C57   H68   1.104617 S    
C52   H54   1.110901 S    
C16   O33   1.414418 S    
C15   C16   1.545667 S    
C1    H2    1.097518 S    
H1    C10   1.115768 S    
C14   I5    2.160781 S    
O3    Ba1   2.935118 S    
C56   H66   1.095615 S    
C17   C32   1.422869 A    
C45   H33   1.076720 S    
P4    O13   1.627786 S    
C14   H22   1.113766 S    
C13   C14   1.537431 S    
C23   H27   1.082384 S    
C28   H26   1.069894 S    
C53   H57   1.102666 S    
C55   H62   1.109526 S    
P4    C24   2.021402 S    
C12   O29   1.408965 S    
C1    C10   1.534314 S    
C51   H51   1.107447 S    
C4    O15   1.428177 S    
C42   C43   1.466131 A    
C10   O28   1.416979 S    
C56   H65   1.102646 S    
O8    Ba1   2.859135 S    
O17   Ba2   2.859674 S    
C58   H71   1.086509 S    
Ba1   Ba2   4.852909 S    
P5    O17   1.755194 S    
C39   C43   1.422728 A    
C9    H15   1.092196 S    
C8    I3    2.129802 S    
O3    P6    1.757603 S    
P1    O5    1.745492 S    
C59   H75   1.087352 S    
C39   C40   1.414853 A    
C2    C3    1.527103 S    
C25   C26   1.454688 A    
C33   C38   1.387119 A    
P2    C41   1.980629 S    
C51   H50   1.107986 S    
O30   C50   1.404414 S    
C26   C30   1.460154 A    
C20   C21   1.396481 A    
C33   O38   1.367219 S    
C47   H39   1.108027 S    
C49   H44   1.114548 S    
C14   O31   1.411917 S    
C4    H8    1.110284 S    
C19   C20   1.386178 A    
P7    O21   1.600004 D    
P1    O2    1.627757 S    
C58   H72   1.073677 S    
C54   H59   1.112688 S    
P2    O10   1.806509 S    
C15   O24   1.398995 S    
C17   C18   1.438608 A    
C54   H60   1.110013 S    
C8    C9    1.560767 S    
O34   C54   1.411777 S    
P5    O19   1.743538 S    
P8    O24   1.747990 S    
C57   H69   1.101397 S    
C34   C35   1.416589 A    
P1    Ba1   3.538285 S    
C7    H12   1.110566 S    
C39   I7    2.126643 S    
O10   C8    1.401415 S    
C23   C31   1.404766 A    
C1    H3    1.109486 S    
O36   C56   1.402929 S    
O33   C53   1.396533 S    
C9    O27   1.422274 S    
O13   Ba2   3.081680 S    
C22   C23   1.401028 A    
P4    O12   1.608635 D    
O5    C6    1.391813 S    
C29   C31   1.429242 A    
C36   C37   1.437298 A    
P3    O8    1.700542 S    
O29   C49   1.412684 S    
C3    H7    1.097212 S    
C24   C25   1.462471 A    
C1    H16   1.108126 S    
O7    Ba1   2.935127 S    
O28   C48   1.407144 S    
C48   H42   1.089255 S    
O12   Ba2   2.934195 S    
C53   H55   1.109619 S    
C37   H29   1.075710 S    
C56   H64   1.104273 S    
C45   H31   1.112362 S    
P5    O18   1.544457 D    
Ba2   O21   2.935213 S    
O16   Ba2   3.068664 S    
O37   C57   1.429652 S    
C6    C7    1.525686 S    
O16   P7    1.798814 S    
C27   C28   1.403981 A    
P2    O7    1.585133 D    
C51   H49   1.103980 S    
P7    C38   1.886281 S    
C48   H41   1.092736 S    
C50   H46   1.109088 S    
P3    C40   1.851462 S    
O14   Ba2   2.934375 S    
C49   H43   1.105660 S    
C4    C5    1.609585 S    
C24   C32   1.399423 A    
C16   O34   1.413371 S    
C35   O36   1.371047 S    
C37   C38   1.417532 A    
Ba1   O16   2.873090 S    
C15   O32   1.408558 S    
C54   H58   1.101657 S    
C11   C12   1.523002 S    
O27   C47   1.404147 S    
O6    P6    1.754684 S    
C59   H73   1.103227 S    
O32   C52   1.398719 S    
C32   H28   1.048342 S    
C6    H11   1.111401 S    
C19   C22   1.444094 A    
C20   H25   1.075903 S    
C3    O30   1.416546 S    
C55   H61   1.109889 S    
C44   H30   1.082238 S    
P8    O23   1.547309 D    
P4    Ba2   3.538971 S    
C7    H13   1.105139 S    
C40   C44   1.405343 A    
C41   C44   1.402473 A    
C52   H53   1.099869 S    
C15   H23   1.118558 S    
C46   H35   1.105916 S    
C59   H74   1.095642 S    
C47   H38   1.100200 S    
C4    O39   1.431657 S    
C57   H67   1.103765 S    
C13   H20   1.111970 S    
P4    O15   1.813694 S    
C29   C30   1.411375 A    
C5    I1    2.138126 S    
C55   H63   1.086080 S    
C11   I4    2.068208 S    
P3    O9    1.528838 D    
C5    H9    1.089244 S    
P1    C22   1.918802 S    
C3    H6    1.115228 S    
O4    P6    1.535230 D    
O39   C59   1.423833 S    
O26   C46   1.414246 S    
P5    C34   1.873173 S    
C18   C26   1.431744 A    
C46   H36   1.114004 S    
P2    O20   1.606383 S    
C52   H52   1.099357 S    
C45   H32   1.080145 S    
