data_mof_unit_49797.cif
_audit_creation_date              2012-12-10T17:33:41-0500
_audit_creation_method            fapswitch 2.2
_symmetry_space_group_name_H-M    P1
_symmetry_Int_Tables_number       1
_space_group_crystal_system       triclinic
_cell_length_a                    11.691077
_cell_length_b                    12.332945
_cell_length_c                    13.17822
_cell_angle_alpha                 116.574116
_cell_angle_beta                  77.952215
_cell_angle_gamma                 101.093397
_cell_volume                      1651.25487436

loop_
_atom_site_label
_atom_site_type_symbol
_atom_type_description
_atom_site_fract_x
_atom_site_fract_y
_atom_site_fract_z
_atom_type_partial_charge
C1    C     C_R   0.509902 0.854847 0.286591 0.771795
C2    C     C_R   0.459086 0.228024 0.834480 -0.048972
C3    C     C_R   0.585365 0.815339 0.085204 -0.181073
C4    C     C_R   0.608055 0.736619 0.970319 -0.133218
C5    C     C_R   0.567344 0.613284 0.932621 -0.173920
C6    C     C_R   0.498389 0.566413 0.009371 0.082107
C7    C     C_R   0.463799 0.649776 0.123782 0.081816
C8    C     C_R   0.461438 0.439782 0.976054 0.075347
C9    C     C_R   0.381987 0.399963 0.053273 0.161987
C10   C     C_R   0.338131 0.485066 0.160357 -0.226562
C11   C     C_R   0.376854 0.608161 0.194488 -0.191301
C12   C     C_R   0.715719 0.999567 0.499800 0.820800
C13   C     C_R   0.501835 0.351096 0.868404 -0.242520
C14   C     C_R   0.382603 0.189643 0.912045 -0.187940
C15   C     C_R   0.516083 0.772875 0.163567 -0.101007
C16   C     C_R   0.685646 0.342754 0.325081 -0.106805
C17   C     C_R   0.343862 0.760833 0.646710 0.029565
C18   C     C_R   0.310293 0.665082 0.679513 -0.062612
C19   C     C_R   0.369448 0.561011 0.623664 -0.235704
C20   C     C_R   0.463461 0.551794 0.534419 -0.013220
C21   C     C_R   0.494941 0.652854 0.504856 0.282836
C22   C     C_R   0.527670 0.446898 0.474098 -0.036221
C23   C     C_R   0.483062 0.145084 0.713374 0.798483
C24   C     C_R   0.621781 0.445168 0.385496 0.115249
C25   C     C_R   0.650846 0.545829 0.359302 -0.264820
C26   C     C_R   0.589662 0.646837 0.417898 -0.170393
C27   C     C_R   0.502689 0.342874 0.497858 0.018833
C28   C     C_R   0.655863 0.244256 0.353688 0.032384
C29   C     C_R   0.284282 0.000350 0.500095 0.816396
C30   C     C_1   0.837377 0.999091 0.499814 -0.176204
C31   C     C_1   0.939999 0.999388 0.499765 0.008575
C32   C     C_1   0.060009 0.000128 0.499744 0.007872
C33   C     C_1   0.162633 0.000581 0.499827 -0.176513
C34   C     C_R   0.344847 0.275305 0.021368 -0.177031
Cu1   Cu    Cu3+1 0.526510 0.098270 0.475420 0.943607
Cu2   Cu    Cu3+1 0.473490 0.901730 0.524580 0.929559
H1    H     H_    0.348379 0.094492 0.886766 0.152338
H2    H     H_    0.722483 0.547981 0.292949 0.169148
H3    H     H_    0.432975 0.336056 0.563176 0.130167
H4    H     H_    0.298232 0.841647 0.689876 0.132657
H5    H     H_    0.340425 0.489320 0.651968 0.142844
H6    H     H_    0.620909 0.718812 0.392074 0.206150
H7    H     H_    0.273400 0.456410 0.218171 0.152647
H8    H     H_    0.283981 0.244499 0.079902 0.142143
H9    H     H_    0.566016 0.375149 0.808096 0.150235
H10   H     H_    0.624608 0.909323 0.113141 0.155643
H11   H     H_    0.589197 0.557893 0.842361 0.131413
H12   H     H_    0.660747 0.770724 0.910479 0.149196
H13   H     H_    0.334879 0.670028 0.275889 0.178277
H14   H     H_    0.703592 0.164929 0.308464 0.131250
N1    N     N_R   0.566700 0.246290 0.438210 -0.188072
N2    N     N_R   0.434010 0.754320 0.561170 -0.212547
O1    O     O_R   0.533340 0.972510 0.318140 -0.579185
O2    O     O_R   0.488570 0.806530 0.359650 -0.605709
O3    O     O_R   0.685190 0.083000 0.479260 -0.570664
O4    O     O_R   0.640410 0.917020 0.520770 -0.589199
O5    O     O_R   0.511430 0.193470 0.640350 -0.586143
O6    O     O_R   0.466660 0.027490 0.681860 -0.585118
O7    O     O_R   0.359590 0.082980 0.479230 -0.571900
O8    O     O_R   0.314810 0.917000 0.520740 -0.583401
C35   C     C_1   0.781621 0.335771 0.233905 0.204806
N3    N     N_1   0.858427 0.330099 0.160935 -0.277975
C36   C     C_1   0.215079 0.673838 0.771023 0.224537
N4    N     N_1   0.138607 0.680871 0.844577 -0.274715

loop_
_geom_bond_atom_site_label_1
_geom_bond_atom_site_label_2
_ccdc_geom_bond_type
C16   C28   A    
C23   O6    A    
C13   H9    S    
C1    O2    A    
C14   C34   A    
C6    C7    A    
C1    C15   S    
C29   C33   S    
C25   H2    S    
Cu1   O1    S    
C9    C10   A    
C3    H10   S    
C19   C20   A    
Cu2   N2    S    
C29   O8    A    
C30   C31   T    
Cu1   O5    S    
C32   C33   T    
C7    C15   A    
C17   C18   A    
C25   C26   A    
C3    C15   A    
C16   C24   A    
C31   C32   S    
C24   C25   A    
C14   H1    S    
C7    C11   A    
C5    H11   S    
C12   O4    A    
C27   H3    S    
Cu2   O4    S    
C5    C6    A    
C6    C8    A    
C17   N2    A    
C21   C26   A    
C27   N1    A    
C9    C34   A    
Cu2   O6    S    
C22   C27   A    
Cu1   N1    S    
C35   N3    T    
C2    C14   A    
C28   N1    A    
C22   C24   A    
C18   C36   S    
C12   O3    A    
Cu2   O2    S    
C16   C35   S    
Cu1   O3    S    
C3    C4    A    
C8    C13   A    
C19   H5    S    
C34   H8    S    
C20   C21   A    
C26   H6    S    
Cu1   O7    S    
C18   C19   A    
C10   C11   A    
C4    H12   S    
C2    C23   S    
C23   O5    A    
C2    C13   A    
C1    O1    A    
C8    C9    A    
C11   H13   S    
C12   C30   S    
C10   H7    S    
C36   N4    T    
C28   H14   S    
C17   H4    S    
C21   N2    A    
C29   O7    A    
C20   C22   A    
C4    C5    A    
Cu2   O8    S    
Cu1   Cu2   S    
