data_mof_unit_12759.cif
_audit_creation_date              2012-12-11T16:53:54-0500
_audit_creation_method            fapswitch 2.2
_symmetry_space_group_name_H-M    P1
_symmetry_Int_Tables_number       1
_space_group_crystal_system       triclinic
_cell_length_a                    14.8255
_cell_length_b                    14.756848
_cell_length_c                    17.064743
_cell_angle_alpha                 108.320029
_cell_angle_beta                  106.339867
_cell_angle_gamma                 107.230743
_cell_volume                      3082.95901166

loop_
_atom_site_label
_atom_site_type_symbol
_atom_type_description
_atom_site_fract_x
_atom_site_fract_y
_atom_site_fract_z
_atom_type_partial_charge
Br1   Br    Br    0.507348 0.893413 0.247183 -0.647005
Br2   Br    Br    0.308703 0.211778 0.142979 -0.581471
C1    C     C_R   0.092680 0.285077 0.070037 -0.094378
C2    C     C_R   0.067451 0.483376 0.253215 -0.136200
C3    C     C_R   0.255526 0.795604 0.182783 -0.082545
C4    C     C_R   0.940277 0.460137 0.735539 0.178111
C5    C     C_R   0.747584 0.472493 0.056347 -0.108069
C6    C     C_R   0.294534 0.798263 0.266744 0.113975
C7    C     C_R   0.724610 0.554018 0.047135 0.052666
C8    C     C_R   0.979470 0.423545 0.257620 0.076965
C9    C     C_R   0.001875 0.811273 0.953032 0.012143
C10   C     C_R   0.528217 0.656216 0.053137 0.049198
C11   C     C_R   0.471065 0.591398 0.082723 0.051360
C12   C     C_R   0.035013 0.475210 0.727751 0.008634
C13   C     C_R   0.524388 0.552224 0.136027 -0.152770
C14   C     C_R   0.621222 0.556975 0.139057 -0.169820
C15   C     C_R   0.664968 0.600686 0.088540 0.028105
C16   C     C_R   0.724826 0.214174 0.823101 0.205879
C17   C     C_R   0.626676 0.667780 0.062256 0.095408
C18   C     C_3   0.621977 0.711788 0.992851 -0.166635
C19   C     C_3   0.508331 0.688593 0.976836 0.221914
C20   C     C_R   0.980440 0.387546 0.328782 0.116420
C21   C     C_R   0.053610 0.441672 0.645359 0.141562
C22   C     C_R   0.158742 0.487524 0.566348 -0.228853
C23   C     C_R   0.671548 0.218926 0.746051 -0.019723
C24   C     C_R   0.149039 0.498949 0.646763 -0.162056
C25   C     C_R   0.973945 0.360800 0.563009 -0.279521
C26   C     C_R   0.979209 0.356697 0.481805 0.171121
C27   C     C_R   0.071576 0.423391 0.484406 0.192565
C28   C     C_R   0.300069 0.591382 0.001676 -0.095877
C29   C     C_R   0.072425 0.435177 0.407474 -0.281637
C30   C     C_R   0.890476 0.314370 0.323651 -0.166612
C31   C     C_R   0.890554 0.297260 0.399700 -0.203477
C32   C     C_R   0.588034 0.135459 0.666473 0.117643
C33   C     C_R   0.373533 0.886621 0.345473 0.008395
C34   C     C_R   0.359045 0.555762 0.051362 0.065020
C35   C     C_R   0.550418 0.012616 0.431080 -0.281439
C36   C     C_R   0.472360 0.935678 0.348973 0.350862
C37   C     C_R   0.351186 0.913999 0.421057 -0.335035
C38   C     C_R   0.429180 0.988747 0.503263 0.200124
C39   C     C_R   0.529515 0.037532 0.507941 0.130618
C40   C     C_R   0.728255 0.312340 0.748409 -0.205403
C41   C     C_R   0.608261 0.109727 0.589851 -0.245876
C42   C     C_R   0.489996 0.088182 0.663840 -0.188655
C43   C     C_R   0.409570 0.013763 0.581208 -0.202336
C44   C     C_R   0.107532 0.125224 0.142162 0.079172
C45   C     C_R   0.250651 0.699187 0.262086 -0.133856
C46   C     C_R   0.016840 0.109430 0.074437 0.045572
C47   C     C_R   0.930224 0.012959 0.042483 -0.192569
C48   C     C_R   0.936861 0.940728 0.080297 -0.198825
C49   C     C_R   0.028124 0.962916 0.151691 0.051314
C50   C     C_R   0.111250 0.056813 0.179743 0.110258
C51   C     C_3   0.219918 0.122307 0.247353 -0.536079
C52   C     C_R   0.294565 0.493580 0.077038 -0.102168
C53   C     C_3   0.217653 0.200670 0.205615 0.161630
C54   C     C_R   0.112807 0.539455 0.814387 -0.170844
C55   C     C_R   0.920992 0.199321 0.996515 -0.135510
C56   C     C_R   0.758599 0.573389 0.983829 -0.141357
C57   C     C_R   0.010608 0.190161 0.041442 0.056090
C58   C     C_3   0.749933 0.591156 0.790665 -0.933382
C59   C     C_3   0.739204 0.887311 0.130591 -0.848373
C60   C     C_3   0.843532 0.506171 0.626264 -0.914382
C61   C     C_3   0.455512 0.816047 0.929248 -0.959204
C62   C     C_3   0.429794 0.497311 0.862945 -0.944187
C63   C     C_3   0.658476 0.177955 0.928952 -0.958713
C64   C     C_R   0.895737 0.397110 0.178912 -0.156751
C65   C     C_R   0.084895 0.799227 0.002572 -0.154115
C66   C     C_R   0.916498 0.718050 0.923921 0.162283
H1    H     H_    0.171182 0.312708 0.117521 0.127865
H2    H     H_    0.628470 0.666719 0.930904 0.118142
H3    H     H_    0.143147 0.491379 0.413671 0.118263
H4    H     H_    0.819196 0.274132 0.262848 0.128931
H5    H     H_    0.230805 0.537477 0.568787 0.128812
H6    H     H_    0.819195 0.244916 0.396426 0.143276
H7    H     H_    0.214119 0.558836 0.708958 0.117371
H8    H     H_    0.904262 0.308417 0.561259 0.121946
H9    H     H_    0.685759 0.147510 0.594251 0.124150
H10   H     H_    0.475820 0.110428 0.724508 0.138175
H11   H     H_    0.627739 0.050138 0.435441 0.163064
H12   H     H_    0.762270 0.638013 0.967693 0.134744
H13   H     H_    0.332855 0.976470 0.577999 0.131366
H14   H     H_    0.273938 0.874010 0.416074 0.147886
H15   H     H_    0.857906 0.992617 0.988352 0.122610
H16   H     H_    0.872449 0.865278 0.052004 0.159367
H17   H     H_    0.225633 0.152342 0.317825 0.178117
H18   H     H_    0.271789 0.083461 0.235599 0.232251
H19   H     H_    0.224715 0.276797 0.252848 0.086523
H20   H     H_    0.326460 0.654572 0.983814 0.136994
H21   H     H_    0.701721 0.345320 0.703238 0.145057
H22   H     H_    0.317401 0.464983 0.126968 0.111922
H23   H     H_    0.817433 0.339447 0.154832 0.095208
H24   H     H_    0.195344 0.567402 0.834324 0.120871
H25   H     H_    0.842703 0.146256 0.978326 0.131415
H26   H     H_    0.270340 0.673126 0.314525 0.104921
H27   H     H_    0.806408 0.756428 0.850610 0.163766
H28   H     H_    0.676145 0.558825 0.797263 0.245637
H29   H     H_    0.787305 0.536865 0.790381 0.276631
H30   H     H_    0.731463 0.595744 0.724711 0.255307
H31   H     H_    0.675301 0.863258 0.993935 0.182154
H32   H     H_    0.794711 0.859678 0.162945 0.248834
H33   H     H_    0.681408 0.882833 0.160215 0.270237
H34   H     H_    0.165420 0.851522 0.026790 0.135184
H35   H     H_    0.782756 0.970994 0.146566 0.245227
H36   H     H_    0.805984 0.354675 0.619243 0.152649
H37   H     H_    0.888427 0.502985 0.584090 0.260532
H38   H     H_    0.877285 0.587697 0.680345 0.265035
H39   H     H_    0.762403 0.485748 0.582647 0.252350
H40   H     H_    0.524859 0.839163 0.063845 0.227722
H41   H     H_    0.455141 0.894352 0.959793 0.270991
H42   H     H_    0.375995 0.760218 0.877209 0.249771
H43   H     H_    0.510609 0.822629 0.896571 0.241641
H44   H     H_    0.430925 0.623698 0.835161 0.183258
H45   H     H_    0.147050 0.503219 0.293605 0.086461
H46   H     H_    0.368870 0.444012 0.793342 0.255113
H47   H     H_    0.408975 0.464456 0.908664 0.269333
H48   H     H_    0.504908 0.497397 0.863765 0.247867
H49   H     H_    0.629989 0.067527 0.803823 0.168409
H50   H     H_    0.630054 0.114361 0.949357 0.253816
H51   H     H_    0.596101 0.203788 0.908140 0.259715
H52   H     H_    0.726805 0.244556 0.988367 0.256847
H53   H     H_    0.278752 0.857925 0.162297 0.130141
H54   H     H_    0.733788 0.436462 0.100358 0.101698
H55   H     H_    0.487581 0.507271 0.166427 0.143685
H56   H     H_    0.653384 0.514036 0.170606 0.132341
N1    N     N_R   0.055640 0.348550 0.045600 -0.047785
N2    N     N_R   0.811290 0.303400 0.871650 -0.053683
N3    N     N_R   0.205180 0.552990 0.997660 -0.047279
N4    N     N_R   0.814810 0.361830 0.823710 -0.057876
N5    N     N_R   0.201660 0.494570 0.045600 -0.044832
N6    N     N_R   0.068420 0.560530 0.871650 -0.050419
N7    N     N_R   0.948050 0.295860 0.997660 -0.040810
N8    N     N_R   0.185190 0.638170 0.176290 -0.045213
N9    N     N_2   0.815411 0.695293 0.863777 -0.130643
N10   N     N_2   0.690154 0.824006 0.032858 -0.114687
N11   N     N_2   0.844224 0.432523 0.665593 -0.125212
N12   N     N_R   0.798340 0.505430 0.954400 -0.034074
N13   N     N_2   0.484692 0.780589 0.998651 -0.109171
N14   N     N_2   0.433496 0.602445 0.887531 -0.115322
N15   N     N_2   0.686590 0.139113 0.854732 -0.127388
N16   N     N_R   0.931580 0.439470 0.128350 -0.041017
N17   N     N_R   0.051950 0.704140 0.002340 -0.059234
N18   N     N_R   0.944360 0.651450 0.954400 -0.059807
N19   N     N_R   0.039170 0.492150 0.176290 -0.039578
N20   N     N_R   0.188710 0.696600 0.128350 -0.045894
N21   N     N_R   0.794820 0.447010 0.002340 -0.042263
N22   N     N_R   0.960830 0.507850 0.823710 -0.064675
Ni1   Ni    Ni4+2 0.119330 0.493420 0.109950 0.211217
Ni2   Ni    Ni4+2 0.880670 0.506580 0.890050 0.212349
Ni3   Ni    Ni4+2 0.872590 0.372590 0.000000 0.211008
Ni4   Ni    Ni4+2 0.127410 0.627410 0.000000 0.221390

loop_
_geom_bond_atom_site_label_1
_geom_bond_atom_site_label_2
_ccdc_geom_bond_type
N8    N20   A    
C12   C54   A    
C38   C39   A    
C62   H48   S    
H36   N11   S    
C3    H53   S    
N6    N22   A    
C61   N13   S    
C33   C37   A    
C17   C18   S    
N16   N19   A    
C19   N13   S    
C2    N19   A    
C48   H16   S    
C30   H4    S    
C60   H37   S    
C62   N14   S    
C8    C20   S    
N19   Ni1   S    
C35   H11   S    
C4    N11   S    
C8    C64   A    
C13   H55   S    
C26   C27   A    
C1    H1    S    
C22   C24   A    
C52   H22   S    
C58   H30   S    
Br2   C53   S    
N3    Ni4   S    
H40   N13   S    
C4    N22   A    
N2    Ni3   S    
C22   H5    S    
C55   C57   A    
C13   C14   A    
C44   C50   A    
H27   N9    S    
C7    C56   A    
C21   C24   A    
C22   C27   A    
N20   Ni4   S    
C63   H52   S    
C14   C15   A    
C44   C53   S    
C59   N10   S    
C63   H50   S    
C66   N18   A    
C51   H18   S    
C21   C25   A    
N12   N21   A    
C40   N4    A    
C23   C32   S    
C60   N11   S    
C29   H3    S    
C62   H47   S    
C55   H25   S    
C35   C39   A    
C39   C41   A    
C18   H2    S    
H49   N15   S    
C16   C23   A    
C19   N14   S    
C9    C65   A    
N17   Ni4   S    
C24   H7    S    
N22   Ni2   S    
C51   C53   S    
C38   C43   A    
C44   C46   A    
C62   H46   S    
C20   C29   A    
C32   C41   A    
C49   C50   A    
N18   Ni2   S    
C2    H45   S    
C33   C36   A    
C32   C42   A    
C11   C34   S    
C58   H29   S    
N1    Ni1   S    
C37   C38   A    
C61   H43   S    
N4    Ni2   S    
C3    N20   A    
C60   H39   S    
C56   N12   A    
C10   C19   S    
H31   N10   S    
C6    C33   S    
C12   C21   S    
C61   H41   S    
C59   H33   S    
N3    N5    A    
N6    Ni4   S    
C35   C36   A    
H44   N14   S    
C4    C12   A    
N1    N7    A    
C48   C49   A    
C63   H51   S    
C50   C51   S    
C10   C11   A    
N12   Ni2   S    
C20   C30   A    
Br1   C36   S    
C58   H28   S    
C7    C15   S    
C46   C47   A    
C26   C31   A    
C11   C13   A    
N7    Ni3   S    
C59   H32   S    
C5    H54   S    
C28   H20   S    
C25   H8    S    
C65   N17   A    
C9    C66   A    
C46   C57   S    
C5    C7    A    
C52   N5    A    
C28   N3    A    
C66   N9    S    
N2    N4    A    
C59   H35   S    
N8    Ni1   S    
C55   N7    A    
C43   H13   S    
C42   C43   A    
C37   H14   S    
C23   C40   A    
C3    C6    A    
C1    N1    A    
C64   H23   S    
C60   H38   S    
C56   H12   S    
C41   H9    S    
C28   C34   A    
C45   N8    A    
C40   H21   S    
C30   C31   A    
C47   H15   S    
C61   H42   S    
C42   H10   S    
C14   H56   S    
C6    C45   A    
C27   C29   A    
N17   N18   A    
C16   N2    A    
C58   N9    S    
C10   C17   A    
C15   C17   A    
C45   H26   S    
C53   H19   S    
C16   N15   S    
N21   Ni3   S    
N5    Ni1   S    
C34   C52   A    
C63   N15   S    
C31   H6    S    
C54   H24   S    
C64   N16   A    
C18   C19   S    
C47   C48   A    
C25   C26   A    
C51   H17   S    
C18   N10   S    
C2    C8    A    
N16   Ni3   S    
C54   N6    A    
C65   H34   S    
C5    N21   A    
C1    C57   A    
