data_mof_unit_53460.cif
_audit_creation_date              2012-10-26T21:25:15-0400
_audit_creation_method            fapswitch 2.2
_symmetry_space_group_name_H-M    P1
_symmetry_Int_Tables_number       1
_space_group_crystal_system       triclinic
_cell_length_a                    21.348088
_cell_length_b                    21.309528
_cell_length_c                    13.678362
_cell_angle_alpha                 89.999923
_cell_angle_beta                  89.999973
_cell_angle_gamma                 90.0
_cell_volume                      6222.52869332

loop_
_atom_site_label
_atom_site_type_symbol
_atom_type_description
_atom_site_fract_x
_atom_site_fract_y
_atom_site_fract_z
_atom_type_partial_charge
C1    C     C_R   0.085939 0.414383 0.499964 0.554694
C2    C     C_R   0.944461 0.500294 0.206965 0.047299
C3    C     C_R   0.272979 0.226767 0.677895 -0.131863
C4    C     C_3   0.809063 0.435964 0.887853 -0.008010
C5    C     C_3   0.751062 0.434740 0.823341 -0.374339
C6    C     C_3   0.190936 0.435962 0.112149 -0.008010
C7    C     C_3   0.248936 0.434738 0.176661 -0.374339
C8    C     C_3   0.190937 0.564036 0.887852 -0.008010
C9    C     C_3   0.248938 0.565260 0.823340 -0.374339
C10   C     C_3   0.809063 0.564037 0.112148 -0.008010
C11   C     C_3   0.751063 0.565261 0.176659 -0.374339
C12   C     C_3   0.309063 0.935962 0.887852 -0.008009
C13   C     C_R   0.944461 0.499706 0.793035 0.047299
C14   C     C_3   0.251063 0.934738 0.823341 -0.374337
C15   C     C_3   0.690937 0.935964 0.112149 -0.008010
C16   C     C_3   0.748937 0.934740 0.176661 -0.374340
C17   C     C_3   0.690937 0.064037 0.887852 -0.008011
C18   C     C_3   0.748936 0.065262 0.823338 -0.374340
C19   C     C_3   0.309062 0.064035 0.112148 -0.008010
C20   C     C_3   0.251062 0.065259 0.176660 -0.374339
C21   C     C_R   0.055539 0.499706 0.206965 0.047299
C22   C     C_R   0.555539 0.000294 0.793035 0.047299
C23   C     C_R   0.444461 0.000294 0.206965 0.047299
C24   C     C_R   0.444461 0.999706 0.793035 0.047299
C25   C     C_R   0.555539 0.999706 0.206965 0.047299
C26   C     C_R   0.942902 0.499521 0.896279 -0.040439
C27   C     C_R   0.057098 0.499520 0.103721 -0.040440
C28   C     C_R   0.057098 0.500479 0.896279 -0.040440
C29   C     C_R   0.914061 0.585617 0.499964 0.554695
C30   C     C_R   0.942902 0.500479 0.103721 -0.040439
C31   C     C_R   0.442902 0.999520 0.896279 -0.040440
C32   C     C_R   0.557098 0.999521 0.103721 -0.040440
C33   C     C_R   0.557098 0.000480 0.896279 -0.040440
C34   C     C_R   0.442902 0.000479 0.103721 -0.040439
C35   C     C_R   0.000000 0.500000 0.948192 -0.062742
C36   C     C_R   0.000000 0.500000 0.051808 -0.062742
C37   C     C_R   0.500000 1.000000 0.948192 -0.062742
C38   C     C_R   0.500000 1.000000 0.051808 -0.062742
C39   C     C_R   0.885779 0.498597 0.948339 0.252938
C40   C     C_R   0.914061 0.414383 0.500035 0.554695
C41   C     C_R   0.114221 0.498597 0.051661 0.252939
C42   C     C_R   0.114221 0.501402 0.948339 0.252939
C43   C     C_R   0.885779 0.501403 0.051661 0.252938
C44   C     C_R   0.385779 0.998596 0.948339 0.252938
C45   C     C_R   0.614221 0.998597 0.051661 0.252939
C46   C     C_R   0.614221 0.001403 0.948339 0.252939
C47   C     C_R   0.385779 0.001402 0.051661 0.252938
C48   C     C_R   0.157771 0.657003 0.411288 -0.135892
C49   C     C_R   0.842210 0.343081 0.589187 -0.140204
C50   C     C_R   0.842229 0.657003 0.588712 -0.135892
C51   C     C_R   0.085939 0.585617 0.500035 0.554695
C52   C     C_R   0.157789 0.343080 0.410813 -0.140204
C53   C     C_R   0.657771 0.157003 0.411288 -0.135892
C54   C     C_R   0.342211 0.843081 0.589187 -0.140204
C55   C     C_R   0.342230 0.157004 0.588712 -0.135892
C56   C     C_R   0.657789 0.843081 0.410812 -0.140204
C57   C     C_R   0.134560 0.633830 0.500182 -0.013445
C58   C     C_R   0.865440 0.366170 0.500183 -0.013445
C59   C     C_R   0.865440 0.633830 0.499817 -0.013445
C60   C     C_R   0.134560 0.366170 0.499817 -0.013446
C61   C     C_R   0.634560 0.133830 0.500182 -0.013446
C62   C     C_R   0.585939 0.914383 0.499964 0.554695
C63   C     C_R   0.365440 0.866170 0.500183 -0.013445
C64   C     C_R   0.365440 0.133830 0.499817 -0.013445
C65   C     C_R   0.634560 0.866170 0.499817 -0.013445
C66   C     C_R   0.157790 0.656918 0.589187 -0.140204
C67   C     C_R   0.842230 0.342996 0.411288 -0.135892
C68   C     C_R   0.842210 0.656919 0.410812 -0.140204
C69   C     C_R   0.157772 0.342998 0.588712 -0.135892
C70   C     C_R   0.657789 0.156919 0.589187 -0.140205
C71   C     C_R   0.342229 0.842997 0.411288 -0.135892
C72   C     C_R   0.342210 0.156918 0.410812 -0.140204
C73   C     C_R   0.414061 0.085617 0.499964 0.554695
C74   C     C_R   0.657771 0.842997 0.588712 -0.135892
C75   C     C_R   0.203781 0.703307 0.589849 0.012636
C76   C     C_R   0.796195 0.296683 0.410716 0.011565
C77   C     C_R   0.796219 0.703308 0.410150 0.012636
C78   C     C_R   0.203807 0.296685 0.589284 0.011565
C79   C     C_R   0.703781 0.203308 0.589849 0.012636
C80   C     C_R   0.296194 0.796684 0.410716 0.011565
C81   C     C_R   0.296218 0.203307 0.410151 0.012636
C82   C     C_R   0.703806 0.796684 0.589284 0.011565
C83   C     C_R   0.226892 0.726635 0.500294 0.061867
C84   C     C_R   0.414061 0.914383 0.500035 0.554695
C85   C     C_R   0.773107 0.273365 0.500294 0.061868
C86   C     C_R   0.773108 0.726635 0.499706 0.061867
C87   C     C_R   0.226892 0.273365 0.499706 0.061868
C88   C     C_R   0.726892 0.226635 0.500294 0.061868
C89   C     C_R   0.273108 0.773365 0.500294 0.061867
C90   C     C_R   0.273108 0.226635 0.499706 0.061867
C91   C     C_R   0.726892 0.773365 0.499706 0.061867
C92   C     C_R   0.203806 0.703317 0.410716 0.011565
C93   C     C_R   0.796218 0.296692 0.589849 0.012636
C94   C     C_R   0.796194 0.703316 0.589284 0.011565
C95   C     C_R   0.585939 0.085617 0.500035 0.554695
C96   C     C_R   0.203780 0.296691 0.410151 0.012636
C97   C     C_R   0.703806 0.203316 0.410716 0.011565
C98   C     C_R   0.296219 0.796692 0.589850 0.012636
C99   C     C_R   0.296195 0.203317 0.589284 0.011565
C100  C     C_R   0.703781 0.796692 0.410150 0.012636
C101  C     C_R   0.226950 0.726824 0.678461 -0.136950
C102  C     C_R   0.772977 0.273234 0.322105 -0.131863
C103  C     C_R   0.773050 0.726825 0.321539 -0.136950
C104  C     C_R   0.227025 0.273237 0.677895 -0.131863
C105  C     C_R   0.726949 0.226826 0.678461 -0.136950
C106  C     C_R   0.055539 0.500294 0.793035 0.047299
C107  C     C_R   0.272976 0.773236 0.322105 -0.131862
C108  C     C_R   0.273048 0.226824 0.321539 -0.136950
C109  C     C_R   0.727024 0.773235 0.677895 -0.131862
C110  C     C_R   0.773049 0.273175 0.678461 -0.136950
C111  C     C_R   0.227023 0.726765 0.322105 -0.131862
C112  C     C_R   0.226948 0.273173 0.321539 -0.136950
C113  C     C_R   0.772977 0.726765 0.677895 -0.131862
C114  C     C_R   0.273050 0.773174 0.678461 -0.136950
C115  C     C_R   0.727024 0.226764 0.322105 -0.131862
C116  C     C_R   0.726950 0.773175 0.321539 -0.136950
Cu1   Cu    Cu3+1 0.000000 0.500000 0.597420 0.931888
Cu2   Cu    Cu3+1 0.000000 0.500000 0.402580 0.931887
Cu3   Cu    Cu3+1 0.500000 1.000000 0.597420 0.931887
Cu4   Cu    Cu3+1 0.500000 1.000000 0.402580 0.931888
H1    H     H_    0.140000 0.639145 0.342422 0.133342
H2    H     H_    0.860001 0.360855 0.342422 0.133343
H3    H     H_    0.859919 0.638949 0.341972 0.121618
H4    H     H_    0.140002 0.360857 0.657578 0.133343
H5    H     H_    0.640079 0.138950 0.658028 0.121618
H6    H     H_    0.360000 0.860856 0.342422 0.133343
H7    H     H_    0.359918 0.138948 0.341972 0.121618
H8    H     H_    0.640000 0.860856 0.657578 0.133342
H9    H     H_    0.209373 0.709424 0.747655 0.099144
H10   H     H_    0.790376 0.290812 0.252894 0.112989
H11   H     H_    0.790627 0.709425 0.252345 0.099145
H12   H     H_    0.859919 0.361051 0.658028 0.121618
H13   H     H_    0.209628 0.290815 0.747106 0.112990
H14   H     H_    0.709371 0.209426 0.747655 0.099145
H15   H     H_    0.290375 0.790814 0.252894 0.112990
H16   H     H_    0.290625 0.209422 0.252345 0.099145
H17   H     H_    0.709625 0.790813 0.747106 0.112989
H18   H     H_    0.790626 0.290576 0.747655 0.099145
H19   H     H_    0.209624 0.709188 0.252894 0.112989
H20   H     H_    0.209370 0.290573 0.252345 0.099145
H21   H     H_    0.790376 0.709187 0.747106 0.112989
H22   H     H_    0.290628 0.790574 0.747655 0.099145
H23   H     H_    0.860000 0.639145 0.657578 0.133342
H24   H     H_    0.709626 0.209186 0.252894 0.112990
H25   H     H_    0.709372 0.790575 0.252345 0.099145
H26   H     H_    0.290378 0.209190 0.747106 0.112989
H27   H     H_    0.098609 0.500435 0.751321 0.161745
H28   H     H_    0.901391 0.500436 0.248679 0.161745
H29   H     H_    0.901391 0.499565 0.751321 0.161745
H30   H     H_    0.098609 0.499564 0.248679 0.161745
H31   H     H_    0.598609 0.000436 0.751321 0.161745
H32   H     H_    0.401391 0.000435 0.248679 0.161745
H33   H     H_    0.401391 0.999564 0.751321 0.161745
H34   H     H_    0.140078 0.361049 0.341972 0.121618
H35   H     H_    0.598609 0.999565 0.248679 0.161745
H36   H     H_    0.796652 0.415616 0.960295 0.170561
H37   H     H_    0.845590 0.406186 0.852518 0.103667
H38   H     H_    0.762715 0.452672 0.749278 0.156283
H39   H     H_    0.733407 0.385924 0.816750 0.094548
H40   H     H_    0.713733 0.464453 0.855839 0.167523
H41   H     H_    0.203347 0.415614 0.039707 0.170560
H42   H     H_    0.154408 0.406185 0.147483 0.103667
H43   H     H_    0.237283 0.452671 0.250724 0.156283
H44   H     H_    0.266591 0.385922 0.183253 0.094549
H45   H     H_    0.640001 0.139144 0.342422 0.133342
H46   H     H_    0.286266 0.464450 0.144163 0.167523
H47   H     H_    0.203348 0.584384 0.960293 0.170561
H48   H     H_    0.154410 0.593814 0.852517 0.103667
H49   H     H_    0.237285 0.547327 0.749277 0.156282
H50   H     H_    0.266593 0.614075 0.816748 0.094549
H51   H     H_    0.286267 0.535547 0.855838 0.167524
H52   H     H_    0.796653 0.584385 0.039706 0.170561
H53   H     H_    0.845590 0.593815 0.147482 0.103667
H54   H     H_    0.762715 0.547328 0.250723 0.156283
H55   H     H_    0.733407 0.614077 0.183250 0.094549
H56   H     H_    0.359920 0.861050 0.658028 0.121618
H57   H     H_    0.713733 0.535548 0.144162 0.167523
H58   H     H_    0.296654 0.915614 0.960295 0.170560
H59   H     H_    0.345591 0.906185 0.852517 0.103667
H60   H     H_    0.262715 0.952671 0.749278 0.156283
H61   H     H_    0.233408 0.885922 0.816750 0.094549
H62   H     H_    0.213733 0.964450 0.855840 0.167523
H63   H     H_    0.703347 0.915615 0.039707 0.170560
H64   H     H_    0.654409 0.906186 0.147483 0.103667
H65   H     H_    0.737284 0.952673 0.250723 0.156283
H66   H     H_    0.766592 0.885924 0.183253 0.094549
H67   H     H_    0.360002 0.139146 0.657578 0.133342
H68   H     H_    0.786267 0.964452 0.144162 0.167523
H69   H     H_    0.703348 0.084385 0.960294 0.170562
H70   H     H_    0.654409 0.093815 0.852519 0.103667
H71   H     H_    0.737282 0.047329 0.749275 0.156282
H72   H     H_    0.766591 0.114077 0.816747 0.094549
H73   H     H_    0.786266 0.035548 0.855834 0.167524
H74   H     H_    0.296652 0.084383 0.039706 0.170561
H75   H     H_    0.345589 0.093813 0.147482 0.103667
H76   H     H_    0.262715 0.047326 0.250723 0.156282
H77   H     H_    0.233406 0.114074 0.183251 0.094548
H78   H     H_    0.640080 0.861051 0.341972 0.121618
H79   H     H_    0.213733 0.035546 0.144162 0.167523
H80   H     H_    0.140081 0.638949 0.658028 0.121618
N1    N     N_R   0.000000 0.500000 0.743810 -0.259566
N2    N     N_R   1.000000 0.500000 0.256190 -0.259566
N3    N     N_R   0.500000 0.000000 0.743810 -0.259566
N4    N     N_R   0.500000 1.000000 0.256190 -0.259566
O1    O     O_R   0.064880 0.435140 0.582280 -0.507571
O2    O     O_R   0.435120 0.064860 0.417720 -0.510390
O3    O     O_R   0.435120 0.064860 0.582280 -0.507571
O4    O     O_R   0.564880 0.935140 0.417720 -0.510390
O5    O     O_R   0.435120 0.935140 0.417720 -0.507571
O6    O     O_R   0.564880 0.064860 0.582280 -0.510391
O7    O     O_R   0.564880 0.064860 0.417720 -0.507571
O8    O     O_R   0.435120 0.935140 0.582280 -0.510390
O9    O     O_3   0.829478 0.498625 0.898342 -0.568108
O10   O     O_3   0.170522 0.498624 0.101658 -0.568107
O11   O     O_3   0.170522 0.501374 0.898342 -0.568107
O12   O     O_R   0.935120 0.564860 0.417720 -0.510390
O13   O     O_3   0.829478 0.501376 0.101658 -0.568108
O14   O     O_3   0.329478 0.998624 0.898342 -0.568107
O15   O     O_3   0.670522 0.998625 0.101658 -0.568108
O16   O     O_3   0.670522 0.001376 0.898341 -0.568107
O17   O     O_3   0.329478 0.001374 0.101658 -0.568108
O18   O     O_R   0.935120 0.564860 0.582280 -0.507571
O19   O     O_R   0.064880 0.435140 0.417720 -0.510391
O20   O     O_R   0.935120 0.435140 0.417720 -0.507571
O21   O     O_R   0.064880 0.564860 0.582280 -0.510390
O22   O     O_R   0.064880 0.564860 0.417720 -0.507571
O23   O     O_R   0.935120 0.435140 0.582280 -0.510390
O24   O     O_R   0.564880 0.935140 0.582280 -0.507571

loop_
_geom_bond_atom_site_label_1
_geom_bond_atom_site_label_2
_ccdc_geom_bond_type
C61   C70   A    
C3    C104  A    
C12   H58   S    
C73   O2    A    
C24   N3    A    
C19   H75   S    
C33   C46   A    
C25   H35   S    
C41   C42   A    
C112  H20   S    
C9    H49   S    
C35   C36   A    
C2    N2    A    
C57   C66   A    
C105  C110  A    
C8    O11   S    
C69   C78   A    
C111  H19   S    
C48   C57   A    
Cu2   N2    S    
C45   C46   A    
Cu2   O22   S    
C83   C92   A    
C96   C112  A    
C80   C107  A    
Cu1   O21   S    
Cu3   O8    S    
C22   N3    A    
C40   O20   A    
C50   C59   A    
C114  H22   S    
C86   C94   A    
C108  H16   S    
Cu1   O1    S    
C16   H65   S    
C116  H25   S    
C26   C39   A    
C98   C114  A    
C54   C63   A    
C102  C115  A    
C10   H52   S    
C15   C16   S    
C15   H64   S    
C68   C77   A    
C79   C105  A    
C23   H32   S    
C109  H17   S    
C32   C45   A    
C54   H56   S    
C80   C89   A    
C79   C88   A    
C107  H15   S    
C42   O11   S    
C8    H48   S    
C115  H24   S    
C23   N4    A    
C53   C61   A    
C74   H8    S    
C6    H42   S    
C28   C35   A    
C28   C106  A    
C8    C9    S    
C5    H39   S    
C15   H63   S    
C2    C30   A    
C51   O21   A    
C64   C73   S    
C71   H6    S    
C11   H57   S    
C32   C38   A    
C91   C100  A    
C97   C115  A    
C52   C60   A    
C72   C81   A    
C44   C47   A    
C109  C113  A    
C93   C110  A    
C5    H40   S    
C10   H53   S    
C64   C72   A    
C73   O3    A    
C81   C108  A    
C55   C64   A    
C18   H73   S    
C101  C114  A    
C9    H50   S    
C43   O13   S    
C85   C93   A    
C74   C82   A    
C40   O23   A    
Cu1   N1    S    
C68   H3    S    
C62   O4    A    
C71   C80   A    
C14   H62   S    
C94   C113  A    
Cu3   O24   S    
C56   H78   S    
Cu4   O7    S    
C76   C102  A    
C29   O18   A    
C83   C89   A    
C49   H12   S    
C18   H71   S    
C40   C58   S    
C31   C44   A    
C39   O9    S    
C72   H7    S    
C78   C104  A    
Cu4   O4    S    
C82   C109  A    
C29   C59   S    
C110  H18   S    
Cu3   N3    S    
C46   O16   S    
C16   H68   S    
C1    C60   S    
C48   H1    S    
C84   O5    A    
C50   C94   A    
C29   O12   A    
C39   C43   A    
C19   O17   S    
C69   H4    S    
C53   C97   A    
C2    H28   S    
C7    H43   S    
C12   O14   S    
C33   C37   A    
C106  H27   S    
C108  C112  A    
C20   H79   S    
C37   C38   A    
C8    H47   S    
C3    C99   A    
C59   C68   A    
C56   C65   A    
C27   C41   A    
C4    H37   S    
C6    O10   S    
C6    H41   S    
C23   C34   A    
C18   H72   S    
C87   C96   A    
C51   O22   A    
C84   O8    A    
C17   C18   S    
C44   O14   S    
C21   H30   S    
C17   H69   S    
C17   O16   S    
C19   H74   S    
C51   C57   S    
C81   C90   A    
C70   H5    S    
C53   H45   S    
C4    H36   S    
C7    H46   S    
C12   C14   S    
C77   C86   A    
C55   H67   S    
Cu2   O20   S    
C45   O15   S    
C30   C43   A    
C77   C103  A    
Cu3   O3    S    
C49   C58   A    
C56   C100  A    
C25   N4    A    
C15   O15   S    
C67   H2    S    
C90   C99   A    
C14   H61   S    
C1    O1    A    
C50   H23   S    
C85   C88   A    
Cu4   O5    S    
C22   C33   A    
C22   H31   S    
Cu1   O23   S    
C11   H54   S    
C4    O9    S    
C65   C74   A    
C62   C65   S    
Cu2   O19   S    
C34   C38   A    
C95   O6    A    
C107  C111  A    
C21   N2    A    
C24   H33   S    
C88   C97   A    
C63   C71   A    
C4    C5    S    
C1    O19   A    
Cu3   Cu4   S    
C61   C95   S    
C92   C111  A    
C6    C7    S    
C67   C76   A    
C17   H70   S    
C7    H44   S    
C63   C84   S    
C11   H55   S    
Cu1   O18   S    
C30   C36   A    
C89   C98   A    
C86   C91   A    
C27   C36   A    
Cu4   O2    S    
C100  C116  A    
C19   C20   S    
C103  C116  A    
C24   C31   A    
C95   O7    A    
C58   C67   A    
C16   H66   S    
Cu1   Cu2   S    
C106  N1    A    
C41   O10   S    
Cu4   N4    S    
C75   C83   A    
C70   C79   A    
C103  H11   S    
C60   C69   A    
C25   C32   A    
C62   O24   A    
C66   C75   A    
C28   C42   A    
C13   N1    A    
C52   C96   A    
C78   C87   A    
C113  H21   S    
C21   C27   A    
C13   C26   A    
C14   H60   S    
C20   H77   S    
C9    H51   S    
C10   C11   S    
C82   C91   A    
C13   H29   S    
C104  H13   S    
C31   C37   A    
C26   C35   A    
C12   H59   S    
C3    H26   S    
C5    H38   S    
C48   C92   A    
C87   C90   A    
C55   C99   A    
C75   C101  A    
C54   C98   A    
Cu2   O12   S    
C34   C47   A    
C49   C93   A    
C52   H34   S    
C76   C85   A    
C20   H76   S    
C66   H80   S    
C47   O17   S    
C10   O13   S    
C101  H9    S    
C105  H14   S    
Cu3   O6    S    
C102  H10   S    
