data_mof_unit_54021.cif
_audit_creation_date              2013-03-05T16:43:53-0500
_audit_creation_method            fapswitch 2.2
_symmetry_space_group_name_H-M    P1
_symmetry_Int_Tables_number       1
_space_group_crystal_system       triclinic
_cell_length_a                    9.909554
_cell_length_b                    10.677109
_cell_length_c                    16.666303
_cell_angle_alpha                 91.543711
_cell_angle_beta                  86.138398
_cell_angle_gamma                 89.198046
_cell_volume                      1758.52159566

loop_
_atom_site_label
_atom_site_type_symbol
_atom_site_description
_atom_site_fract_x
_atom_site_fract_y
_atom_site_fract_z
_atom_type_partial_charge
O1    O     O_R   0.385310 0.683210 0.499990 -0.600393
O2    O     O_R   0.614650 0.683240 0.500000 -0.615498
C1    C     C_R   0.500389 0.739362 0.492690 0.900713
O3    O     O_R   0.371780 0.500000 0.615800 -0.604810
O4    O     O_R   0.601120 0.500040 0.615800 -0.574535
C2    C     C_R   0.482464 0.493476 0.653010 0.995623
Zn1   Zn    Zn3+2 0.346870 0.499980 0.499990 1.037293
Zn2   Zn    Zn3+2 0.653130 0.500020 0.500010 1.072113
O5    O     O_R   0.385350 0.316760 0.500000 -0.638922
O6    O     O_R   0.614690 0.316790 0.500010 -0.561082
O7    O     O_R   0.398880 0.499960 0.384200 -0.593057
O8    O     O_R   0.628220 0.500000 0.384200 -0.600413
C3    C     C_R   0.501018 0.259719 0.496728 0.969185
C4    C     C_R   0.517973 0.493133 0.346874 0.848480
C5    C     C_R   0.474376 0.470630 0.739117 -0.239867
C6    C     C_R   0.583292 0.412331 0.774850 0.235617
C7    C     C_R   0.580489 0.410961 0.859141 0.405070
C8    C     C_R   0.457569 0.436286 0.904812 -0.031454
C9    C     C_R   0.344333 0.484297 0.867869 0.306815
C10   C     C_R   0.356147 0.504780 0.785526 -0.233806
C11   C     C_R   0.444478 0.287054 0.171371 0.319908
C12   C     C_R   0.445137 0.341167 0.248137 -0.214687
C13   C     C_R   0.621844 0.485513 0.204383 0.505823
C14   C     C_R   0.626268 0.427090 0.128551 -0.117583
C15   C     C_R   0.533338 0.333718 0.110466 -0.157977
C16   C     C_2   0.451802 0.418035 0.991734 -0.198882
C17   C     C_2   0.504460 0.317036 0.026013 0.365190
C18   C     C_R   0.527109 0.443692 0.264417 -0.192945
H1    H     H_    0.380926 0.302140 0.295685 0.204038
H2    H     H_    0.271684 0.546481 0.757424 0.208954
H3    H     H_    0.421589 0.499188 0.029811 0.193996
H4    H     H_    0.693100 0.463769 0.080883 0.224067
C19   C     C_R   0.381799 0.936948 0.469688 0.025428
C20   C     C_R   0.502625 0.869035 0.471216 -0.238493
C21   C     C_R   0.625949 0.932578 0.454310 0.452507
C22   C     C_R   0.625632 0.062435 0.463058 -0.057521
H5    H     H_    0.721166 0.110516 0.458735 0.250163
C23   C     C_R   0.503035 0.127852 0.480359 -0.197078
C24   C     C_R   0.382095 0.064884 0.473601 -0.062660
C25   C     C_3   0.247324 0.073365 0.520901 0.402974
C26   C     C_3   0.247421 0.929514 0.516295 0.005249
H6    H     H_    0.253288 0.884376 0.575204 0.123956
C27   C     C_R   0.920386 0.531181 0.568470 0.116912
N1    N     N_R   0.857140 0.500860 0.500530 -0.218422
C28   C     C_R   0.936431 0.455144 0.435133 0.316098
C29   C     C_R   0.079515 0.453522 0.435746 0.455610
N2    N     N_R   0.142780 0.500820 0.500530 -0.180767
C30   C     C_R   0.062731 0.530018 0.568624 0.157645
C31   C     C_3   0.063506 0.649375 0.616606 -0.483095
C32   C     C_3   0.910130 0.654022 0.613722 0.120896
H7    H     H_    0.100729 0.635679 0.677138 0.243362
H8    H     H_    0.115170 0.723566 0.582805 0.205709
H9    H     H_    0.871148 0.730831 0.577439 0.192941
N3    N     N_R   0.681302 0.336153 0.726493 0.252586
O9    O     O_R   0.805553 0.323531 0.745929 -0.253208
O10   O     O_R   0.639673 0.261021 0.670879 -0.325678
O11   O     O_3   0.747622 0.872351 0.433658 -0.653463
H10   H     H_    0.729138 0.798726 0.398827 0.348613
N4    N     N_R   0.256722 0.125848 0.603045 0.201108
O12   O     O_R   0.191163 0.228215 0.626666 -0.281869
O13   O     O_R   0.341183 0.077278 0.650564 -0.343265
N5    N     N_R   0.141124 0.132949 0.476505 0.216069
O14   O     O_R   0.149566 0.127874 0.398154 -0.296743
O15   O     O_R   0.025109 0.163474 0.513665 -0.293585
N6    N     N_R   0.142634 0.877473 0.467547 0.243073
O16   O     O_R   0.174589 0.808914 0.403099 -0.299704
O17   O     O_R   0.016019 0.890556 0.492645 -0.310008
N7    N     N_R   0.876466 0.402447 0.366569 0.262895
O18   O     O_R   0.809491 0.299103 0.373400 -0.339580
O19   O     O_R   0.914290 0.440130 0.295065 -0.252630
O20   O     O_3   0.152416 0.397307 0.371676 -0.646132
H11   H     H_    0.227871 0.352887 0.394720 0.366279
N8    N     N_R   0.837768 0.645797 0.692818 0.249758
O21   O     O_R   0.732751 0.717999 0.710976 -0.331858
O22   O     O_R   0.880749 0.572284 0.746973 -0.318298
O23   O     O_3   0.705742 0.585975 0.215097 -0.662583
H12   H     H_    0.676711 0.632391 0.265607 0.335967
N9    N     N_R   0.542366 0.202422 0.981988 0.296331
O24   O     O_R   0.633881 0.128181 0.008190 -0.237710
O25   O     O_R   0.476384 0.165592 0.920889 -0.275428
N10   N     N_R   0.216469 0.510679 0.911817 0.245364
O26   O     O_R   0.210784 0.568812 0.981567 -0.312467
O27   O     O_R   0.104338 0.492064 0.877160 -0.275033
N11   N     N_R   0.347325 0.191880 0.155685 0.228406
O28   O     O_R   0.377875 0.099882 0.104698 -0.269010
O29   O     O_R   0.233013 0.189113 0.198917 -0.246290
O30   O     O_3   0.694447 0.381147 0.898244 -0.681692
H13   H     H_    0.771136 0.426335 0.871886 0.411396

loop_
_geom_bond_atom_site_label_1
_geom_bond_atom_site_label_2
_geom_bond_distance
_ccdc_geom_bond_type
O30   H13   0.989947 S    
C12   H1    1.078795 S    
N8    O21   1.300549 A    
C21   C22   1.390167 A    
C8    C16   1.464317 S    
C13   O23   1.381409 S    
C17   N9    1.441753 S    
N10   O26   1.300422 A    
C10   H2    1.082476 S    
C28   C29   1.418485 A    
Zn1   O7    1.963602 S    
C16   C17   1.348773 D    
C19   C24   1.365847 A    
C22   H5    1.082311 S    
N11   O29   1.302064 A    
C8    C9    1.412440 A    
O4    C2    1.295575 A    
O7    C4    1.296672 A    
N9    O25   1.301678 A    
C5    C6    1.412363 A    
C25   N5    1.473518 S    
C20   C21   1.421389 A    
C26   H6    1.109938 S    
O5    C3    1.287619 A    
N5    O15   1.301626 A    
C2    C5    1.459220 S    
N3    O9    1.300204 A    
C9    C10   1.392883 A    
N7    O18   1.299254 A    
N6    O17   1.300000 A    
C13   C14   1.391982 A    
C14   C15   1.407014 A    
C27   C30   1.410628 A    
C16   H3    1.086587 S    
C25   N4    1.474530 S    
C12   C18   1.403688 A    
C11   C12   1.390014 A    
N8    O22   1.301033 A    
O3    Zn1   1.962259 S    
N10   O27   1.301647 A    
C19   C20   1.393140 A    
C5    C10   1.398083 A    
N3    O10   1.301340 A    
N4    O13   1.302278 A    
C32   H9    1.112104 S    
N11   O28   1.300257 A    
O3    C2    1.297795 A    
C32   N8    1.462980 S    
C24   C25   1.504725 S    
N9    O24   1.301275 A    
C6    C7    1.403697 A    
C26   N6    1.467154 S    
C1    C20   1.439438 S    
C31   H7    1.109865 S    
O1    C1    1.295803 A    
Zn1   N2    2.021748 S    
C27   N1    1.364279 A    
C14   H4    1.084565 S    
N5    O14   1.302484 A    
N2    C30   1.366432 A    
C11   N11   1.440421 S    
Zn2   O8    1.962259 S    
C31   H8    1.097037 S    
C28   N7    1.428856 S    
C7    C8    1.411036 A    
C29   O20   1.368124 S    
C13   C18   1.411063 A    
O23   H12   0.988901 S    
C3    C23   1.426523 S    
N7    O19   1.300936 A    
C25   C26   1.535743 S    
O8    C4    1.295088 A    
N6    O16   1.301998 A    
N1    C28   1.374347 A    
Zn1   O5    1.987838 S    
C11   C15   1.404668 A    
C29   N2    1.372777 A    
C30   C31   1.486545 S    
O1    Zn1   1.998333 S    
O2    Zn2   1.987837 S    
Zn2   N1    2.022395 S    
O6    C3    1.291848 A    
O4    Zn2   1.963602 S    
C27   C32   1.494002 S    
C15   C17   1.461820 S    
C21   O11   1.377032 S    
C19   C26   1.499947 S    
C22   C23   1.401834 A    
O2    C1    1.288208 A    
O20   H11   0.984933 S    
O11   H10   0.991094 S    
C23   C24   1.391998 A    
C6    N3    1.446211 S    
C7    O30   1.378965 S    
N4    O12   1.301593 A    
Zn2   O6    1.998334 S    
C31   C32   1.524030 S    
C4    C18   1.455415 S    
C9    N10   1.440558 S    
