data_mof_unit_20829.cif
_audit_creation_date              2012-12-11T17:15:01-0500
_audit_creation_method            fapswitch 2.2
_symmetry_space_group_name_H-M    P1
_symmetry_Int_Tables_number       1
_space_group_crystal_system       triclinic
_cell_length_a                    7.222613
_cell_length_b                    12.164326
_cell_length_c                    21.318073
_cell_angle_alpha                 90.004343
_cell_angle_beta                  91.01441
_cell_angle_gamma                 90.023586
_cell_volume                      1872.67422101

loop_
_atom_site_label
_atom_site_type_symbol
_atom_type_description
_atom_site_fract_x
_atom_site_fract_y
_atom_site_fract_z
_atom_type_partial_charge
O1    O     O_R   0.354460 0.152320 0.595720 -0.533352
O2    O     O_R   0.645540 0.847680 0.404280 -0.533351
O3    O     O_R   0.145540 0.652320 0.404280 -0.533336
O4    O     O_R   0.854460 0.347680 0.595720 -0.533336
O5    O     O_R   0.683670 0.140090 0.727290 -0.538911
O6    O     O_R   0.316330 0.859910 0.272710 -0.538910
O7    O     O_R   0.816330 0.640090 0.272710 -0.538892
O8    O     O_R   0.183670 0.359910 0.727290 -0.538892
O9    O     O_R   0.854010 0.349340 0.727750 -0.536485
O10   O     O_R   0.145990 0.650660 0.272250 -0.536485
O11   O     O_R   0.645990 0.849340 0.272250 -0.536303
O12   O     O_R   0.354010 0.150660 0.727750 -0.536301
C1    C     C_R   0.517066 0.112116 0.746833 0.686058
C2    C     C_R   0.482933 0.887885 0.253167 0.686059
C3    C     C_R   0.982846 0.612102 0.253154 0.686222
C4    C     C_R   0.017154 0.387898 0.746846 0.686222
O13   O     O_R   0.684170 0.139420 0.596190 -0.536066
O14   O     O_R   0.315830 0.860580 0.403810 -0.536067
O15   O     O_R   0.815830 0.639420 0.403810 -0.536135
O16   O     O_R   0.184170 0.360580 0.596190 -0.536135
C5    C     C_R   0.514761 0.113148 0.574446 0.712155
C6    C     C_R   0.485239 0.886852 0.425554 0.712155
C7    C     C_R   0.985210 0.613145 0.425555 0.712120
C8    C     C_R   0.014790 0.386855 0.574444 0.712120
O17   O     O_3   0.520730 0.319480 0.661730 -0.376009
O18   O     O_3   0.479270 0.680520 0.338270 -0.376008
O19   O     O_3   0.979270 0.819480 0.338270 -0.375875
O20   O     O_3   0.020730 0.180520 0.661730 -0.375875
V1    V     V_3+5 0.795560 0.238090 0.661730 1.427268
V2    V     V_3+5 0.204440 0.761910 0.338270 1.427267
V3    V     V_3+5 0.704440 0.738090 0.338270 1.427264
V4    V     V_3+5 0.295560 0.261910 0.661730 1.427265
C9    C     C_R   0.016568 0.466568 0.798399 -0.031649
C10   C     C_R   0.983432 0.533431 0.201601 -0.031651
C11   C     C_R   0.484079 0.966425 0.201586 -0.030646
C12   C     C_R   0.515914 0.033578 0.798415 -0.030635
C13   C     C_R   0.083004 0.647895 0.838605 -0.168753
C14   C     C_R   0.916981 0.352106 0.161395 -0.168756
C15   C     C_R   0.426301 0.148899 0.161689 -0.169087
C16   C     C_R   0.573584 0.851094 0.838310 -0.169086
C17   C     C_R   0.066041 0.575887 0.788147 -0.178438
C18   C     C_R   0.933946 0.424113 0.211853 -0.178435
C19   C     C_R   0.440532 0.076543 0.212063 -0.178864
C20   C     C_R   0.559378 0.923451 0.787936 -0.178872
C21   C     C_R   0.984758 0.428763 0.859060 -0.218174
C22   C     C_R   0.015252 0.571234 0.140941 -0.218174
C23   C     C_R   0.512565 0.928139 0.140821 -0.217850
C24   C     C_R   0.487475 0.071870 0.859181 -0.217841
C25   C     C_R   0.006810 0.499080 0.911498 0.080365
C26   C     C_R   0.993192 0.500918 0.088503 0.080365
C27   C     C_R   0.493513 0.998928 0.088498 0.080918
C28   C     C_R   0.506465 0.001075 0.911503 0.080922
C29   C     C_R   0.055805 0.610332 0.900010 0.130326
C30   C     C_R   0.944188 0.389668 0.099991 0.130322
C31   C     C_R   0.450632 0.110997 0.100189 0.129907
C32   C     C_R   0.549289 0.889000 0.899811 0.129904
C33   C     C_R   0.985892 0.462175 0.974672 0.052798
C34   C     C_R   0.014110 0.537824 0.025328 0.052799
C35   C     C_R   0.512065 0.961840 0.025261 0.053180
C36   C     C_R   0.487899 0.038162 0.974739 0.053176
C37   C     C_R   0.061080 0.647901 0.011112 -0.194700
C38   C     C_R   0.938915 0.352099 0.988888 -0.194705
C39   C     C_R   0.447069 0.149029 0.989145 -0.195388
C40   C     C_R   0.552851 0.850967 0.010855 -0.195388
C41   C     C_R   0.080895 0.683027 0.949773 -0.199305
C42   C     C_R   0.919094 0.316973 0.050227 -0.199309
C43   C     C_R   0.429189 0.184280 0.050544 -0.200411
C44   C     C_R   0.570702 0.815714 0.949455 -0.200415
H1    H     H_    0.118301 0.768038 0.941274 0.140028
H2    H     H_    0.881679 0.231964 0.058726 0.140027
H3    H     H_    0.396552 0.269930 0.059190 0.139494
H4    H     H_    0.603293 0.730058 0.940809 0.139492
H5    H     H_    0.050245 0.656893 0.136596 0.099277
H6    H     H_    0.949780 0.343102 0.863405 0.099274
H7    H     H_    0.456739 0.158072 0.863659 0.098614
H8    H     H_    0.543389 0.841948 0.136346 0.098625
H9    H     H_    0.121658 0.732553 0.829776 0.125814
H10   H     H_    0.878317 0.267450 0.170224 0.125814
H11   H     H_    0.392481 0.234224 0.170677 0.125561
H12   H     H_    0.607349 0.765762 0.829321 0.125560
H13   H     H_    0.084837 0.709952 0.046279 0.129728
H14   H     H_    0.915152 0.290048 0.953721 0.129730
H15   H     H_    0.426920 0.211660 0.954088 0.129915
H16   H     H_    0.572956 0.788332 0.045911 0.129913
C45   C     C_1   0.995780 0.533148 0.478084 -0.177802
C46   C     C_1   0.004220 0.466852 0.521916 -0.177802
C47   C     C_1   0.504182 0.033151 0.521917 -0.177809
C48   C     C_1   0.495818 0.966849 0.478083 -0.177809
H17   H     H_    0.906709 0.394996 0.258825 0.106781
H18   H     H_    0.093270 0.605007 0.741175 0.106779
H19   H     H_    0.583690 0.893898 0.740853 0.106447
H20   H     H_    0.416179 0.106090 0.259145 0.106452

loop_
_geom_bond_atom_site_label_1
_geom_bond_atom_site_label_2
_ccdc_geom_bond_type
C47   C48   T    
C5    C47   S    
O1    C5    A    
C9    C21   A    
O3    C7    A    
C10   C18   A    
O15   V3    S    
C25   C33   A    
C33   C38   A    
C45   C46   T    
C35   C40   A    
C26   C30   A    
C36   C39   A    
C40   C44   A    
O20   V1    S    
O9    C4    A    
C23   H8    S    
C14   C18   A    
C24   C28   A    
O10   C3    A    
O4    C8    A    
O11   C2    A    
C25   C29   A    
C43   H3    S    
O13   V1    S    
C40   H16   S    
C28   C36   A    
C15   C31   A    
O16   C8    A    
C16   C32   A    
O2    C6    A    
C16   H12   S    
C10   C22   A    
C6    C48   S    
C11   C19   A    
C3    C10   S    
O5    C1    A    
O4    V1    S    
O9    V1    S    
C13   C29   A    
C34   C37   A    
O7    C3    A    
C17   H18   S    
C38   H14   S    
C11   C23   A    
C35   C36   A    
O8    C4    A    
O12   V4    S    
O19   V2    S    
C24   H7    S    
O5    V1    S    
C15   C19   A    
C39   C43   A    
O7    V3    S    
C38   C42   A    
O8    V4    S    
C1    C12   S    
C2    C11   S    
C23   C27   A    
C14   H10   S    
C32   C44   A    
C13   H9    S    
O1    V4    S    
O13   C5    A    
C39   H15   S    
O2    V3    S    
C26   C34   A    
O3    V2    S    
O15   C7    A    
C4    C9    S    
O6    C2    A    
O10   V2    S    
C14   C30   A    
C21   C25   A    
C44   H4    S    
C20   H19   S    
O14   V2    S    
O6    V2    S    
C16   C20   A    
C12   C20   A    
C27   C35   A    
C29   C41   A    
O16   V4    S    
O14   C6    A    
C31   C43   A    
C30   C42   A    
C22   C26   A    
C19   H20   S    
C18   H17   S    
C9    C17   A    
C37   H13   S    
C33   C34   A    
C42   H2    S    
O17   V4    S    
C41   H1    S    
C12   C24   A    
C27   C31   A    
C13   C17   A    
O11   V3    S    
C37   C41   A    
O18   V3    S    
O12   C1    A    
C7    C45   S    
C21   H6    S    
C8    C46   S    
C22   H5    S    
C28   C32   A    
C15   H11   S    
