data_mof_unit_53561.cif
_audit_creation_date              2012-12-10T16:57:09-0500
_audit_creation_method            fapswitch 2.2
_symmetry_space_group_name_H-M    P1
_symmetry_Int_Tables_number       1
_space_group_crystal_system       triclinic
_cell_length_a                    7.946822
_cell_length_b                    8.543204
_cell_length_c                    16.601906
_cell_angle_alpha                 94.525537
_cell_angle_beta                  79.042319
_cell_angle_gamma                 93.064352
_cell_volume                      1102.27337013

loop_
_atom_site_label
_atom_site_type_symbol
_atom_type_description
_atom_site_fract_x
_atom_site_fract_y
_atom_site_fract_z
_atom_type_partial_charge
Br1   Br    Br    0.736020 0.512735 0.929576 -0.481326
Br2   Br    Br    0.250550 0.204424 0.046102 -0.497352
C1    C     C_R   0.544818 0.793932 0.498433 0.951272
C2    C     C_R   0.410022 0.537408 0.221506 -0.136830
C3    C     C_R   0.522523 0.260018 0.827202 -0.098533
C4    C     C_R   0.417423 0.512703 0.137598 -0.098069
C5    C     C_R   0.405136 0.330879 0.891210 0.145136
C6    C     C_R   0.554747 0.433623 0.088895 0.157898
C7    C     C_R   0.297541 0.445404 0.876021 -0.095990
C8    C     C_R   0.691072 0.389299 0.122958 -0.103090
C9    C     C_R   0.317863 0.498957 0.797723 -0.132968
C10   C     C_R   0.684789 0.415436 0.207067 -0.172567
C11   C     C_2   0.426656 0.318690 0.975085 0.135540
C12   C     C_R   0.455037 0.206097 0.502069 0.941174
C13   C     C_2   0.556756 0.402598 0.001679 0.142881
C14   C     C_2   0.568296 0.957396 0.498325 -0.359687
C15   C     C_2   0.431175 0.042756 0.503441 -0.320518
C16   C     C_R   0.473624 0.493475 0.653599 0.854460
C17   C     C_R   0.525151 0.497382 0.345623 0.852043
C18   C     C_R   0.447844 0.439530 0.735606 -0.032391
C19   C     C_R   0.541965 0.486078 0.256823 -0.038116
C20   C     C_R   0.545167 0.315539 0.749608 -0.118384
H1    H     H_    0.640686 0.263456 0.700876 0.181539
H2    H     H_    0.301012 0.993118 0.508236 0.234068
H3    H     H_    0.901251 0.098908 0.355652 0.362567
H4    H     H_    0.072750 0.790274 0.704162 0.368262
H5    H     H_    0.300260 0.594437 0.258776 0.166759
H6    H     H_    0.788274 0.375578 0.233361 0.203064
H7    H     H_    0.238195 0.590974 0.786587 0.182438
H8    H     H_    0.207337 0.501100 0.925895 0.175836
H9    H     H_    0.799262 0.331187 0.084932 0.187721
H10   H     H_    0.314454 0.552078 0.110698 0.160175
H11   H     H_    0.606376 0.172046 0.839049 0.171519
H12   H     H_    0.698310 0.006853 0.493944 0.234275
N1    N     N_2   0.953500 0.457650 0.478520 0.108612
N2    N     N_2   0.046500 0.542350 0.521480 0.109610
O1    O     O_R   0.388470 0.738640 0.505270 -0.592877
O2    O     O_2   0.012605 0.162521 0.496923 -0.314526
O3    O     O_3   0.871607 0.209111 0.373252 -0.543025
O4    O     O_2   0.822474 0.746025 0.611000 -0.288564
O5    O     O_2   0.902353 0.520739 0.677512 -0.285490
O6    O     O_3   0.121070 0.752320 0.646925 -0.531248
O7    O     O_R   0.611530 0.261360 0.494730 -0.579581
O8    O     O_R   0.679650 0.711510 0.491500 -0.590727
O9    O     O_R   0.320350 0.288490 0.508500 -0.549907
O10   O     O_R   0.337210 0.515200 0.623500 -0.574059
O11   O     O_R   0.662790 0.484800 0.376500 -0.604220
O12   O     O_R   0.628380 0.488060 0.609730 -0.555084
O13   O     O_R   0.371620 0.511940 0.390270 -0.595473
O14   O     O_2   0.186001 0.278657 0.375777 -0.292746
S1    S     S_3+6 0.014774 0.275613 0.431779 0.131339
S2    S     S_3+6 0.963395 0.639306 0.615032 0.156768
Zn1   Zn    Zn3+2 0.305580 0.518120 0.509190 1.139668
Zn2   Zn    Zn3+2 0.694420 0.481880 0.490810 1.128722

loop_
_geom_bond_atom_site_label_1
_geom_bond_atom_site_label_2
_ccdc_geom_bond_type
O3    S1    S    
Br1   C13   S    
C6    C13   S    
C3    C5    A    
C17   O13   A    
O5    S2    D    
C4    H10   S    
N1    N2    D    
N2    S2    S    
O1    Zn1   S    
O14   S1    D    
O9    Zn1   S    
H3    O3    S    
N1    Zn2   S    
O12   Zn2   S    
C2    C19   A    
C7    C9    A    
C12   C15   S    
C9    H7    S    
C8    C10   A    
C7    H8    S    
C10   H6    S    
O11   Zn2   S    
O13   Zn1   S    
C16   O10   A    
O10   Zn1   S    
C2    C4    A    
C17   C19   S    
O2    S1    D    
C18   C20   A    
C8    H9    S    
C12   O9    A    
C16   C18   S    
C3    H11   S    
C11   C13   D    
H4    O6    S    
N1    S1    S    
C1    O8    A    
C17   O11   A    
C9    C18   A    
C15   H2    S    
C1    C14   S    
O8    Zn2   S    
C5    C11   S    
C2    H5    S    
C1    O1    A    
C6    C8    A    
C5    C7    A    
Br2   C11   S    
C20   H1    S    
C14   C15   D    
C4    C6    A    
N2    Zn1   S    
O7    Zn2   S    
C14   H12   S    
O4    S2    D    
C10   C19   A    
C3    C20   A    
O6    S2    S    
C12   O7    A    
C16   O12   A    
