data_mof_unit_25248.cif
_audit_creation_date              2012-10-26T21:05:22-0400
_audit_creation_method            fapswitch 2.2
_symmetry_space_group_name_H-M    P1
_symmetry_Int_Tables_number       1
_space_group_crystal_system       triclinic
_cell_length_a                    9.668486
_cell_length_b                    10.833752
_cell_length_c                    13.888815
_cell_angle_alpha                 93.946557
_cell_angle_beta                  84.617027
_cell_angle_gamma                 90.423738
_cell_volume                      1444.94649203

loop_
_atom_site_label
_atom_site_type_symbol
_atom_type_description
_atom_site_fract_x
_atom_site_fract_y
_atom_site_fract_z
_atom_type_partial_charge
C1    C     C_R   0.500012 0.736966 0.503012 0.543618
C2    C     C_R   0.588303 0.929682 0.436791 -0.030809
C3    C     C_R   0.587370 0.058340 0.435918 0.113558
C4    C     C_R   0.477150 0.500762 0.682604 0.532952
C5    C     C_R   0.499654 0.128866 0.505498 0.035436
C6    C     C_R   0.869885 0.364898 0.353913 -0.083069
C7    C     C_R   0.941552 0.332470 0.265569 -0.180821
C8    C     C_R   0.083521 0.342306 0.256350 -0.132086
C9    C     C_R   0.153356 0.370201 0.338917 0.036125
C10   C     C_R   0.082534 0.433374 0.424735 0.136727
C11   C     C_R   0.933095 0.432695 0.427634 0.133160
C12   C     C_1   0.463363 0.502449 0.785718 -0.020465
C13   C     C_R   0.918853 0.568069 0.567730 0.089084
C14   C     C_R   0.065940 0.565855 0.568538 -0.005455
C15   C     C_R   0.499728 0.263016 0.502266 0.578838
C16   C     C_R   0.522940 0.499949 0.317452 0.558698
C17   C     C_1   0.537442 0.499589 0.214466 -0.018792
C18   C     C_2   0.562966 0.500542 0.023113 0.142246
C19   C     C_2   0.446416 0.507634 0.976536 0.007505
C20   C     C_1   0.453960 0.504548 0.872611 -0.051709
C21   C     C_1   0.549696 0.499661 0.127700 -0.017847
C22   C     C_1   0.309238 0.517714 0.028235 0.182123
C23   C     C_R   0.337458 0.883756 0.655118 -0.087109
C24   C     C_1   0.269435 0.288180 0.334994 0.260262
C25   C     C_3   0.819307 0.503479 0.023638 -0.270539
C26   C     C_1   0.677351 0.857974 0.363709 0.226994
C27   C     C_3   0.647364 0.105125 0.266807 -0.280262
C28   C     C_1   0.840927 0.648726 0.639288 0.239393
C29   C     C_R   0.257241 0.954082 0.727097 -0.112359
C30   C     C_R   0.256445 0.082206 0.726574 -0.109913
C31   C     C_R   0.335797 0.140681 0.654040 -0.098540
C32   C     C_R   0.415986 0.071220 0.578764 -0.009765
C33   C     C_R   0.416821 0.940806 0.579346 0.010478
C34   C     C_R   0.500967 0.871117 0.506524 -0.030723
Cu1   Cu    Cu3+1 0.359340 0.500010 0.500010 0.955311
Cu2   Cu    Cu3+1 0.640660 0.499990 0.499990 0.981481
H1    H     H_    0.764840 0.336223 0.361628 0.209178
H2    H     H_    0.914711 0.489754 0.973001 0.158267
H3    H     H_    0.818503 0.432540 0.077713 0.160385
H4    H     H_    0.822218 0.597574 0.060667 0.171904
H5    H     H_    0.782501 0.104609 0.375485 0.254365
H6    H     H_    0.634787 0.198341 0.240319 0.153196
H7    H     H_    0.550699 0.051017 0.257830 0.181816
H8    H     H_    0.734069 0.057362 0.221088 0.139299
H9    H     H_    0.888082 0.290262 0.206571 0.117413
H10   H     H_    0.138210 0.303692 0.189217 0.138025
H11   H     H_    0.114812 0.620561 0.624181 0.113030
H12   H     H_    0.338420 0.784864 0.661163 0.129274
H13   H     H_    0.197116 0.908990 0.784379 0.119577
H14   H     H_    0.195722 0.136740 0.783473 0.120030
H15   H     H_    0.335269 0.240566 0.659310 0.138529
H16   H     H_    0.709150 0.529625 0.904272 0.267222
N1    N     N_R   0.852210 0.498790 0.499090 -0.254795
N2    N     N_R   0.148080 0.498710 0.499060 -0.252278
N3    N     N_1   0.199643 0.525874 0.069492 -0.318831
N4    N     N_1   0.359624 0.217737 0.324760 -0.331157
N5    N     N_2   0.697899 0.490214 0.970059 -0.518370
N6    N     N_1   0.748204 0.800774 0.305518 -0.288222
N7    N     N_2   0.678880 0.118062 0.367129 -0.520896
N8    N     N_1   0.778983 0.714129 0.696933 -0.311380
O1    O     O_R   0.381190 0.680360 0.500010 -0.504329
O2    O     O_R   0.618760 0.680340 0.500000 -0.476585
O3    O     O_R   0.364420 0.499990 0.637850 -0.524078
O4    O     O_R   0.601990 0.499960 0.637840 -0.485179
O5    O     O_R   0.381240 0.319660 0.500000 -0.501490
O6    O     O_R   0.618810 0.319640 0.499990 -0.508743
O7    O     O_R   0.398010 0.500040 0.362160 -0.488790
O8    O     O_R   0.635580 0.500010 0.362150 -0.510107

loop_
_geom_bond_atom_site_label_1
_geom_bond_atom_site_label_2
_ccdc_geom_bond_type
C17   C21   T    
Cu2   O8    S    
C13   C28   S    
C6    C7    A    
C16   O8    A    
Cu2   N1    S    
C27   H7    S    
C25   H2    S    
C24   N4    T    
C18   C21   S    
C9    C10   A    
C4    O4    A    
C18   N5    S    
C31   C32   A    
C27   H6    S    
Cu1   O7    S    
C5    C32   A    
C32   C33   A    
C2    C34   A    
C33   C34   A    
C30   H14   S    
C6    H1    S    
C7    C8    A    
Cu1   O1    S    
C16   O7    A    
C29   H13   S    
C13   C14   A    
C1    O2    A    
Cu1   N2    S    
C26   N6    T    
C4    O3    A    
C12   C20   T    
C22   N3    T    
C25   N5    S    
Cu2   O2    S    
C23   C29   A    
C14   N2    A    
C1    C34   S    
C2    C3    A    
C13   N1    A    
C28   N8    T    
C25   H4    S    
C30   C31   A    
C10   N2    A    
Cu2   O6    S    
C5    C15   S    
C4    C12   S    
H16   N5    S    
Cu1   O5    S    
C29   C30   A    
C15   O5    A    
C7    H9    S    
C19   C22   S    
C1    O1    A    
C15   O6    A    
H5    N7    S    
C2    C26   S    
C18   C19   D    
C10   C11   A    
C6    C11   A    
C3    N7    S    
C16   C17   S    
Cu1   O3    S    
C23   H12   S    
C27   N7    S    
C8    H10   S    
C23   C33   A    
Cu2   O4    S    
C14   H11   S    
C27   H8    S    
C9    C24   S    
C25   H3    S    
C19   C20   S    
C31   H15   S    
C8    C9    A    
C3    C5    A    
Cu1   Cu2   S    
C11   N1    A    
