data_mof_unit_12793.cif
_audit_creation_date              2012-12-10T18:44:29-0500
_audit_creation_method            fapswitch 2.2
_symmetry_space_group_name_H-M    P1
_symmetry_Int_Tables_number       1
_space_group_crystal_system       triclinic
_cell_length_a                    12.942632
_cell_length_b                    10.772144
_cell_length_c                    9.983196
_cell_angle_alpha                 91.360907
_cell_angle_beta                  97.333957
_cell_angle_gamma                 94.066746
_cell_volume                      1376.23631378

loop_
_atom_site_label
_atom_site_type_symbol
_atom_type_description
_atom_site_fract_x
_atom_site_fract_y
_atom_site_fract_z
_atom_type_partial_charge
C1    C     C_R   0.502012 0.260453 0.498892 1.033008
C2    C     C_R   0.701356 0.495715 0.526789 0.922423
C3    C     C_R   0.813470 0.488268 0.543047 -0.185595
C4    C     C_R   0.186527 0.511711 0.456952 -0.185588
C5    C     C_R   0.019731 0.506727 0.316990 -0.161606
C6    C     C_R   0.980265 0.493237 0.683009 -0.161600
C7    C     C_R   0.128290 0.516553 0.329379 0.584361
C8    C     C_R   0.871706 0.483417 0.670619 0.584372
C9    C     C_R   0.137374 0.511210 0.572988 -0.235021
C10   C     C_R   0.862623 0.488758 0.427011 -0.235037
C11   C     C_R   0.029758 0.502398 0.564812 0.004370
C12   C     C_R   0.497987 0.739547 0.501108 1.033009
C13   C     C_R   0.970239 0.497566 0.435186 0.004380
C14   C     C_R   0.469084 0.057339 0.378750 0.552982
C15   C     C_R   0.530913 0.942661 0.621250 0.552987
C16   C     C_R   0.461788 0.929958 0.382198 0.557783
C17   C     C_R   0.538210 0.070042 0.617802 0.557759
C18   C     C_2   0.960722 0.505389 0.179803 1.054444
C19   C     C_2   0.039274 0.494570 0.820196 1.054426
C20   C     C_2   0.629451 0.680069 0.168501 1.009574
C21   C     C_2   0.370569 0.319910 0.831508 1.009613
C22   C     C_2   0.665955 0.637712 0.893895 1.039243
C23   C     C_R   0.495274 0.872082 0.502583 -0.564276
C24   C     C_2   0.334046 0.362282 0.106101 1.039262
C25   C     C_R   0.504724 0.127918 0.497416 -0.564283
C26   C     C_R   0.569872 0.576942 0.085954 -0.020418
C27   C     C_R   0.430131 0.423053 0.914046 -0.020438
C28   C     C_R   0.573887 0.572322 0.943437 -0.045874
C29   C     C_R   0.426114 0.427676 0.056563 -0.045881
C30   C     C_R   0.298643 0.504280 0.473210 0.922440
F1    F     F_    0.823584 0.470456 0.783038 -0.639228
F2    F     F_    0.176411 0.529512 0.216959 -0.639241
F3    F     F_    0.440768 0.109947 0.259114 -0.533170
F4    F     F_    0.559228 0.890053 0.740887 -0.533167
F5    F     F_    0.419515 0.863859 0.268265 -0.530139
F6    F     F_    0.580482 0.136141 0.731735 -0.530142
H1    H     H_    0.816107 0.484449 0.329441 0.255354
H2    H     H_    0.183889 0.515517 0.670559 0.255346
H3    H     H_    0.853386 0.414764 0.040224 0.420177
H4    H     H_    0.146614 0.585187 0.959776 0.420177
H5    H     H_    0.761175 0.742521 0.287769 0.347375
H6    H     H_    0.238873 0.257434 0.712198 0.347370
H7    H     H_    0.820755 0.686446 0.927594 0.388559
H8    H     H_    0.179250 0.313529 0.072387 0.388565
N1    N     N_R   0.499970 0.499970 0.857200 -0.155328
N2    N     N_R   0.500030 0.500030 0.142800 -0.155328
O1    O     O_R   0.499990 0.316750 0.614620 -0.580612
O2    O     O_R   0.889803 0.404490 0.134859 -0.757626
O3    O     O_2   0.024453 0.408252 0.894353 -0.533487
O4    O     O_R   0.110191 0.595469 0.865146 -0.757627
O5    O     O_2   0.595259 0.782923 0.167067 -0.522393
O6    O     O_R   0.727773 0.663777 0.237828 -0.788499
O7    O     O_2   0.404757 0.217052 0.832999 -0.522376
O8    O     O_R   0.272265 0.336190 0.762124 -0.788504
O9    O     O_2   0.656917 0.695669 0.790785 -0.514066
O10   O     O_R   0.764568 0.635898 0.969104 -0.753066
O11   O     O_2   0.343082 0.304337 0.209220 -0.514058
O12   O     O_R   0.500010 0.683250 0.385380 -0.580586
O13   O     O_R   0.235437 0.364077 0.030878 -0.753119
O14   O     O_R   0.499990 0.316780 0.385290 -0.542254
O15   O     O_R   0.500010 0.683220 0.614710 -0.542259
O16   O     O_R   0.346360 0.499970 0.595710 -0.632842
O17   O     O_R   0.653640 0.500030 0.404290 -0.632876
O18   O     O_R   0.346360 0.499990 0.366380 -0.555984
O19   O     O_R   0.653640 0.500010 0.633620 -0.555986
O20   O     O_2   0.975544 0.591702 0.105640 -0.533471
Zn1   Zn    Zn3+2 0.500000 0.499980 0.653120 1.081847
Zn2   Zn    Zn3+2 0.500000 0.500020 0.346880 1.081849

loop_
_geom_bond_atom_site_label_1
_geom_bond_atom_site_label_2
_ccdc_geom_bond_type
N1    Zn1   S    
C21   O7    D    
N2    Zn2   S    
C22   O9    D    
C6    C19   S    
C17   F6    S    
C30   O18   A    
C18   O20   D    
C11   C13   A    
C19   O3    D    
C15   F4    S    
C5    C13   A    
C19   O4    S    
C22   O10   S    
C29   N2    A    
C2    O19   A    
C17   C25   A    
C27   N1    A    
C14   F3    S    
C15   C23   A    
C2    C3    S    
C21   C27   S    
C12   O12   A    
C20   O5    D    
C20   O6    S    
C3    C10   A    
C22   C28   S    
C14   C25   A    
H6    O8    S    
C1    C25   S    
C12   O15   A    
C9    C11   A    
C12   C23   S    
C20   C26   S    
O16   Zn1   S    
C4    C7    A    
H4    O4    S    
O18   Zn2   S    
O1    Zn1   S    
C9    H2    S    
C24   O11   D    
C16   C23   A    
C24   O13   S    
C30   O16   A    
C16   F5    S    
C21   O8    S    
C7    F2    S    
C14   C16   A    
C28   N1    A    
C27   C29   A    
C26   N2    A    
H8    O13   S    
H7    O10   S    
C2    O17   A    
O14   Zn2   S    
C5    C7    A    
C3    C8    A    
C10   H1    S    
C1    O14   A    
O12   Zn2   S    
C6    C11   A    
C15   C17   A    
O15   Zn1   S    
O17   Zn2   S    
C1    O1    A    
C6    C8    A    
C5    C18   S    
H5    O6    S    
C4    C9    A    
C24   C29   S    
C8    F1    S    
C26   C28   A    
C4    C30   S    
H3    O2    S    
O19   Zn1   S    
C10   C13   A    
C18   O2    S    
