data_mof_unit_66528.cif
_audit_creation_date              2012-12-11T18:55:05-0500
_audit_creation_method            fapswitch 2.2
_symmetry_space_group_name_H-M    P1
_symmetry_Int_Tables_number       1
_space_group_crystal_system       triclinic
_cell_length_a                    8.231454
_cell_length_b                    15.141802
_cell_length_c                    16.474891
_cell_angle_alpha                 111.2382
_cell_angle_beta                  97.88219
_cell_angle_gamma                 81.516278
_cell_volume                      1885.19158793

loop_
_atom_site_label
_atom_site_type_symbol
_atom_type_description
_atom_site_fract_x
_atom_site_fract_y
_atom_site_fract_z
_atom_type_partial_charge
Ba1   Ba    Ba6+2 0.364200 0.465260 0.540910 1.676783
Ba2   Ba    Ba6+2 0.825640 0.534660 0.459080 1.677201
C1    C     C_3   0.304249 0.180612 0.765189 0.650459
C2    C     C_3   0.242933 0.264902 0.735035 0.362723
C3    C     C_3   0.023826 0.730235 0.733769 0.303904
C4    C     C_3   0.035212 0.781263 0.833394 0.770442
C5    C     C_3   0.506760 0.673465 0.229709 0.328094
C6    C     C_3   0.464728 0.683910 0.139994 0.254385
C7    C     C_3   0.966512 0.734018 0.256508 0.774692
C8    C     C_3   0.899088 0.816513 0.223047 0.756996
C9    C     C_2   0.305405 0.481254 0.241891 -0.356187
C10   C     C_R   0.893622 0.527331 0.749616 -0.256495
C11   C     C_2   0.459933 0.359868 0.127244 0.321719
C12   C     C_3   0.716995 0.329312 0.780631 0.495975
C13   C     C_2   0.450411 0.411440 0.212785 0.018257
C14   C     C_2   0.175924 0.492220 0.185702 0.126131
C15   C     C_3   0.179734 0.441550 0.087527 -0.134119
C16   C     C_3   0.349389 0.391710 0.059326 -0.035298
C17   C     C_2   0.113182 0.505142 0.035170 0.463313
C18   C     C_2   0.075056 0.464848 0.948085 -0.160895
C19   C     C_R   0.827921 0.569573 0.921470 0.006908
C20   C     C_R   0.975614 0.515155 0.892865 -0.053099
C21   C     C_R   0.715038 0.603584 0.865682 -0.076380
C22   C     C_R   0.744757 0.579194 0.778396 0.069884
C23   C     C_3   0.738270 0.315898 0.869016 0.410903
C24   C     C_R   0.011428 0.497723 0.807106 0.050185
C25   C     C_R   0.874981 0.196926 0.576017 -0.001603
C26   C     C_R   0.072033 0.206368 0.481165 0.025206
C27   C     C_R   0.263723 0.769803 0.483271 -0.283093
C28   C     C_R   0.353037 0.822049 0.454303 -0.024716
C29   C     C_R   0.298800 0.918706 0.465926 0.305312
C30   C     C_R   0.150318 0.962885 0.506107 0.031795
C31   C     C_R   0.072128 0.909764 0.542825 -0.065492
C32   C     C_R   0.079964 0.058980 0.514607 -0.032330
C33   C     C_R   0.948076 0.103158 0.569549 -0.035999
C34   C     C_3   0.590661 0.215055 0.313641 0.252192
C35   C     C_R   0.891303 0.051526 0.614594 0.414623
C36   C     C_R   0.946649 0.955724 0.596712 -0.073946
C37   C     C_R   0.131130 0.111082 0.467425 -0.099922
C38   C     C_R   0.945570 0.248834 0.536322 -0.287083
C39   C     C_R   0.127156 0.812691 0.529653 0.047234
C40   C     C_3   0.630765 0.106265 0.269215 0.649622
C41   C     C_3   0.413305 0.781171 0.728393 0.377405
C42   C     C_3   0.396202 0.890023 0.752033 0.662773
C43   C     C_3   0.139220 0.293354 0.271572 0.357762
C44   C     C_3   0.123348 0.246703 0.172568 -0.378277
H1    H     H_    0.289962 0.250766 0.670888 0.023821
H2    H     H_    0.550579 0.085853 0.206685 0.048612
H3    H     H_    0.359534 0.766890 0.779614 -0.091071
H4    H     H_    0.347543 0.748478 0.663563 -0.058024
H5    H     H_    0.268180 0.917104 0.770377 0.019739
H6    H     H_    0.250584 0.331710 0.293219 -0.084098
H7    H     H_    0.032722 0.346466 0.290937 0.097982
H8    H     H_    0.234140 0.195926 0.151178 0.086205
H9    H     H_    0.111041 0.301363 0.141599 0.035863
H10   H     H_    0.011997 0.207656 0.150795 0.151232
H11   H     H_    0.106033 0.271968 0.727234 -0.019264
H12   H     H_    0.902560 0.702002 0.710283 0.024289
H13   H     H_    0.122810 0.669878 0.717442 0.007220
H14   H     H_    0.134217 0.830093 0.848821 -0.144348
H15   H     H_    0.440105 0.179043 0.783161 0.053503
H16   H     H_    0.624347 0.628119 0.230631 0.067389
H17   H     H_    0.409365 0.638222 0.241992 0.062616
H18   H     H_    0.348692 0.732316 0.142453 0.117510
H19   H     H_    0.559398 0.719587 0.124816 0.094378
H20   H     H_    0.934405 0.752844 0.324763 -0.120075
H21   H     H_    0.970176 0.878574 0.260408 -0.138582
H22   H     H_    0.646110 0.399583 0.787460 -0.054981
H23   H     H_    0.602352 0.645745 0.889838 0.066844
H24   H     H_    0.296932 0.516627 0.311672 0.077077
H25   H     H_    0.919825 0.512656 0.683125 0.060615
H26   H     H_    0.104178 0.388563 0.917167 0.107381
H27   H     H_    0.892469 0.320464 0.542521 0.075382
H28   H     H_    0.211429 0.078838 0.415927 0.152853
H29   H     H_    0.841638 0.328517 0.761576 -0.121985
H30   H     H_    0.306548 0.695933 0.473759 0.075340
H31   H     H_    0.893490 0.918539 0.629376 0.057365
H32   H     H_    0.794245 0.378478 0.918088 -0.172673
H33   H     H_    0.615051 0.314172 0.888490 0.016668
H34   H     H_    0.639209 0.241437 0.383369 -0.005805
H35   H     H_    0.456144 0.230570 0.307902 -0.000262
O1    O     O_2   0.428380 0.595290 0.716080 -0.485659
O2    O     O_3   0.145340 0.222388 0.308201 -0.636058
O3    O     O_3   0.629229 0.256915 0.719445 -0.562762
O4    O     O_2   0.761310 0.404670 0.283870 -0.430534
O5    O     O_3   0.540390 0.428280 0.393140 -0.505855
O6    O     O_3   0.987650 0.584030 0.344390 -0.482523
O7    O     O_3   0.662724 0.258502 0.268425 -0.610017
O8    O     O_3   0.122140 0.620560 0.549160 -0.480529
O9    O     O_3   0.577110 0.640760 0.390430 -0.491760
O10   O     O_2   0.695669 0.809086 0.442885 -0.501883
O11   O     O_3   0.518710 0.764594 0.292843 -0.634489
O12   O     O_3   0.649320 0.571640 0.606850 -0.479603
O13   O     O_3   0.067570 0.379360 0.450830 -0.499542
O14   O     O_2   0.850910 0.734710 0.551660 -0.463703
O15   O     O_3   0.044603 0.795967 0.695125 -0.710475
O16   O     O_2   0.847387 0.481975 0.191263 -0.520183
O17   O     O_3   0.894879 0.651204 0.201545 -0.571810
O18   O     O_3   0.202060 0.415890 0.655600 -0.492264
O19   O     O_2   0.340601 0.519147 0.810229 -0.470374
O20   O     O_3   0.578234 0.743097 0.725804 -0.628743
O21   O     O_3   0.302496 0.347309 0.797245 -0.638453
O22   O     O_2   0.338780 0.265250 0.448290 -0.459256
O23   O     O_3   0.612600 0.359160 0.609560 -0.495205
O24   O     O_2   0.528773 0.186524 0.553305 -0.450537
P1    P     P_3+3 0.592580 0.619730 0.703530 0.997505
P2    P     P_3+3 0.156500 0.273340 0.422460 0.988961
P3    P     P_3+3 0.664394 0.246396 0.613775 1.023204
P4    P     P_3+3 0.597130 0.380190 0.296460 1.032463
P5    P     P_3+3 0.538805 0.759530 0.398229 0.940681
P6    P     P_3+3 0.214507 0.445469 0.768660 0.967346
P7    P     P_3+3 0.039639 0.741349 0.581361 0.935875
P8    P     P_3+3 0.979099 0.552317 0.231032 1.004352
O25   O     O_3   0.794646 0.080336 0.245929 -0.743389
H36   H     H_    0.868251 0.119786 0.294146 0.279378
O26   O     O_3   0.588587 0.053809 0.317925 -0.640570
C45   C     C_3   0.710576 0.053301 0.386748 0.257910
H37   H     H_    0.733939 0.125959 0.427735 -0.048796
H38   H     H_    0.827666 0.011954 0.362393 0.016949
H39   H     H_    0.668543 0.020219 0.428782 0.103659
O27   O     O_3   0.411733 0.917598 0.680257 -0.650112
C46   C     C_3   0.570108 0.889791 0.650271 0.246802
H40   H     H_    0.579462 0.813811 0.607615 0.052473
H41   H     H_    0.671128 0.902682 0.704082 0.095746
H42   H     H_    0.586010 0.931842 0.609628 0.063534
O28   O     O_3   0.505619 0.933661 0.824188 -0.734608
H43   H     H_    0.467676 0.926460 0.875924 0.254160
O29   O     O_3   0.268121 0.095909 0.697843 -0.706670
H44   H     H_    0.349551 0.082705 0.654532 0.310304
O30   O     O_3   0.225276 0.190351 0.838491 -0.718510
H45   H     H_    0.275193 0.137030 0.858418 0.305591
O31   O     O_3   0.879549 0.831566 0.857677 -0.631151
C47   C     C_3   0.893742 0.929539 0.902821 0.194495
H46   H     H_    0.923022 0.963533 0.857736 0.054257
H47   H     H_    0.988330 0.941240 0.959824 -0.028232
H48   H     H_    0.774478 0.964847 0.928771 0.094320
O32   O     O_3   0.074097 0.711789 0.874024 -0.686401
C48   C     C_3   0.214847 0.731422 0.934499 0.153049
H49   H     H_    0.189480 0.798373 0.990482 0.022594
H50   H     H_    0.323264 0.735160 0.902988 0.019150
H51   H     H_    0.248840 0.672142 0.959746 0.123763
O33   O     O_3   0.837018 0.229328 0.862499 -0.594651
C49   C     C_3   0.907139 0.231351 0.946170 0.219267
H52   H     H_    0.816515 0.259625 0.995969 0.044769
H53   H     H_    0.012925 0.274725 0.967576 0.060970
H54   H     H_    0.954227 0.157618 0.942523 0.047740
O34   O     O_3   0.436730 0.595878 0.073574 -0.661425
C50   C     C_3   0.585916 0.540325 0.046416 0.116794
H55   H     H_    0.568287 0.502214 0.974888 0.076354
H56   H     H_    0.614628 0.486236 0.078167 0.093015
H57   H     H_    0.693789 0.581430 0.060319 0.081351
O35   O     O_3   0.137909 0.719669 0.254864 -0.763727
H58   H     H_    0.181736 0.777407 0.298705 0.221837
O36   O     O_3   0.731891 0.842524 0.236405 -0.723021
H59   H     H_    0.725897 0.867443 0.300472 0.290345
O37   O     O_3   0.917966 0.786194 0.132684 -0.616748
C51   C     C_3   0.889274 0.864421 0.103590 0.199896
H60   H     H_    0.986056 0.913762 0.133471 0.053997
H61   H     H_    0.764327 0.902979 0.116502 0.110899
H62   H     H_    0.894963 0.836970 0.031829 0.084868
O38   O     O_3   0.585827 0.286013 0.102747 -0.632313
C52   C     C_3   0.529576 0.209700 0.029836 0.159350
H63   H     H_    0.515389 0.227381 0.969260 0.057459
H64   H     H_    0.411965 0.188724 0.039933 0.010014
H65   H     H_    0.623236 0.146978 0.020542 0.065303
O39   O     O_3   0.100339 0.602686 0.077723 -0.650079
H66   H     H_    0.077343 0.635725 0.034950 0.334383
O40   O     O_3   0.785992 0.095740 0.678997 -0.684372
H67   H     H_    0.772250 0.052868 0.710380 0.303023
O41   O     O_3   0.399894 0.972649 0.448212 -0.736862
H68   H     H_    0.446002 0.934393 0.392158 0.327040

loop_
_geom_bond_atom_site_label_1
_geom_bond_atom_site_label_2
_ccdc_geom_bond_type
C49   H54   S    
C7    O35   S    
C51   H60   S    
C1    O30   S    
C13   P4    S    
C34   C40   S    
C23   O33   S    
C50   H57   S    
C12   O3    S    
O29   H44   S    
Ba1   O18   S    
O25   H36   S    
C9    H24   S    
C5    C6    S    
Ba2   P4    S    
C27   H30   S    
C8    H21   S    
O26   C45   S    
O15   P7    S    
O8    P7    S    
C42   O28   S    
C7    O17   S    
C11   C16   S    
C28   P5    S    
C3    C4    S    
O10   P5    D    
Ba2   O14   S    
C33   C35   A    
C35   C36   A    
C50   H56   S    
C32   C33   A    
O4    P4    D    
O14   P7    D    
C45   H38   S    
C28   C29   A    
O41   H68   S    
C26   C38   A    
C26   P2    S    
C49   H52   S    
C42   O27   S    
O20   P1    S    
C38   H27   S    
Ba2   O4    S    
Ba1   Ba2   S    
C37   H28   S    
Ba2   O9    S    
C21   H23   S    
C7    H20   S    
O34   C50   S    
O3    P3    S    
C9    C13   S    
C40   O25   S    
C17   C18   D    
O31   C47   S    
C39   P7    S    
C2    O21   S    
C2    H11   S    
C47   H48   S    
C21   C22   A    
C17   O39   S    
C7    C8    S    
Ba1   O22   S    
Ba1   P1    S    
C43   H7    S    
C6    H19   S    
C51   H61   S    
C19   C20   A    
C14   P8    S    
C8    O36   S    
O21   P6    S    
C43   O2    S    
O38   C52   S    
C35   O40   S    
C52   H64   S    
C1    H15   S    
O24   P3    D    
O13   P2    S    
C3    H13   S    
C23   H32   S    
C4    H14   S    
Ba2   O13   S    
O5    P4    S    
C50   H55   S    
C4    O31   S    
C34   H34   S    
C45   H39   S    
C8    O37   S    
C1    O29   S    
C14   C15   S    
O17   P8    S    
C26   C37   A    
C25   C33   A    
Ba1   O1    S    
C43   C44   S    
C34   O7    S    
C32   C37   A    
C10   C24   A    
C30   C32   A    
C44   H9    S    
Ba2   O8    S    
C41   C42   S    
C41   O20   S    
C5    H16   S    
C27   C28   A    
O12   P1    S    
C52   H65   S    
C9    C14   D    
C29   C30   A    
C34   H35   S    
O18   P6    S    
C44   H8    S    
C15   C16   S    
O36   H59   S    
Ba2   O6    S    
C40   H2    S    
Ba1   O23   S    
C5    H17   S    
O27   C46   S    
C48   H50   S    
C6    H18   S    
O7    P4    S    
C3    H12   S    
C42   H5    S    
C40   O26   S    
O40   H67   S    
C36   H31   S    
C10   H25   S    
C18   C20   S    
C51   H62   S    
C11   C13   D    
C47   H46   S    
C6    O34   S    
C22   P1    S    
O9    P5    S    
O16   P8    D    
C1    C2    S    
O23   P3    S    
C3    O15   S    
C52   H63   S    
Ba1   O5    S    
C49   H53   S    
O37   C51   S    
Ba1   O8    S    
C25   C38   A    
C27   C39   A    
C23   H33   S    
Ba2   O12   S    
C41   H3    S    
C48   H51   S    
Ba1   O13   S    
C41   H4    S    
C11   O38   S    
C29   O41   S    
O32   C48   S    
C10   C22   A    
C31   C36   A    
C43   H6    S    
C31   C39   A    
C12   H29   S    
C4    O32   S    
C19   C21   A    
O30   H45   S    
C45   H37   S    
C30   C31   A    
O11   P5    S    
O39   H66   S    
C25   P3    S    
C46   H42   S    
O28   H43   S    
C5    O11   S    
C15   C17   S    
O2    P2    S    
Ba2   O5    S    
O1    P1    D    
C12   C23   S    
O6    P8    S    
C48   H49   S    
Ba1   P2    S    
O35   H58   S    
O19   P6    D    
Ba1   O12   S    
C20   C24   A    
C44   H10   S    
C47   H47   S    
C12   H22   S    
O33   C49   S    
C18   H26   S    
O22   P2    D    
C46   H40   S    
C46   H41   S    
C24   P6    S    
C2    H1    S    
