data_mof_unit_40651.cif
_audit_creation_date              2012-12-11T15:03:47-0500
_audit_creation_method            fapswitch 2.2
_symmetry_space_group_name_H-M    P1
_symmetry_Int_Tables_number       1
_space_group_crystal_system       triclinic
_cell_length_a                    8.215229
_cell_length_b                    15.025453
_cell_length_c                    18.822297
_cell_angle_alpha                 100.237065
_cell_angle_beta                  91.580866
_cell_angle_gamma                 99.208386
_cell_volume                      2253.16953487

loop_
_atom_site_label
_atom_site_type_symbol
_atom_type_description
_atom_site_fract_x
_atom_site_fract_y
_atom_site_fract_z
_atom_type_partial_charge
Ba1   Ba    Ba6+2 0.854120 0.540280 0.465540 1.626648
Ba2   Ba    Ba6+2 0.335710 0.459790 0.534460 1.607223
C1    C     C_3   0.714738 0.850777 0.241768 -0.162258
C2    C     C_R   0.897548 0.401347 0.090208 0.021098
C3    C     C_R   0.738251 0.357237 0.064760 -0.098102
C4    C     C_3   0.151557 0.718113 0.271743 0.411665
C5    C     C_R   0.670936 0.364236 0.997070 0.065104
C6    C     C_R   0.771739 0.410323 0.950114 0.025944
C7    C     C_R   0.936033 0.451325 0.973742 -0.001913
C8    C     C_R   0.713771 0.414721 0.879904 -0.112748
C9    C     C_R   0.817003 0.454257 0.831321 -0.041013
C10   C     C_R   0.980502 0.496664 0.855128 -0.005237
C11   C     C_R   0.038799 0.495756 0.926875 -0.003966
C12   C     C_3   0.625686 0.760931 0.260425 0.316968
C13   C     C_R   0.762008 0.450589 0.758854 -0.000785
C14   C     C_R   0.870735 0.485658 0.710751 -0.291556
C15   C     C_R   0.029651 0.532688 0.733485 0.056445
C16   C     C_3   0.148072 0.738910 0.195600 -0.379922
C17   C     C_R   0.085580 0.539789 0.807451 -0.045240
C18   C     C_R   0.159384 0.490739 0.069146 -0.005655
C19   C     C_R   0.217504 0.491670 0.141340 0.003812
C20   C     C_R   0.111914 0.449523 0.189361 -0.044224
C21   C     C_R   0.956339 0.400133 0.161124 -0.059663
C22   C     C_R   0.243392 0.586795 0.835339 -0.041034
C23   C     C_3   0.562157 0.313692 0.305942 0.264537
C24   C     C_R   0.303885 0.582454 0.905129 0.032472
C25   C     C_R   0.201554 0.537067 0.951206 0.004792
C26   C     C_R   0.262119 0.533971 0.021959 0.009056
C27   C     C_R   0.467147 0.621765 0.929213 -0.084789
C28   C     C_3   0.211889 0.755874 0.635234 0.298041
C29   C     C_R   0.528037 0.616886 0.998287 -0.094786
C30   C     C_R   0.425959 0.574211 0.045365 0.032839
C31   C     C_R   0.380708 0.535594 0.165302 -0.044561
C32   C     C_R   0.484926 0.572929 0.115757 -0.121977
C33   C     C_R   0.433370 0.542738 0.238562 -0.022200
C34   C     C_3   0.523484 0.299498 0.224951 -0.441914
C35   C     C_R   0.324468 0.506741 0.286443 -0.273017
C36   C     C_R   0.165555 0.459262 0.263805 0.017310
C37   C     C_R   0.787933 0.225799 0.494881 -0.219747
C38   C     C_R   0.866390 0.172659 0.534400 0.035328
C39   C     C_R   0.789843 0.083204 0.537411 -0.139315
C40   C     C_3   0.158523 0.848445 0.663589 -0.231636
C41   C     C_R   0.631956 0.046135 0.502193 0.011777
C42   C     C_R   0.547289 0.106721 0.471409 -0.126904
C43   C     C_R   0.623196 0.195615 0.468417 0.031654
C44   C     C_R   0.399385 0.910141 0.461099 -0.151241
C45   C     C_3   0.062904 0.277643 0.725395 0.354993
C46   C     C_R   0.333982 0.817173 0.452016 -0.008060
C47   C     C_R   0.577769 0.789473 0.513739 0.081074
C48   C     C_R   0.644456 0.883002 0.522848 -0.112614
C49   C     C_R   0.557665 0.945805 0.495996 0.013073
C50   C     C_R   0.424443 0.756843 0.477046 -0.267521
C51   C     C_3   0.102565 0.245098 0.306327 0.241028
C52   C     C_3   0.041246 0.159659 0.248987 -0.221104
C53   C     C_3   0.734469 0.670843 0.683911 0.314831
C54   C     C_3   0.756252 0.702399 0.765522 -0.406972
C55   C     C_3   0.205778 0.919272 0.616059 -0.495665
C56   C     C_3   0.059265 0.253356 0.800435 -0.377454
C57   C     C_3   0.170013 0.095733 0.238692 -0.229406
C58   C     C_3   0.110378 0.011162 0.180723 -0.429414
C59   C     C_3   0.598805 0.917488 0.228724 -0.281984
C60   C     C_3   0.515866 0.953602 0.296810 -0.419758
C61   C     C_3   0.491720 0.321029 0.977555 -0.208056
C62   C     C_3   0.477823 0.226700 0.929392 -0.418649
C63   C     C_3   0.884318 0.311675 0.477465 -0.223474
C64   C     C_3   0.546184 0.226227 0.687829 0.340286
C65   C     C_3   0.508446 0.131387 0.707180 -0.370161
C66   C     C_R   0.997407 0.448302 0.044512 0.005929
H1    H     H_    0.584072 0.774071 0.316550 0.008321
H2    H     H_    0.810171 0.884674 0.285436 0.132020
H3    H     H_    0.863042 0.759156 0.779309 0.118202
H4    H     H_    0.778576 0.645137 0.792291 0.059038
H5    H     H_    0.642934 0.726888 0.786295 0.120903
H6    H     H_    0.518157 0.733554 0.221282 -0.020138
H7    H     H_    0.546950 0.384862 0.330027 0.066989
H8    H     H_    0.689097 0.301895 0.313157 0.104058
H9    H     H_    0.391240 0.295536 0.210326 0.095795
H10   H     H_    0.589164 0.360108 0.205750 0.106707
H11   H     H_    0.565520 0.236244 0.197206 0.106552
H12   H     H_    0.217833 0.876920 0.718518 0.129769
H13   H     H_    0.779588 0.834117 0.191254 0.089788
H14   H     H_    0.192610 0.684016 0.157555 0.073317
H15   H     H_    0.175176 0.328817 0.723635 0.117227
H16   H     H_    0.951918 0.308125 0.715745 -0.044392
H17   H     H_    0.065274 0.316319 0.841985 0.079793
H18   H     H_    0.943419 0.205776 0.805103 0.109295
H19   H     H_    0.166886 0.220070 0.810420 0.138327
H20   H     H_    0.682190 0.244860 0.686326 -0.058324
H21   H     H_    0.487843 0.222910 0.633277 0.086122
H22   H     H_    0.551788 0.080465 0.664864 0.073798
H23   H     H_    0.022587 0.837840 0.668366 0.132735
H24   H     H_    0.373331 0.111650 0.711120 0.141640
H25   H     H_    0.064305 0.653370 0.271548 0.091125
H26   H     H_    0.572678 0.131116 0.759791 0.104976
H27   H     H_    0.664719 0.316353 0.097454 0.060208
H28   H     H_    0.827917 0.479933 0.654997 0.061757
H29   H     H_    0.588267 0.385115 0.862258 0.115249
H30   H     H_    0.878131 0.362138 0.194494 0.087895
H31   H     H_    0.323378 0.624993 0.802709 0.104546
H32   H     H_    0.548493 0.655812 0.894379 0.062423
H33   H     H_    0.654719 0.647703 0.015269 0.068471
H34   H     H_    0.141225 0.223194 0.356346 0.089544
H35   H     H_    0.611609 0.603758 0.131812 0.097711
H36   H     H_    0.278600 0.708911 0.286908 -0.124915
H37   H     H_    0.366114 0.513670 0.342492 0.073517
H38   H     H_    0.322112 0.952131 0.440442 0.071125
H39   H     H_    0.856357 0.044657 0.567638 0.073568
H40   H     H_    0.763441 0.904444 0.551505 0.071458
H41   H     H_    0.423139 0.087224 0.447986 0.071747
H42   H     H_    0.372336 0.684884 0.470807 0.073973
H43   H     H_    0.020147 0.743096 0.177639 0.135938
H44   H     H_    0.228784 0.805153 0.194409 0.105069
H45   H     H_    0.207817 0.286649 0.286437 0.015344
H46   H     H_    0.343293 0.767099 0.621884 0.000789
H47   H     H_    0.134856 0.720485 0.586039 0.066561
H48   H     H_    0.341655 0.932248 0.612075 0.132051
H49   H     H_    0.143292 0.895530 0.561819 0.163109
H50   H     H_    0.165515 0.984614 0.640110 0.156876
H51   H     H_    0.995794 0.971460 0.196507 0.137017
H52   H     H_    0.086052 0.031598 0.128058 0.130830
H53   H     H_    0.206721 0.966723 0.174367 0.131213
H54   H     H_    0.287046 0.132520 0.222351 0.148798
H55   H     H_    0.194960 0.073314 0.290548 0.124698
H56   H     H_    0.925235 0.122134 0.266047 0.114441
H57   H     H_    0.424079 0.898105 0.311284 0.139386
H58   H     H_    0.609659 0.980911 0.342250 0.138330
H59   H     H_    0.450896 0.009902 0.287018 0.134163
H60   H     H_    0.672658 0.976839 0.210103 0.122686
H61   H     H_    0.503621 0.883881 0.185032 0.118971
H62   H     H_    0.539108 0.231515 0.878143 0.150651
H63   H     H_    0.536090 0.180163 0.957967 0.127012
H64   H     H_    0.345591 0.196802 0.916362 0.124365
H65   H     H_    0.425416 0.312467 0.027286 0.105698
H66   H     H_    0.425395 0.366623 0.951412 0.111310
H67   H     H_    0.013584 0.181240 0.197025 0.095377
H68   H     H_    0.013162 0.302937 0.466682 0.141799
H69   H     H_    0.835796 0.325734 0.426920 0.118503
H70   H     H_    0.878167 0.370944 0.521214 0.133617
H71   H     H_    0.850712 0.650969 0.663579 -0.003955
H72   H     H_    0.632957 0.611036 0.671735 0.074404
O1    O     O_2   0.871030 0.438240 0.324420 -0.467601
O2    O     O_2   0.210105 0.184695 0.552617 -0.483436
O3    O     O_3   0.065792 0.197893 0.674050 -0.609277
O4    O     O_3   0.120590 0.445310 0.413740 -0.480971
O5    O     O_3   0.582100 0.611510 0.537680 -0.486793
O6    O     O_2   0.334040 0.276520 0.462890 -0.454248
O7    O     O_3   0.461202 0.249503 0.337252 -0.672654
O8    O     O_2   0.422823 0.457289 0.757202 -0.501535
O9    O     O_3   0.482032 0.289176 0.739457 -0.610937
O10   O     O_3   0.663040 0.605930 0.370050 -0.460167
O11   O     O_2   0.764193 0.530403 0.245299 -0.485424
O12   O     O_3   0.697130 0.743620 0.652942 -0.640281
O13   O     O_3   0.972235 0.293227 0.321852 -0.671309
O14   O     O_3   0.738052 0.699307 0.254533 -0.591076
O15   O     O_2   0.855660 0.723510 0.537160 -0.474734
O16   O     O_3   0.086340 0.654970 0.406630 -0.483930
O17   O     O_2   0.989164 0.815094 0.448040 -0.477931
O18   O     O_3   0.103451 0.791048 0.319474 -0.590140
O19   O     O_2   0.318670 0.561790 0.675630 -0.460463
O20   O     O_3   0.069120 0.554770 0.586270 -0.502972
O21   O     O_3   0.526680 0.394150 0.629950 -0.470789
O22   O     O_3   0.198065 0.707196 0.692225 -0.650248
O23   O     O_3   0.607620 0.388570 0.462320 -0.488571
O24   O     O_3   0.103380 0.345110 0.593380 -0.504132
P1    P     P_3+3 0.038110 0.412300 0.335300 0.948653
P2    P     P_3+3 0.679950 0.711710 0.558590 0.985078
P3    P     P_3+3 0.127749 0.772130 0.407969 0.964231
P4    P     P_3+3 0.151600 0.587780 0.664700 0.969920
P5    P     P_3+3 0.062821 0.224914 0.587268 0.939291
P6    P     P_3+3 0.645251 0.595161 0.276109 0.948355
P7    P     P_3+3 0.508234 0.274502 0.430774 0.912556
P8    P     P_3+3 0.549347 0.399619 0.722551 0.926333

loop_
_geom_bond_atom_site_label_1
_geom_bond_atom_site_label_2
_ccdc_geom_bond_type
C36   P1    S    
C53   C54   S    
C51   O13   S    
Ba2   P4    S    
Ba1   O16   S    
O9    P8    S    
Ba2   O4    S    
Ba1   O5    S    
C56   H19   S    
O17   P3    D    
C5    C6    A    
O10   P6    S    
C51   C52   S    
Ba2   O5    S    
C40   H12   S    
O14   P6    S    
C24   C25   A    
O11   P6    D    
C12   H6    S    
C55   H49   S    
C33   C35   A    
C16   H44   S    
Ba1   Ba2   S    
C34   H9    S    
C64   H20   S    
C60   H59   S    
C31   C33   A    
C19   C31   A    
O15   P2    D    
C13   C14   A    
C20   C36   A    
C45   O3    S    
C53   H71   S    
O19   P4    D    
Ba2   O21   S    
C58   H51   S    
C40   H23   S    
Ba1   O15   S    
C7    C11   A    
C3    H27   S    
O21   P8    S    
C9    C13   A    
C61   H65   S    
C62   H64   S    
C51   H45   S    
Ba2   O19   S    
C54   H4    S    
C1    H13   S    
C65   H26   S    
C45   H15   S    
C55   H48   S    
O23   P7    S    
C59   H61   S    
C37   C43   A    
C63   H69   S    
C42   H41   S    
C4    H25   S    
C57   H54   S    
C64   C65   S    
C57   C58   S    
O6    P7    D    
C12   O14   S    
C48   H40   S    
C39   C41   A    
O24   P5    S    
C58   H53   S    
C43   P7    S    
C40   C55   S    
C38   P5    S    
C4    O18   S    
O7    P7    S    
O18   P3    S    
C48   C49   A    
C64   H21   S    
C52   C57   S    
C1    C59   S    
C57   H55   S    
C4    C16   S    
C44   C46   A    
C14   H28   S    
C61   H66   S    
C53   O12   S    
C1    H2    S    
C16   H43   S    
O3    P5    S    
C64   O9    S    
Ba2   O24   S    
C37   C38   A    
C60   H58   S    
C2    C21   A    
C6    C7    A    
C18   C26   A    
O16   P3    S    
C2    C66   A    
C44   C49   A    
C15   P4    S    
C65   H22   S    
C53   H72   S    
C23   H7    S    
C30   C32   A    
C50   H42   S    
C8    H29   S    
C41   C42   A    
C35   H37   S    
C35   C36   A    
C56   H18   S    
C29   C30   A    
C62   H63   S    
C26   C30   A    
C51   H34   S    
C9    C10   A    
C54   H3    S    
C31   C32   A    
Ba1   O10   S    
C23   O7    S    
C45   H16   S    
C10   C11   A    
C5    C61   S    
C1    C12   S    
O2    P5    D    
O22   P4    S    
C63   H70   S    
Ba2   O20   S    
C38   C39   A    
C62   H62   S    
C16   H14   S    
C4    H36   S    
C12   H1    S    
C28   O22   S    
C15   C17   A    
C56   H17   S    
C29   H33   S    
C42   C43   A    
C3    C5    A    
C28   H46   S    
C52   H56   S    
C54   H5    S    
C22   H31   S    
C27   H32   S    
O13   P1    S    
Ba1   P1    S    
C18   C66   A    
Ba1   O20   S    
C28   C40   S    
C47   C50   A    
C22   C24   A    
C2    C3    A    
C34   H11   S    
Ba2   O23   S    
C60   H57   S    
O12   P2    S    
C28   H47   S    
Ba2   O6    S    
C37   C63   S    
O1    P1    D    
C32   H35   S    
O4    P1    S    
C23   H8    S    
C17   C22   A    
C7    C66   A    
C47   P2    S    
C27   C29   A    
Ba1   O4    S    
C34   H10   S    
C45   C56   S    
C41   C49   S    
C14   C15   A    
C46   P3    S    
Ba1   P2    S    
C52   H67   S    
C44   H38   S    
C10   C17   A    
C65   H24   S    
O8    P8    D    
C13   P8    S    
C58   H52   S    
C59   H60   S    
O5    P2    S    
O20   P4    S    
C59   C60   S    
C63   H68   S    
Ba1   O1    S    
C8    C9    A    
C23   C34   S    
C61   C62   S    
C39   H39   S    
C46   C50   A    
C21   H30   S    
C18   C19   A    
Ba1   O23   S    
C24   C27   A    
C6    C8    A    
C47   C48   A    
C25   C26   A    
C33   P6    S    
C20   C21   A    
C11   C25   A    
C19   C20   A    
C55   H50   S    
