data_mof_unit_48674.cif
_audit_creation_date              2012-10-26T20:08:14-0400
_audit_creation_method            fapswitch 2.2
_symmetry_space_group_name_H-M    P1
_symmetry_Int_Tables_number       1
_space_group_crystal_system       triclinic
_cell_length_a                    10.83297
_cell_length_b                    10.825225
_cell_length_c                    9.507024
_cell_angle_alpha                 90.130707
_cell_angle_beta                  90.030233
_cell_angle_gamma                 90.502106
_cell_volume                      1114.8365299

loop_
_atom_site_label
_atom_site_type_symbol
_atom_type_description
_atom_site_fract_x
_atom_site_fract_y
_atom_site_fract_z
_atom_type_partial_charge
C1    C     C_R   0.499862 0.262049 0.499869 0.546302
C2    C     C_R   0.487890 0.064077 0.627035 -0.143904
C3    C     C_R   0.500234 0.871775 0.500155 0.009027
C4    C     C_R   0.499769 0.128225 0.499845 0.009028
C5    C     C_R   0.424563 0.421252 0.073925 0.500093
C6    C     C_R   0.575437 0.578749 0.926075 0.500086
C7    C     C_R   0.424690 0.421370 0.925077 -0.004593
C8    C     C_R   0.575310 0.578631 0.074923 -0.004599
C9    C     C_R   0.262247 0.503197 0.499754 0.547968
C10   C     C_R   0.737753 0.496803 0.500245 0.547970
C11   C     C_R   0.247445 0.780856 0.165878 -0.062919
C12   C     C_R   0.500139 0.737951 0.500131 0.546299
C13   C     C_R   0.752573 0.219140 0.834124 -0.062918
C14   C     C_R   0.187743 0.725609 0.280314 -0.126040
C15   C     C_R   0.812274 0.274383 0.719689 -0.126058
C16   C     C_R   0.121933 0.614268 0.262211 0.036985
C17   C     C_R   0.878069 0.385732 0.737785 0.036978
C18   C     C_R   0.115848 0.559735 0.128237 -0.126125
C19   C     C_R   0.884138 0.440277 0.871749 -0.126118
C20   C     C_R   0.175667 0.615282 0.014096 -0.082497
C21   C     C_R   0.824321 0.384734 0.985889 -0.082490
C22   C     C_R   0.241769 0.725543 0.032941 0.400405
C23   C     C_R   0.871660 0.494237 0.500781 0.012717
C24   C     C_R   0.758234 0.274465 0.967051 0.400412
C25   C     C_R   0.933756 0.545601 0.385526 -0.142107
C26   C     C_R   0.066245 0.454397 0.614473 -0.142110
C27   C     C_R   0.128341 0.505761 0.499217 0.012716
C28   C     C_R   0.938338 0.446832 0.616201 -0.008353
C29   C     C_R   0.061663 0.553164 0.383796 -0.008348
C30   C     C_R   0.511674 0.063682 0.372772 -0.099028
C31   C     C_R   0.488330 0.936318 0.627227 -0.099027
C32   C     C_R   0.512114 0.935924 0.372964 -0.143906
Cu1   Cu    Cu3+1 0.500000 0.500020 0.640660 1.053144
Cu2   Cu    Cu3+1 0.500000 0.499980 0.359340 1.053143
F1    F     F_    0.300643 0.778604 0.922396 -0.640777
F2    F     F_    0.699360 0.221408 0.077594 -0.640781
F3    F     F_    0.348317 0.342400 0.143225 -0.614702
F4    F     F_    0.651684 0.657599 0.856775 -0.614707
H1    H     H_    0.364218 0.358652 0.868436 0.131745
H2    H     H_    0.828236 0.427843 0.088647 0.126047
H3    H     H_    0.882367 0.583901 0.298139 0.126673
H4    H     H_    0.117633 0.416101 0.701863 0.126676
H5    H     H_    0.521114 0.111624 0.273406 0.212400
H6    H     H_    0.478890 0.888376 0.726594 0.212404
H7    H     H_    0.522174 0.887654 0.273732 0.148187
H8    H     H_    0.477831 0.112346 0.726267 0.148193
H9    H     H_    0.635782 0.641347 0.131564 0.131743
H10   H     H_    0.298251 0.866436 0.180383 0.137884
H11   H     H_    0.701779 0.133553 0.819624 0.137889
H12   H     H_    0.193567 0.768795 0.383030 0.120090
H13   H     H_    0.806462 0.231187 0.616981 0.120095
H14   H     H_    0.066886 0.473146 0.113033 0.132715
H15   H     H_    0.933088 0.526873 0.886948 0.132725
H16   H     H_    0.171742 0.572182 0.911332 0.126051
N1    N     N_R   0.500030 0.500030 0.852070 -0.253981
N2    N     N_R   0.499970 0.499970 0.147930 -0.253980
O1    O     O_R   0.499990 0.319660 0.618740 -0.538239
O2    O     O_R   0.500010 0.680340 0.381260 -0.538242
O3    O     O_R   0.499990 0.319630 0.381170 -0.429416
O4    O     O_R   0.500010 0.680370 0.618830 -0.429416
O5    O     O_R   0.319650 0.500020 0.618780 -0.523419
O6    O     O_R   0.680350 0.499980 0.381220 -0.523418
O7    O     O_R   0.319640 0.500000 0.381210 -0.446286
O8    O     O_R   0.680360 0.500000 0.618790 -0.446284

loop_
_geom_bond_atom_site_label_1
_geom_bond_atom_site_label_2
_ccdc_geom_bond_type
Cu1   N1    S    
C2    C4    A    
C6    F4    S    
Cu2   N2    S    
C5    F3    S    
C10   C23   S    
C27   C29   A    
C1    O1    A    
C5    C7    A    
C32   H7    S    
C11   C22   A    
C26   C28   A    
C15   H13   S    
C7    N1    A    
C6    N1    A    
C1    C4    S    
C12   O2    A    
C19   H15   S    
C13   C15   A    
Cu1   Cu2   S    
C11   H10   S    
C8    H9    S    
C18   H14   S    
Cu1   O1    S    
C16   C18   A    
C10   O6    A    
C23   C28   A    
C2    H8    S    
C3    C31   A    
C22   F1    S    
C17   C28   S    
C26   H4    S    
C26   C27   A    
C24   F2    S    
C21   H2    S    
Cu1   O8    S    
C9    O5    A    
C15   C17   A    
Cu1   O5    S    
Cu2   O7    S    
C17   C19   A    
C20   C22   A    
Cu1   O4    S    
C18   C20   A    
C1    O3    A    
C25   C29   A    
C3    C32   A    
C13   C24   A    
C11   C14   A    
C14   C16   A    
C30   H5    S    
C4    C30   A    
C31   H6    S    
C14   H12   S    
C30   C32   A    
Cu2   O6    S    
C23   C25   A    
C9    C27   S    
C20   H16   S    
C21   C24   A    
C25   H3    S    
Cu2   O2    S    
C7    H1    S    
C6    C8    A    
C3    C12   S    
C5    N2    A    
C13   H11   S    
C19   C21   A    
C16   C29   S    
C9    O7    A    
Cu2   O3    S    
C10   O8    A    
C8    N2    A    
C2    C31   A    
C12   O4    A    
