data_mof_unit_19522.cif
_audit_creation_date              2013-03-05T16:12:50-0500
_audit_creation_method            fapswitch 2.2
_symmetry_space_group_name_H-M    P1
_symmetry_Int_Tables_number       1
_space_group_crystal_system       triclinic
_cell_length_a                    10.701329
_cell_length_b                    9.813194
_cell_length_c                    27.774364
_cell_angle_alpha                 89.992903
_cell_angle_beta                  90.123267
_cell_angle_gamma                 89.987274
_cell_volume                      2916.69625839

loop_
_atom_site_label
_atom_site_type_symbol
_atom_site_description
_atom_site_fract_x
_atom_site_fract_y
_atom_site_fract_z
_atom_type_partial_charge
O1    O     O_R   0.316770 0.614620 0.500000 -0.629877
O2    O     O_R   0.683230 0.385380 0.500000 -0.629186
O3    O     O_R   0.683230 0.614620 0.500000 -0.628724
O4    O     O_R   0.316770 0.385380 0.500000 -0.627460
C1    C     C_R   0.259827 0.500013 0.499975 0.864194
C2    C     C_R   0.740182 0.499990 0.500026 0.863523
O5    O     O_R   0.500030 0.614650 0.428760 -0.615532
O6    O     O_R   0.499970 0.385350 0.571240 -0.611461
O7    O     O_R   0.499970 0.614650 0.571240 -0.617834
O8    O     O_R   0.500030 0.385350 0.428760 -0.613848
C3    C     C_R   0.500523 0.500106 0.405959 0.908379
C4    C     C_R   0.499285 0.500105 0.594048 0.908618
Zn1   Zn    Zn3+2 0.500000 0.653120 0.500000 0.941986
Zn2   Zn    Zn3+2 0.500000 0.346880 0.500000 0.946985
C5    C     C_R   0.393912 0.552081 0.177703 0.543627
C6    C     C_R   0.604567 0.552121 0.822319 0.543466
O9    O     O_2   0.288648 0.574368 0.203228 -0.562472
O10   O     O_2   0.709987 0.573656 0.796812 -0.562576
N1    N     N_R   0.503735 0.523959 0.200968 -0.334531
N2    N     N_R   0.494622 0.524776 0.799036 -0.334548
C7    C     C_R   0.613442 0.508740 0.176363 0.514917
C8    C     C_R   0.384786 0.510415 0.823616 0.515099
C9    C     C_R   0.573326 0.606736 0.278952 -0.150226
C10   C     C_R   0.425889 0.607602 0.720931 -0.150614
C11   C     C_R   0.576365 0.600608 0.328914 0.105320
C12   C     C_R   0.423185 0.601287 0.670968 0.109352
C13   C     C_R   0.431660 0.405286 0.326124 0.086088
C14   C     C_R   0.566624 0.404798 0.674043 0.083408
C15   C     C_R   0.436065 0.409914 0.275308 0.156770
C16   C     C_R   0.561844 0.409695 0.724851 0.157156
C17   C     C_R   0.504328 0.513044 0.252341 0.227503
C18   C     C_R   0.494134 0.513522 0.747673 0.227418
C19   C     C_R   0.502214 0.543134 0.101390 -0.053641
C20   C     C_R   0.496145 0.543776 0.898613 -0.053643
C21   C     C_R   0.390343 0.557828 0.127432 -0.029390
C22   C     C_R   0.608115 0.557771 0.872588 -0.029277
C23   C     C_R   0.277774 0.577984 0.102879 -0.135734
C24   C     C_R   0.720777 0.577051 0.897157 -0.135734
C25   C     C_R   0.615274 0.521564 0.126229 -0.024966
C26   C     C_R   0.382979 0.523142 0.873753 -0.025038
C27   C     C_R   0.503013 0.501407 0.353037 -0.098723
C28   C     C_R   0.496199 0.501459 0.646979 -0.099137
H1    H     H_    0.190876 0.592415 0.122168 0.189546
H2    H     H_    0.807764 0.590965 0.877882 0.189539
C29   C     C_R   0.383099 0.545296 0.975126 0.045812
C30   C     C_R   0.615243 0.544286 0.024875 0.045805
C31   C     C_R   0.613447 0.556694 0.974159 0.046117
C32   C     C_R   0.384964 0.557328 0.025855 0.046089
C33   C     C_R   0.497505 0.549198 0.949467 0.074459
C34   C     C_R   0.500866 0.548845 0.050539 0.074480
C35   C     C_R   0.270811 0.525686 0.949154 -0.215727
C36   C     C_R   0.727420 0.523660 0.050825 -0.215811
C37   C     C_R   0.271157 0.513462 0.899379 -0.134930
C38   C     C_R   0.727023 0.511159 0.100591 -0.134957
O11   O     O_2   0.277950 0.482956 0.799569 -0.558313
O12   O     O_2   0.720138 0.480407 0.200386 -0.558628
C39   C     C_R   0.274729 0.576612 0.052930 -0.215269
C40   C     C_R   0.723791 0.575402 0.947104 -0.215278
H3    H     H_    0.373764 0.685997 0.739674 0.166415
H4    H     H_    0.625806 0.684640 0.260109 0.166395
H5    H     H_    0.183039 0.496478 0.881056 0.189651
H6    H     H_    0.815049 0.493433 0.118898 0.189687
H7    H     H_    0.181468 0.513653 0.966514 0.139862
H8    H     H_    0.816681 0.511052 0.033451 0.139978
H9    H     H_    0.184878 0.594200 0.036408 0.139894
H10   H     H_    0.813726 0.592291 0.963643 0.139816
C41   C     C_R   0.063963 0.380588 0.487732 -0.189724
C42   C     C_R   0.936070 0.619449 0.512239 -0.187027
C43   C     C_R   0.935980 0.380535 0.487804 -0.190099
C44   C     C_R   0.064056 0.619452 0.512236 -0.194463
H11   H     H_    0.112853 0.288066 0.477795 0.151255
H12   H     H_    0.887189 0.712015 0.522125 0.152438
H13   H     H_    0.887027 0.287945 0.477953 0.158015
H14   H     H_    0.113025 0.711990 0.522145 0.156536
C45   C     C_R   0.872565 0.499982 0.500032 -0.016140
C46   C     C_R   0.127458 0.500029 0.499972 -0.011848
C47   C     C_R   0.585621 0.072002 0.526601 -0.077479
C48   C     C_R   0.414498 0.927983 0.473342 -0.076624
C49   C     C_R   0.414366 0.072066 0.473406 -0.074893
C50   C     C_R   0.585493 0.927919 0.526663 -0.074755
H15   H     H_    0.654122 0.126730 0.547768 0.129564
H16   H     H_    0.346280 0.873227 0.452038 0.133129
H17   H     H_    0.345838 0.126841 0.452250 0.124755
H18   H     H_    0.653703 0.873111 0.547972 0.128006
N3    N     N_R   0.500000 0.857200 0.500000 -0.082111
N4    N     N_R   0.500000 0.142800 0.500000 -0.077992
C51   C     C_3   0.350472 0.300755 0.351424 -0.882671
H19   H     H_    0.285535 0.246211 0.327129 0.229011
H20   H     H_    0.410500 0.222689 0.368803 0.254860
H21   H     H_    0.291388 0.351501 0.378942 0.238818
C52   C     C_3   0.647273 0.299410 0.648924 -0.877912
H22   H     H_    0.711449 0.244209 0.673347 0.228710
H23   H     H_    0.586840 0.221927 0.631447 0.254815
H24   H     H_    0.707122 0.349545 0.621518 0.240864
N5    N     N_3   0.374162 0.309956 0.246028 -0.437775
H25   H     H_    0.404400 0.212915 0.256345 0.191867
H26   H     H_    0.277706 0.317981 0.251099 0.221625
N6    N     N_3   0.622858 0.309369 0.754273 -0.437981
H27   H     H_    0.592014 0.212533 0.744007 0.191838
H28   H     H_    0.719404 0.316528 0.749298 0.221585
C53   C     C_3   0.339180 0.700267 0.644539 -0.826878
H29   H     H_    0.279560 0.644840 0.618256 0.235270
H30   H     H_    0.275743 0.755160 0.669522 0.231954
H31   H     H_    0.396124 0.778181 0.625693 0.254611
C54   C     C_3   0.661054 0.699079 0.355210 -0.820728
H32   H     H_    0.720210 0.643385 0.381586 0.237217
H33   H     H_    0.724971 0.753034 0.330154 0.231755
H34   H     H_    0.604628 0.777684 0.373946 0.254321

loop_
_geom_bond_atom_site_label_1
_geom_bond_atom_site_label_2
_geom_bond_distance
_ccdc_geom_bond_type
C49   H17   1.081605 S    
C51   H19   1.105870 S    
C53   H29   1.110879 S    
C48   H16   1.081737 S    
C13   C15   1.413009 A    
N5    H25   1.045489 S    
C50   H18   1.081783 S    
O3    C2    1.279259 A    
N1    C17   1.430868 S    
C11   C54   1.512036 S    
C32   C39   1.413026 A    
C31   C33   1.418289 A    
C42   C45   1.396665 A    
C5    N1    1.368015 A    
C54   H33   1.111136 S    
C19   C25   1.407426 A    
O1    C1    1.279259 A    
C21   C23   1.397009 A    
C10   C12   1.389326 A    
C12   C53   1.512281 S    
C29   C32   1.414007 A    
C25   C38   1.396855 A    
C29   C35   1.413397 A    
C30   C36   1.413380 A    
O7    Zn1   2.014290 S    
C4    C28   1.470626 S    
C24   C40   1.387641 A    
C37   H5    1.083505 S    
C40   H10   1.078393 S    
C44   H14   1.083811 S    
C43   H13   1.083748 S    
C47   H15   1.081580 S    
C20   C22   1.407425 A    
O3    Zn1   1.996788 S    
C6    N2    1.367994 A    
C32   C34   1.418309 A    
C53   H30   1.111070 S    
O2    C2    1.279323 A    
C5    C21   1.397813 A    
C36   C38   1.387655 A    
C9    H4    1.084023 S    
C54   H34   1.109796 S    
C2    C45   1.416682 S    
C35   H7    1.078215 S    
Zn2   N4    2.002677 S    
C36   H8    1.078212 S    
C11   C27   1.419572 A    
C52   H22   1.105872 S    
C15   N5    1.435450 S    
C48   C49   1.413909 A    
C38   H6    1.083511 S    
C19   C34   1.413498 A    
C42   H12   1.083794 S    
C35   C37   1.387701 A    
C9    C17   1.391001 A    
C23   H1    1.083486 S    
O5    C3    1.290235 A    
C10   C18   1.390893 A    
C24   H2    1.083488 S    
C50   N3    1.365479 A    
C52   H23   1.109487 S    
C13   C27   1.424612 A    
C7    C25   1.398277 A    
C29   C33   1.418466 A    
O6    C4    1.292156 A    
C8    C26   1.398323 A    
C13   C51   1.517789 S    
C48   N3    1.365494 A    
C6    O10   1.350097 S    
N2    C8    1.367840 A    
C47   N4    1.365556 A    
C26   C37   1.396866 A    
C53   H31   1.109683 S    
N6    H28   1.045033 S    
C51   H20   1.109464 S    
C44   C46   1.396604 A    
C20   C26   1.407437 A    
O1    Zn1   1.996953 S    
C43   C45   1.396625 A    
C22   C24   1.396993 A    
C12   C28   1.419915 A    
N2    C18   1.430844 S    
C47   C50   1.413918 A    
C5    O9    1.350070 S    
C16   N6    1.435474 S    
C30   C31   1.413932 A    
C20   C33   1.413487 A    
O6    Zn2   2.014381 S    
N1    C7    1.367845 A    
C39   H9    1.078383 S    
O4    C1    1.279241 A    
C7    O12   1.350070 S    
N5    H26   1.045024 S    
C8    O11   1.350068 S    
C54   H32   1.110803 S    
C30   C34   1.418450 A    
C1    C46   1.416515 S    
C14   C16   1.413003 A    
C15   C17   1.402470 A    
C6    C22   1.397734 A    
C52   H24   1.110744 S    
C16   C18   1.402397 A    
C10   H3    1.084036 S    
C14   C28   1.424733 A    
C19   C21   1.407424 A    
C3    C27   1.470250 S    
C14   C52   1.517742 S    
C41   H11   1.083845 S    
C9    C11   1.389260 A    
O4    Zn2   1.996788 S    
O2    Zn2   1.996953 S    
O7    C4    1.290229 A    
O8    C3    1.291921 A    
O5    Zn1   2.014387 S    
C42   C44   1.369621 A    
N6    H27   1.045494 S    
C51   H21   1.110825 S    
Zn1   N3    2.002677 S    
C41   C46   1.396616 A    
C41   C43   1.369600 A    
C49   N4    1.365534 A    
C23   C39   1.387692 A    
O8    Zn2   2.014295 S    
C31   C40   1.413004 A    
