data_mof_unit_46489.cif
_audit_creation_date              2012-12-11T15:44:45-0500
_audit_creation_method            fapswitch 2.2
_symmetry_space_group_name_H-M    P1
_symmetry_Int_Tables_number       1
_space_group_crystal_system       triclinic
_cell_length_a                    18.96084
_cell_length_b                    10.975249
_cell_length_c                    18.75841
_cell_angle_alpha                 90.208401
_cell_angle_beta                  90.177215
_cell_angle_gamma                 89.414992
_cell_volume                      3903.37647622

loop_
_atom_site_label
_atom_site_type_symbol
_atom_type_description
_atom_site_fract_x
_atom_site_fract_y
_atom_site_fract_z
_atom_type_partial_charge
C1    C     C_R   0.759990 0.535837 0.647161 0.541992
C2    C     C_R   0.174717 0.100119 0.554495 -0.118452
C3    C     C_R   0.482618 0.950818 0.967898 -0.015784
C4    C     C_R   0.974457 0.232666 0.969627 -0.111962
C5    C     C_R   0.978674 0.234554 0.044171 -0.173400
C6    C     C_R   0.474457 0.732666 0.969627 -0.111962
C7    C     C_R   0.478674 0.734554 0.044171 -0.173400
C8    C     C_3   0.034558 0.563157 0.037707 -0.231068
C9    C     C_3   0.027720 0.559580 0.957502 -0.239334
C10   C     C_3   0.534558 0.063157 0.037707 -0.231068
C11   C     C_3   0.527720 0.059580 0.957502 -0.239334
C12   C     C_R   0.762466 0.526031 0.854631 0.592336
C13   C     C_R   0.237491 0.486367 0.479534 -0.080221
C14   C     C_R   0.240309 0.534392 0.148345 0.579467
C15   C     C_R   0.262466 0.026031 0.854631 0.592336
C16   C     C_R   0.740309 0.034392 0.148345 0.579467
C17   C     C_R   0.790000 0.171018 0.860480 0.561289
C18   C     C_R   0.228208 0.123515 0.147854 0.575143
C19   C     C_R   0.290000 0.671018 0.860480 0.561289
C20   C     C_R   0.728208 0.623515 0.147854 0.575143
C21   C     C_R   0.967118 0.346824 0.855457 0.566975
C22   C     C_R   0.028590 0.347591 0.147341 0.550754
C23   C     C_R   0.467118 0.846824 0.855457 0.566975
C24   C     C_R   0.674717 0.600119 0.554495 -0.118452
C25   C     C_R   0.528590 0.847591 0.147341 0.550754
C26   C     C_R   0.746885 0.072235 0.425465 -0.043909
C27   C     C_R   0.242934 0.106704 0.583776 -0.038564
C28   C     C_R   0.246886 0.572235 0.425465 -0.043909
C29   C     C_R   0.742934 0.606704 0.583776 -0.038564
C30   C     C_R   0.772582 0.186584 0.441078 0.035193
C31   C     C_R   0.296355 0.156805 0.542320 0.132213
C32   C     C_R   0.272582 0.686584 0.441078 0.035193
C33   C     C_R   0.796354 0.656805 0.542320 0.132213
C34   C     C_R   0.784587 0.218715 0.511579 -0.147602
C35   C     C_3   0.737596 0.304592 0.423970 0.270454
C36   C     C_R   0.285279 0.181451 0.470720 -0.058017
C37   C     C_R   0.284587 0.718715 0.511579 -0.147602
C38   C     C_R   0.785279 0.681451 0.470720 -0.058017
C39   C     C_3   0.369984 0.112318 0.529621 0.284646
C40   C     C_3   0.237596 0.804592 0.423970 0.270454
C41   C     C_3   0.869984 0.612318 0.529621 0.284646
C42   C     C_3   0.748943 0.338849 0.501029 -0.227420
C43   C     C_3   0.358549 0.141809 0.451433 -0.206556
C44   C     C_3   0.248943 0.838849 0.501029 -0.227420
C45   C     C_R   0.238887 0.533228 0.353630 0.558881
C46   C     C_3   0.858549 0.641809 0.451433 -0.206556
C47   C     C_R   0.773686 0.135268 0.566307 0.000518
C48   C     C_R   0.220842 0.152770 0.437950 0.011926
C49   C     C_R   0.273686 0.635268 0.566307 0.000518
C50   C     C_R   0.720842 0.652770 0.437950 0.011926
C51   C     C_R   0.004954 0.352016 0.429227 0.001288
C52   C     C_R   0.008650 0.327086 0.578568 -0.018925
C53   C     C_R   0.504954 0.852016 0.429227 0.001288
C54   C     C_R   0.508650 0.827086 0.578568 -0.018925
C55   C     C_R   0.952277 0.149278 0.418497 -0.046830
C56   C     C_R   0.259990 0.035837 0.647161 0.541992
C57   C     C_R   0.978398 0.109274 0.562559 -0.093205
C58   C     C_R   0.452277 0.649278 0.418497 -0.046830
C59   C     C_R   0.478398 0.609275 0.562559 -0.093205
C60   C     C_R   0.937605 0.036592 0.448419 0.430439
C61   C     C_R   0.952023 0.016248 0.520035 0.442752
C62   C     C_R   0.437605 0.536592 0.448419 0.430439
C63   C     C_R   0.452023 0.516248 0.520035 0.442752
C64   C     C_R   0.989299 0.226926 0.534626 -0.054363
C65   C     C_R   0.981724 0.243442 0.460339 -0.016623
C66   C     C_R   0.489299 0.726926 0.534626 -0.054363
C67   C     C_R   0.738887 0.033228 0.353630 0.558881
C68   C     C_R   0.481724 0.743442 0.460339 -0.016623
C69   C     C_R   0.036710 0.431508 0.547435 0.022648
C70   C     C_R   0.025431 0.452349 0.474361 -0.007125
C71   C     C_R   0.536710 0.931508 0.547435 0.022648
C72   C     C_R   0.525431 0.952349 0.474361 -0.007125
C73   C     C_R   0.790582 0.168806 0.638373 0.577842
C74   C     C_R   0.209468 0.169247 0.361462 0.600245
C75   C     C_R   0.290582 0.668806 0.638373 0.577842
C76   C     C_R   0.709468 0.669247 0.361462 0.600245
C77   C     C_R   0.071104 0.520114 0.589610 -0.013234
C78   C     C_R   0.751964 0.016716 0.549885 0.400680
C79   C     C_R   0.034008 0.574362 0.450279 -0.066801
C80   C     C_R   0.571104 0.020114 0.589610 -0.013233
C81   C     C_R   0.534008 0.074362 0.450279 -0.066801
C82   C     C_R   0.085722 0.634596 0.562243 -0.055857
C83   C     C_R   0.064759 0.663101 0.493395 -0.065398
C84   C     C_R   0.585722 0.134596 0.562243 -0.055857
C85   C     C_R   0.564759 0.163101 0.493395 -0.065398
C86   C     C_R   0.758177 0.096062 0.081758 0.008635
C87   C     C_R   0.258171 0.052117 0.930274 0.035339
C88   C     C_R   0.258177 0.596062 0.081758 0.008635
C89   C     C_R   0.164368 0.118552 0.481621 0.317227
C90   C     C_R   0.758171 0.552117 0.930274 0.035339
C91   C     C_R   0.818552 0.056251 0.045291 0.023768
C92   C     C_R   0.200249 0.007198 0.966086 -0.006164
C93   C     C_R   0.318552 0.556250 0.045291 0.023768
C94   C     C_R   0.700249 0.507198 0.966086 -0.006164
C95   C     C_R   0.828483 0.082751 0.974380 -0.097487
C96   C     C_R   0.194944 0.016160 0.038641 -0.043015
C97   C     C_R   0.328483 0.582751 0.974380 -0.097487
C98   C     C_R   0.694944 0.516160 0.038641 -0.043015
C99   C     C_R   0.722852 0.206293 0.974737 -0.151369
C100  C     C_R   0.251964 0.516716 0.549885 0.400680
C101  C     C_R   0.312317 0.097433 0.045549 -0.079152
C102  C     C_R   0.222852 0.706293 0.974737 -0.151369
C103  C     C_R   0.812317 0.597433 0.045549 -0.079152
C104  C     C_R   0.712586 0.179087 0.047320 -0.159879
C105  C     C_R   0.317207 0.088648 0.970860 -0.088737
C106  C     C_R   0.212586 0.679087 0.047320 -0.159879
C107  C     C_R   0.817207 0.588648 0.970860 -0.088737
C108  C     C_3   0.845664 0.928975 0.034914 0.728956
C109  C     C_3   0.124138 0.033247 0.953580 0.724760
C110  C     C_3   0.345664 0.428975 0.034914 0.728956
C111  C     C_R   0.664368 0.618552 0.481621 0.317227
C112  C     C_3   0.624138 0.533247 0.953580 0.724760
C113  C     C_3   0.857710 0.958505 0.957660 0.334305
C114  C     C_3   0.117553 0.044648 0.033500 0.327429
C115  C     C_3   0.357710 0.458505 0.957660 0.334305
C116  C     C_3   0.617553 0.544648 0.033500 0.327429
C117  C     C_R   0.779091 0.151895 0.936677 0.022109
C118  C     C_R   0.247862 0.072197 0.078974 -0.001050
C119  C     C_R   0.279091 0.651895 0.936677 0.022109
C120  C     C_R   0.747861 0.572198 0.078974 -0.001050
C121  C     C_R   0.973150 0.343586 0.648083 0.518314
C122  C     C_R   0.737491 0.986367 0.479534 -0.080221
C123  C     C_R   0.030045 0.349023 0.354449 0.538635
C124  C     C_R   0.473150 0.843586 0.648083 0.518314
C125  C     C_R   0.530045 0.849023 0.354449 0.538635
C126  C     C_R   0.993050 0.344731 0.079134 0.013659
C127  C     C_R   0.982181 0.341202 0.930764 0.065689
C128  C     C_R   0.493050 0.844731 0.079134 0.013659
C129  C     C_R   0.482181 0.841202 0.930764 0.065689
C130  C     C_R   0.987741 0.453428 0.040373 0.000589
C131  C     C_R   0.982618 0.450818 0.967898 -0.015784
C132  C     C_R   0.487741 0.953428 0.040373 0.000589
Cr1   Cr    Cr6+3 0.885860 0.491680 0.749630 1.102051
Cr2   Cr    Cr6+3 0.112430 0.179310 0.249850 1.120092
Cr3   Cr    Cr6+3 0.387570 0.679310 0.750150 1.095991
Cr4   Cr    Cr6+3 0.612430 0.679310 0.249850 1.120092
Cr5   Cr    Cr6+3 0.114140 0.491680 0.250370 1.036421
Cr6   Cr    Cr6+3 0.385860 0.991680 0.749630 1.102051
Cr7   Cr    Cr6+3 0.614140 0.991680 0.250370 1.036421
Cr8   Cr    Cr6+3 0.730490 0.332970 0.748720 1.074161
Cr9   Cr    Cr6+3 0.269510 0.332970 0.251280 1.134686
Cr10  Cr    Cr6+3 0.230490 0.832970 0.748720 1.074161
Cr11  Cr    Cr6+3 0.769510 0.832970 0.251280 1.134686
Cr12  Cr    Cr6+3 0.887570 0.179310 0.750150 1.095991
F1    F     F_    0.741929 0.932867 0.601831 -0.589791
F2    F     F_    0.112571 0.141393 0.917426 -0.624266
F3    F     F_    0.407091 0.404954 0.072590 -0.608460
F4    F     F_    0.612571 0.641393 0.917426 -0.624266
F5    F     F_    0.814282 0.892220 0.912671 -0.561180
F6    F     F_    0.077295 0.953511 0.063297 -0.586786
F7    F     F_    0.314282 0.392220 0.912671 -0.561180
F8    F     F_    0.577295 0.453511 0.063297 -0.586786
F9    F     F_    0.778033 0.372663 0.377850 -0.632909
F10   F     F_    0.418717 0.185805 0.562597 -0.522116
F11   F     F_    0.278033 0.872663 0.377850 -0.632909
F12   F     F_    0.101562 0.088488 0.452583 -0.647689
F13   F     F_    0.918717 0.685805 0.562597 -0.522116
F14   F     F_    0.911930 0.945708 0.407151 -0.615163
F15   F     F_    0.940540 0.906024 0.548951 -0.532964
F16   F     F_    0.411930 0.445708 0.407151 -0.615163
F17   F     F_    0.440540 0.406024 0.548951 -0.532964
F18   F     F_    0.241929 0.432867 0.601831 -0.589791
F19   F     F_    0.601563 0.588488 0.452583 -0.647689
F20   F     F_    0.793552 0.843835 0.044807 -0.588316
F21   F     F_    0.088395 0.935289 0.924717 -0.583950
F22   F     F_    0.293552 0.343835 0.044807 -0.588316
F23   F     F_    0.588395 0.435289 0.924717 -0.583950
F24   F     F_    0.907091 0.904954 0.072590 -0.608460
H1    H     H_    0.968131 0.146617 0.942416 0.172327
H2    H     H_    0.390960 0.218773 0.432487 0.245458
H3    H     H_    0.286314 0.913601 0.507325 0.128431
H4    H     H_    0.890960 0.718773 0.432487 0.245458
H5    H     H_    0.110259 0.702920 0.595530 0.140705
H6    H     H_    0.071150 0.754867 0.473665 0.152383
H7    H     H_    0.610259 0.202920 0.595530 0.140705
H8    H     H_    0.571150 0.254867 0.473665 0.152383
H9    H     H_    0.684519 0.262921 0.947495 0.195646
H10   H     H_    0.355853 0.135112 0.075622 0.186477
H11   H     H_    0.184519 0.762921 0.947495 0.195646
H12   H     H_    0.978140 0.149434 0.073154 0.195690
H13   H     H_    0.855853 0.635112 0.075622 0.186477
H14   H     H_    0.666539 0.215202 0.074411 0.179284
H15   H     H_    0.365708 0.114389 0.945025 0.163282
H16   H     H_    0.166539 0.715202 0.074411 0.179284
H17   H     H_    0.865708 0.614389 0.945025 0.163282
H18   H     H_    0.914022 0.957725 0.941595 0.139788
H19   H     H_    0.104594 0.137916 0.052354 0.123585
H20   H     H_    0.414022 0.457725 0.941595 0.139788
H21   H     H_    0.604594 0.637916 0.052354 0.123585
H22   H     H_    0.089211 0.542910 0.055771 0.175427
H23   H     H_    0.468131 0.646617 0.942416 0.172327
H24   H     H_    0.997706 0.638546 0.935573 0.183494
H25   H     H_    0.589211 0.042910 0.055771 0.175427
H26   H     H_    0.497706 0.138546 0.935573 0.183494
H27   H     H_    0.009447 0.645153 0.062155 0.199611
H28   H     H_    0.078119 0.537584 0.929867 0.182573
H29   H     H_    0.509447 0.145153 0.062155 0.199611
H30   H     H_    0.578119 0.037584 0.929867 0.182573
H31   H     H_    0.181404 0.796877 0.407708 0.138417
H32   H     H_    0.879404 0.514322 0.540798 0.091967
H33   H     H_    0.681404 0.296877 0.407708 0.138417
H34   H     H_    0.478140 0.649434 0.073154 0.195690
H35   H     H_    0.379404 0.014322 0.540798 0.091967
H36   H     H_    0.699084 0.347714 0.531689 0.111701
H37   H     H_    0.359768 0.059821 0.416492 0.148607
H38   H     H_    0.199084 0.847714 0.531689 0.111701
H39   H     H_    0.859768 0.559821 0.416492 0.148607
H40   H     H_    0.940459 0.162311 0.362540 0.157248
H41   H     H_    0.993001 0.085947 0.616563 0.169577
H42   H     H_    0.440459 0.662311 0.362540 0.157248
H43   H     H_    0.493001 0.585947 0.616563 0.169577
H44   H     H_    0.013208 0.606586 0.400147 0.159903
H45   H     H_    0.717477 0.897105 0.467096 0.119528
H46   H     H_    0.085178 0.501517 0.644558 0.161144
H47   H     H_    0.513208 0.106586 0.400147 0.159903
H48   H     H_    0.585178 0.001517 0.644558 0.161144
H49   H     H_    0.131527 0.064180 0.585355 0.163045
H50   H     H_    0.217477 0.397105 0.467096 0.119528
H51   H     H_    0.631527 0.564180 0.585355 0.163045
H52   H     H_    0.786314 0.413601 0.507325 0.128431
O1    O     O_R   0.957020 0.451640 0.669920 -0.479846
O2    O     O_R   0.168040 0.093290 0.169870 -0.490811
O3    O     O_R   0.331960 0.593290 0.830130 -0.435557
O4    O     O_R   0.668040 0.593290 0.169870 -0.490811
O5    O     O_R   0.945600 0.250580 0.824860 -0.513499
O6    O     O_R   0.054400 0.250580 0.175140 -0.498495
O7    O     O_R   0.445600 0.750580 0.824860 -0.513499
O8    O     O_R   0.554400 0.750580 0.175140 -0.498495
O9    O     O_3   0.834640 0.334650 0.749500 -0.340793
O10   O     O_3   0.165360 0.334650 0.250500 -0.309012
O11   O     O_3   0.334640 0.834650 0.749500 -0.340793
O12   O     O_R   0.042980 0.451640 0.330080 -0.539030
O13   O     O_3   0.665360 0.834650 0.250500 -0.309012
O14   O     O_R   0.821450 0.543440 0.674610 -0.451135
O15   O     O_R   0.178550 0.543440 0.325390 -0.521241
O16   O     O_R   0.321450 0.043440 0.674610 -0.451135
O17   O     O_R   0.678550 0.043440 0.325390 -0.521241
O18   O     O_R   0.715320 0.458650 0.668100 -0.536496
O19   O     O_R   0.284680 0.458650 0.331900 -0.451924
O20   O     O_R   0.215320 0.958650 0.668100 -0.536496
O21   O     O_R   0.784680 0.958650 0.331900 -0.451924
O22   O     O_R   0.737170 0.209590 0.674530 -0.496412
O23   O     O_R   0.457020 0.951640 0.669920 -0.479846
O24   O     O_R   0.262830 0.209590 0.325470 -0.505666
O25   O     O_R   0.237170 0.709590 0.674530 -0.496412
O26   O     O_R   0.762830 0.709590 0.325470 -0.505666
O27   O     O_R   0.832710 0.092740 0.669580 -0.414766
O28   O     O_R   0.167290 0.092740 0.330420 -0.409873
O29   O     O_R   0.332710 0.592740 0.669580 -0.414766
O30   O     O_R   0.667290 0.592740 0.330420 -0.409873
O31   O     O_R   0.946290 0.250060 0.676040 -0.536101
O32   O     O_R   0.053710 0.250060 0.323960 -0.482489
O33   O     O_R   0.446290 0.750060 0.676040 -0.536101
O34   O     O_R   0.542980 0.951640 0.330080 -0.539030
O35   O     O_R   0.553710 0.750060 0.323960 -0.482489
O36   O     O_R   0.956270 0.452200 0.830470 -0.520695
O37   O     O_R   0.043730 0.452200 0.169530 -0.514519
O38   O     O_R   0.456270 0.952200 0.830470 -0.520695
O39   O     O_R   0.543730 0.952200 0.169530 -0.514519
O40   O     O_R   0.820760 0.543950 0.823440 -0.496580
O41   O     O_R   0.179240 0.543950 0.176560 -0.511938
O42   O     O_R   0.320760 0.043950 0.823440 -0.496580
O43   O     O_R   0.679240 0.043950 0.176560 -0.511938
O44   O     O_R   0.714570 0.459210 0.828640 -0.468294
O45   O     O_R   0.736470 0.210100 0.823360 -0.481483
O46   O     O_R   0.285430 0.459210 0.171360 -0.436425
O47   O     O_R   0.214570 0.959210 0.828640 -0.468294
O48   O     O_R   0.785430 0.959210 0.171360 -0.436425
O49   O     O_R   0.263530 0.210100 0.176640 -0.451619
O50   O     O_R   0.236470 0.710100 0.823360 -0.481483
O51   O     O_R   0.763530 0.710100 0.176640 -0.451619
O52   O     O_R   0.831960 0.093290 0.830130 -0.435557

loop_
_geom_bond_atom_site_label_1
_geom_bond_atom_site_label_2
_ccdc_geom_bond_type
C58   C62   A    
C104  H14   S    
C116  H21   S    
Cr6   O38   S    
C39   H35   S    
C43   H37   S    
C51   C123  S    
Cr4   O35   S    
C69   C77   A    
C109  F2    S    
C34   C42   S    
C11   H26   S    
Cr2   O32   S    
C50   C76   S    
C80   C84   A    
C76   O30   A    
Cr10  O50   S    
C67   O21   A    
C9    H28   S    
C73   O27   A    
C80   H48   S    
C95   C117  A    
Cr10  O20   S    
C55   H40   S    
C108  F20   S    
Cr5   O12   S    
C54   C66   A    
Cr3   O7    S    
C30   C35   S    
Cr11  O51   S    
C101  C118  A    
Cr2   O6    S    
C96   C118  A    
Cr6   O11   S    
Cr12  O52   S    
C25   C128  S    
C60   F14   S    
C90   C107  A    
C99   H9    S    
C7    H34   S    
C15   O47   A    
C86   C91   A    
C6    C129  A    
C59   C66   A    
C12   O44   A    
C92   C109  S    
C121  O31   A    
Cr7   O17   S    
C66   C68   A    
C94   C98   A    
C29   C33   A    
C92   C96   A    
C85   H8    S    
C74   O28   A    
C23   C129  S    
C8    H27   S    
C45   O15   A    
Cr11  O48   S    
C51   C65   A    
Cr2   O28   S    
C125  O35   A    
C35   C42   S    
C24   C29   A    
C17   O45   A    
C52   C69   A    
C78   F1    S    
C16   O43   A    
Cr6   O16   S    
Cr8   O45   S    
Cr1   O40   S    
C73   O22   A    
C103  C120  A    
C23   O38   A    
C8    H22   S    
C8    C9    S    
Cr2   O2    S    
C20   C120  S    
Cr7   O39   S    
C5    C126  A    
Cr7   O13   S    
C2    H49   S    
Cr1   O1    S    
C41   C46   S    
C49   C75   S    
C13   C28   A    
C102  C106  A    
C2    C27   A    
C101  H10   S    
C51   C70   A    
Cr9   O49   S    
C7    C128  A    
C21   C127  S    
C9    H24   S    
C18   C118  S    
C38   C50   A    
C72   C81   A    
C75   O25   A    
C17   C117  S    
C93   C110  S    
C17   O52   A    
C69   C70   A    
C74   O24   A    
Cr4   O30   S    
C9    C131  S    
C99   C104  A    
C108  F24   S    
C19   C119  S    
Cr8   O9    S    
Cr9   O19   S    
Cr3   O11   S    
C55   C60   A    
C16   C86   S    
C102  H11   S    
C96   C114  S    
C46   H39   S    
C24   C111  A    
Cr3   O29   S    
C41   H32   S    
C18   O2    A    
C128  C132  A    
Cr1   O36   S    
C1    C29   S    
C71   C80   A    
C55   C65   A    
C43   H2    S    
C59   H43   S    
C77   H46   S    
C90   C94   A    
C19   O50   A    
C10   C132  S    
C53   C68   A    
C58   H42   S    
C22   O37   A    
C101  C105  A    
C79   H44   S    
C3    C129  A    
C57   H41   S    
C28   C45   S    
Cr9   O24   S    
C38   C46   S    
C4    H1    S    
C30   C34   A    
C39   F10   S    
C27   C31   A    
C3    C132  A    
Cr6   O42   S    
Cr12  O9    S    
C28   C32   A    
Cr7   O34   S    
C111  F19   S    
C84   C85   A    
C47   C73   S    
C52   C64   A    
C10   H25   S    
C42   H52   S    
C27   C56   S    
C35   H33   S    
C89   F12   S    
C39   C43   S    
C116  F8    S    
Cr9   O10   S    
C112  F23   S    
C67   O17   A    
Cr3   O33   S    
C114  H19   S    
C112  F4    S    
C60   C61   A    
C48   C74   S    
C108  C113  S    
C97   C119  A    
C2    C89   A    
C45   O19   A    
C5    H12   S    
C62   C63   A    
C14   O41   A    
C113  F5    S    
C95   C113  S    
C99   C117  A    
C114  F6    S    
C88   C106  A    
C52   C121  S    
C98   C116  S    
C26   C122  A    
Cr4   O4    S    
C82   H5    S    
C1    O14   A    
Cr5   O10   S    
Cr10  O25   S    
Cr4   O13   S    
Cr8   O18   S    
C20   O4    A    
C19   O3    A    
C40   F11   S    
C32   C37   A    
C105  H15   S    
C124  O23   A    
C98   C120  A    
C4    C5    A    
C20   O51   A    
C106  H16   S    
C37   C49   A    
C16   O48   A    
C109  F21   S    
C109  C114  S    
C87   C105  A    
C41   F13   S    
C58   C68   A    
C42   H36   S    
Cr12  O31   S    
Cr11  O21   S    
C48   C89   A    
C8    C130  S    
C13   H50   S    
C62   F16   S    
Cr12  O5    S    
Cr12  O27   S    
C97   C115  S    
C26   C67   S    
C110  F3    S    
C84   H7    S    
C10   H29   S    
C93   C97   A    
C112  C116  S    
C32   C40   S    
C21   O5    A    
C57   C64   A    
C15   C87   S    
Cr7   O43   S    
C12   C90   S    
C63   F17   S    
C54   C124  S    
C88   C93   A    
C123  O12   A    
C121  O1    A    
C4    C127  A    
C70   C79   A    
C103  H13   S    
C91   C108  S    
C56   O20   A    
C76   O26   A    
C35   F9    S    
C124  O33   A    
Cr1   O9    S    
C86   C104  A    
C23   O7    A    
Cr10  O47   S    
Cr11  O26   S    
C57   C61   A    
C6    C7    A    
C22   O6    A    
C40   H31   S    
Cr5   O37   S    
C1    O18   A    
C3    C11   S    
Cr3   O3    S    
C44   H38   S    
C107  H17   S    
C25   O8    A    
C59   C63   A    
C33   C38   A    
C122  H45   S    
C6    H23   S    
C33   C41   S    
Cr9   O46   S    
Cr11  O13   S    
C13   C100  A    
C61   F15   S    
C130  C131  A    
C11   H30   S    
C14   C88   S    
C123  O32   A    
C15   O42   A    
C75   O29   A    
C64   C65   A    
C21   O36   A    
C79   C83   A    
C115  H20   S    
C110  F22   S    
Cr10  O11   S    
C81   H47   S    
C77   C82   A    
C37   C44   S    
C113  H18   S    
C54   C71   A    
C94   C112  S    
C50   C111  A    
Cr5   O15   S    
C46   H4    S    
C36   C48   A    
Cr8   O22   S    
Cr1   O14   S    
Cr2   O10   S    
Cr4   O8    S    
C125  O34   A    
C78   C122  A    
C53   C125  S    
C127  C131  A    
C44   H3    S    
C22   C126  S    
C10   C11   S    
C102  C119  A    
C91   C95   A    
C25   O39   A    
C24   H51   S    
C40   C44   S    
C71   C72   A    
C82   C83   A    
Cr8   O44   S    
C83   H6    S    
C115  F7    S    
C31   C39   S    
C126  C130  A    
C31   C36   A    
C56   O16   A    
C36   C43   S    
C103  C107  A    
C34   C47   A    
C12   O40   A    
C47   C78   A    
C100  F18   S    
C87   C92   A    
C53   C72   A    
C110  C115  S    
C18   O49   A    
C81   C85   A    
Cr6   O23   S    
C14   O46   A    
C49   C100  A    
C26   C30   A    
Cr5   O41   S    
