data_mof_unit_33227.cif
_audit_creation_date              2013-03-05T16:08:07-0500
_audit_creation_method            fapswitch 2.2
_symmetry_space_group_name_H-M    P1
_symmetry_Int_Tables_number       1
_space_group_crystal_system       triclinic
_cell_length_a                    6.956751
_cell_length_b                    14.587803
_cell_length_c                    15.932136
_cell_angle_alpha                 90.384396
_cell_angle_beta                  89.752636
_cell_angle_gamma                 90.053853
_cell_volume                      1616.80019266

loop_
_atom_site_label
_atom_site_type_symbol
_atom_site_description
_atom_site_fract_x
_atom_site_fract_y
_atom_site_fract_z
_atom_type_partial_charge
O1    O     O_R   0.494400 0.415450 0.412630 -0.598034
O2    O     O_R   0.823940 0.405730 0.586760 -0.628891
O3    O     O_R   0.994240 0.584550 0.587370 -0.615800
C1    C     C_R   0.655198 0.383332 0.615213 0.951861
O4    O     O_R   0.824110 0.404430 0.413240 -0.590843
O5    O     O_R   0.994420 0.583240 0.412620 -0.568170
C2    C     C_R   0.655466 0.382159 0.384264 1.005805
O6    O     O_R   0.494230 0.416760 0.587380 -0.591887
O7    O     O_3   0.660800 0.558670 0.500000 -0.264560
V1    V     V_3+5 0.935650 0.489120 0.500000 1.160147
O8    O     O_R   0.324140 0.594270 0.413240 -0.600069
C3    C     C_R   0.155135 0.616419 0.384662 0.966369
O9    O     O_R   0.323960 0.595570 0.586760 -0.566994
C4    C     C_R   0.154804 0.616929 0.616161 0.987966
V2    V     V_3+5 0.435660 0.510880 0.500000 1.194721
O10   O     O_3   0.160640 0.441330 0.500000 -0.303289
C5    C     C_3   0.962969 0.703775 0.742962 -0.198034
C6    C     C_3   0.095868 0.707257 0.820476 0.185585
H1    H     H_    0.823788 0.667052 0.738024 0.184265
C7    C     C_3   0.124587 0.811011 0.809661 -0.413401
C8    C     C_3   0.993452 0.808775 0.731170 -0.125009
C9    C     C_3   0.172280 0.789896 0.674007 -0.342624
C10   C     C_3   0.300919 0.792109 0.752900 0.569571
C11   C     C_3   0.272894 0.688570 0.765095 0.471561
C12   C     C_3   0.142981 0.685887 0.686820 -0.267280
H2    H     H_    0.879118 0.859151 0.717145 0.164464
H3    H     H_    0.202140 0.823307 0.612935 0.132516
C13   C     C_R   0.258300 0.741972 0.181595 0.173871
C14   C     C_R   0.115856 0.809497 0.178129 -0.264895
C15   C     C_R   0.969761 0.804793 0.240009 -0.224206
H4    H     H_    0.850460 0.852356 0.238727 0.121048
C16   C     C_R   0.982095 0.741860 0.307165 -0.098495
H5    H     H_    0.871360 0.742654 0.355112 0.119585
C17   C     C_R   0.141328 0.682268 0.314628 -0.216787
C18   C     C_R   0.270979 0.681542 0.247598 0.020534
C19   C     C_3   0.483234 0.671684 0.238028 0.047127
C20   C     C_3   0.468036 0.736927 0.162220 0.302167
H6    H     H_    0.564374 0.701169 0.291728 0.039051
H7    H     H_    0.540746 0.804584 0.170043 -0.003129
C21   C     C_R   0.512742 0.321319 0.748863 0.152529
C22   C     C_R   0.649477 0.315940 0.684413 -0.305076
C23   C     C_R   0.792765 0.247962 0.692222 -0.183580
H8    H     H_    0.908603 0.243474 0.646780 0.127679
C24   C     C_R   0.782335 0.182053 0.756676 -0.168620
H9    H     H_    0.890277 0.128693 0.758868 0.115823
C25   C     C_R   0.627629 0.182176 0.814457 -0.202123
C26   C     C_R   0.501208 0.256149 0.811489 0.104385
C27   C     C_3   0.287680 0.261187 0.815877 -0.586928
C28   C     C_3   0.301016 0.333798 0.747590 0.456747
H10   H     H_    0.235974 0.287921 0.877464 0.236865
H11   H     H_    0.217746 0.196771 0.794206 0.161158
H12   H     H_    0.238610 0.312910 0.685843 0.004332
C29   C     C_R   0.494699 0.316176 0.255943 0.305665
C30   C     C_R   0.647837 0.316384 0.312851 -0.246861
C31   C     C_R   0.798719 0.254120 0.297311 -0.164966
H13   H     H_    0.920659 0.251947 0.339006 0.134885
C32   C     C_R   0.787327 0.189444 0.231338 -0.151627
H14   H     H_    0.901476 0.139715 0.224115 0.129323
C33   C     C_R   0.624466 0.184849 0.178991 -0.243703
C34   C     C_R   0.483056 0.252038 0.190859 0.194677
C35   C     C_3   0.271442 0.241559 0.201941 -0.495729
C36   C     C_3   0.284061 0.311875 0.272535 -0.469088
H15   H     H_    0.232091 0.171876 0.223944 0.180600
H16   H     H_    0.190023 0.266393 0.146701 0.225759
H17   H     H_    0.251215 0.283240 0.335460 0.173671
H18   H     H_    0.210773 0.377516 0.257929 0.237244
O11   O     O_R   0.771650 0.079500 0.908680 -0.599063
O12   O     O_R   0.441690 0.091800 0.082800 -0.598862
O13   O     O_R   0.271460 0.912980 0.083410 -0.598027
C37   C     C_R   0.610599 0.114060 0.111851 0.941189
O14   O     O_R   0.441930 0.090510 0.909280 -0.597047
O15   O     O_R   0.271690 0.911670 0.908660 -0.571584
C38   C     C_R   0.611622 0.111936 0.880344 0.947098
O16   O     O_R   0.771410 0.080810 0.083440 -0.596758
O17   O     O_3   0.605100 0.937580 0.996050 -0.273070
V3    V     V_3+5 0.330220 0.007110 0.996030 1.170299
O18   O     O_R   0.941980 0.900620 0.909250 -0.589705
C39   C     C_R   0.111258 0.880628 0.879163 1.056480
O19   O     O_R   0.941740 0.901920 0.082770 -0.616303
C40   C     C_R   0.110120 0.879490 0.111195 1.005011
V4    V     V_3+5 0.830220 0.985300 0.996000 1.161159
O20   O     O_3   0.105210 0.054870 0.996020 -0.286815
N1    N     N_R   0.056771 0.665513 0.901992 0.218396
O21   O     O_R   0.998192 0.581148 0.906711 -0.431681
O22   O     O_R   0.103955 0.708464 0.970667 -0.443263
O23   O     O_3   0.496541 0.692947 0.083924 -0.568182
C41   C     C_3   0.692091 0.697983 0.061377 0.042842
H19   H     H_    0.789638 0.680730 0.114193 0.145194
H20   H     H_    0.725946 0.766931 0.036529 0.145446
H21   H     H_    0.719520 0.647310 0.010732 0.172636
O24   O     O_3   0.254488 0.421992 0.778306 -0.575271
C42   C     C_3   0.068175 0.443960 0.752154 -0.041454
H22   H     H_    0.959983 0.397675 0.781076 0.133796
H23   H     H_    0.061472 0.443019 0.683095 0.130273
H24   H     H_    0.034691 0.514753 0.770998 0.168805
O25   O     O_3   0.481870 0.835028 0.761376 -0.614128
C43   C     C_3   0.475531 0.923299 0.726051 -0.198185
H25   H     H_    0.347816 0.963245 0.747310 0.110213
H26   H     H_    0.479089 0.918625 0.656433 0.120654
H27   H     H_    0.604886 0.961870 0.746319 0.137803
O26   O     O_3   0.419475 0.622852 0.775484 -0.614721
C44   C     C_3   0.503011 0.632526 0.855312 -0.058811
H28   H     H_    0.406146 0.605365 0.904698 0.212643
H29   H     H_    0.544982 0.704551 0.869608 0.141332
H30   H     H_    0.635367 0.590420 0.856611 0.165965
N2    N     N_R   0.540561 0.577833 0.216342 0.271927
O27   O     O_R   0.433862 0.526256 0.168388 -0.352419
O28   O     O_R   0.699928 0.545030 0.246103 -0.412668

loop_
_geom_bond_atom_site_label_1
_geom_bond_atom_site_label_2
_geom_bond_distance
_ccdc_geom_bond_type
C21   C26   1.384797 A    
C31   H13   1.080338 S    
O26   C44   1.406783 S    
C22   C23   1.413184 A    
C18   C19   1.490789 S    
C1    O6    1.302546 A    
V4    O20   2.164723 S    
C29   C30   1.401891 A    
C44   H30   1.107663 S    
C6    C11   1.535413 S    
C19   C20   1.546756 S    
C17   C18   1.394861 A    
O5    C3    1.296261 A    
C15   H4    1.082625 S    
C32   C33   1.411009 A    
N2    O27   1.302657 A    
V2    O10   2.164772 S    
C43   H25   1.113289 S    
C10   O25   1.411996 S    
O13   V3    2.002598 S    
C11   O26   1.411291 S    
C35   H15   1.111116 S    
O15   C39   1.293170 A    
C30   C31   1.408753 A    
O8    V2    2.006485 S    
C27   H11   1.111374 S    
N1    O21   1.298610 A    
C13   C18   1.379878 A    
C9    C12   1.545474 S    
C37   O16   1.298224 A    
C10   C11   1.536275 S    
O11   C38   1.294323 A    
O7    V1    2.165412 S    
O15   V3    2.004905 S    
C27   H10   1.111917 S    
C33   C34   1.400693 A    
C8    C9    1.562201 S    
C35   C36   1.519896 S    
C23   C24   1.413034 A    
C28   O24   1.410843 S    
C43   H26   1.110967 S    
C29   C34   1.394529 A    
C24   C25   1.413220 A    
C6    N1    1.462432 S    
C36   H18   1.111729 S    
C19   N2    1.465017 S    
C20   O23   1.412220 S    
C11   C12   1.543562 S    
V3    O20   1.713986 S    
O24   C42   1.401249 S    
O4    C2    1.302711 A    
O23   C41   1.407497 S    
O17   V4    1.713250 S    
O18   C39   1.302123 A    
C42   H24   1.098437 S    
C5    C8    1.558624 S    
C34   C35   1.489779 S    
C16   C17   1.414667 A    
C35   H16   1.111567 S    
O2    C1    1.298832 A    
O17   V3    2.165461 S    
C14   C15   1.414834 A    
C29   C36   1.489230 S    
C26   C27   1.488664 S    
C7    C10   1.544773 S    
O18   V4    2.002573 S    
C28   H12   1.117372 S    
O25   C43   1.409557 S    
C42   H23   1.101435 S    
C5    C6    1.546427 S    
C44   H29   1.112591 S    
O3    C4    1.296818 A    
O1    V2    2.003190 S    
C21   C22   1.398573 A    
N1    O22   1.300374 A    
O11   V4    2.005340 S    
O6    V2    2.005204 S    
C9    H3    1.109903 S    
O9    V2    2.002608 S    
C23   H8    1.082723 S    
O16   V4    2.004861 S    
C3    C17   1.480692 S    
O2    V1    2.001486 S    
C43   H27   1.108955 S    
C24   H9    1.082926 S    
O19   V4    2.006508 S    
C25   C26   1.393921 A    
C13   C14   1.399425 A    
C36   H17   1.111414 S    
O1    C2    1.299734 A    
O5    V1    2.002514 S    
O8    C3    1.304359 A    
O12   V3    2.005821 S    
C7    C39   1.500100 S    
C5    C12   1.556991 S    
C16   H5    1.082552 S    
C31   C32   1.410145 A    
O7    V2    1.713793 S    
O4    V1    2.005904 S    
C20   H7    1.115103 S    
O3    V1    2.004890 S    
V1    O10   1.714037 S    
C15   C16   1.417413 A    
C32   H14   1.081338 S    
O14   V3    2.001465 S    
C14   C40   1.482029 S    
N2    O28   1.300599 A    
C13   C20   1.491855 S    
C27   C28   1.525985 S    
C8    H2    1.107908 S    
C19   H6    1.111026 S    
C42   H22   1.111276 S    
C5    H1    1.108961 S    
C6    C7    1.537229 S    
C4    C12   1.506703 S    
C44   H28   1.108730 S    
C33   C37   1.485193 S    
O19   C40   1.300603 A    
C7    C8    1.551241 S    
C41   H19   1.113556 S    
O12   C37   1.304761 A    
C1    C22   1.482448 S    
C41   H21   1.106725 S    
O14   C38   1.303979 A    
C41   H20   1.108117 S    
C9    C10   1.546253 S    
O13   C40   1.300768 A    
C2    C30   1.484504 S    
O9    C4    1.302028 A    
C25   C38   1.475609 S    
C21   C28   1.484545 S    
