data_mof_unit_9977.cif
_audit_creation_date              2012-12-11T16:28:10-0500
_audit_creation_method            fapswitch 2.2
_symmetry_space_group_name_H-M    P1
_symmetry_Int_Tables_number       1
_space_group_crystal_system       triclinic
_cell_length_a                    30.097945
_cell_length_b                    22.467865
_cell_length_c                    18.081946
_cell_angle_alpha                 90.061742
_cell_angle_beta                  123.131135
_cell_angle_gamma                 89.939558
_cell_volume                      10239.7128948

loop_
_atom_site_label
_atom_site_type_symbol
_atom_type_description
_atom_site_fract_x
_atom_site_fract_y
_atom_site_fract_z
_atom_type_partial_charge
C1    C     C_R   0.544829 0.579308 0.743774 -0.133256
C2    C     C_R   0.702097 0.397944 0.445640 -0.144448
C3    C     C_R   0.799109 0.628686 0.024807 -0.334946
C4    C     C_R   0.221050 0.695882 0.823859 -0.317032
C5    C     C_R   0.702080 0.137299 0.995009 -0.337573
C6    C     C_R   0.769961 0.708265 0.172009 -0.326135
C7    C     C_R   0.297814 0.137623 0.004067 -0.337129
C8    C     C_R   0.769366 0.169960 0.848408 0.802077
C9    C     C_R   0.153515 0.661367 0.970413 0.782238
C10   C     C_R   0.231121 0.169740 0.151808 0.802303
C11   C     C_R   0.848964 0.650347 0.051664 0.779269
C12   C     C_R   0.269674 0.670361 0.848570 0.802571
C13   C     C_R   0.609963 0.730865 0.414924 -0.130943
C14   C     C_R   0.653845 0.162072 0.971533 0.782040
C15   C     C_R   0.719464 0.687088 0.143074 0.794935
C16   C     C_R   0.345980 0.162412 0.027376 0.782383
C17   C     C_R   0.570998 0.612254 0.426078 -0.111560
C18   C     C_R   0.406146 0.414151 0.574387 -0.105647
C19   C     C_R   0.428879 0.612662 0.573359 -0.110247
C20   C     C_R   0.593868 0.414087 0.425589 -0.105432
C21   C     C_R   0.071097 0.112593 0.426639 -0.110996
C22   C     C_R   0.907265 0.912069 0.574645 -0.109332
C23   C     C_R   0.928968 0.112667 0.573423 -0.111801
C24   C     C_R   0.297976 0.397840 0.554433 -0.143394
C25   C     C_R   0.093891 0.914167 0.425573 -0.106311
C26   C     C_R   0.381488 0.580175 0.257268 -0.076967
C27   C     C_R   0.608405 0.393744 0.713827 -0.117280
C28   C     C_R   0.618305 0.580676 0.743056 -0.078314
C29   C     C_R   0.391616 0.393768 0.286074 -0.117479
C30   C     C_R   0.881518 0.080265 0.257315 -0.077428
C31   C     C_R   0.108492 0.893836 0.713966 -0.117432
C32   C     C_R   0.118473 0.080303 0.742651 -0.077136
C33   C     C_R   0.891625 0.893831 0.286847 -0.110183
C34   C     C_R   0.598250 0.594267 0.794441 0.078451
C35   C     C_R   0.893562 0.234716 0.583075 -0.127504
C36   C     C_R   0.419737 0.364073 0.255938 0.058596
C37   C     C_R   0.401082 0.593743 0.205532 0.080785
C38   C     C_R   0.580296 0.364052 0.743892 0.058358
C39   C     C_R   0.098855 0.094023 0.794341 0.080802
C40   C     C_R   0.919883 0.863030 0.258041 0.059159
C41   C     C_R   0.901154 0.093939 0.205664 0.081101
C42   C     C_R   0.080496 0.864199 0.744275 0.058383
C43   C     C_R   0.604886 0.647292 0.499143 0.064812
C44   C     C_R   0.358320 0.395760 0.501542 0.101850
C45   C     C_R   0.395022 0.647618 0.499825 0.061449
C46   C     C_R   0.202084 0.898040 0.445471 -0.143549
C47   C     C_R   0.641704 0.395683 0.498413 0.101969
C48   C     C_R   0.105041 0.147518 0.500201 0.061344
C49   C     C_R   0.860377 0.891867 0.501952 0.121864
C50   C     C_R   0.895107 0.147638 0.499914 0.061710
C51   C     C_R   0.141749 0.895809 0.498383 0.102047
C52   C     C_R   0.315400 0.789463 0.426447 -0.196060
C53   C     C_R   0.762982 0.306622 0.561776 -0.192171
C54   C     C_R   0.684334 0.788977 0.571043 -0.196720
C55   C     C_R   0.237326 0.306382 0.438289 -0.191584
C56   C     C_R   0.815461 0.289448 0.426636 -0.197109
C57   C     C_R   0.106805 0.234364 0.417119 -0.127261
C58   C     C_R   0.263068 0.806829 0.561765 -0.190716
C59   C     C_R   0.184932 0.289107 0.573574 -0.196672
C60   C     C_R   0.748194 0.792600 0.456603 -0.181462
C61   C     C_R   0.346262 0.743929 0.423476 -0.071672
C62   C     C_R   0.717341 0.325064 0.557022 -0.074236
C63   C     C_R   0.652442 0.744435 0.573129 -0.076326
C64   C     C_R   0.282869 0.324985 0.442935 -0.074064
C65   C     C_R   0.846359 0.243965 0.423656 -0.071655
C66   C     C_R   0.217442 0.825273 0.557046 -0.074055
C67   C     C_R   0.154012 0.243735 0.576547 -0.071370
C68   C     C_R   0.794976 0.899420 0.542150 -0.153260
C69   C     C_R   0.793715 0.811472 0.460920 -0.087212
C70   C     C_R   0.380033 0.710434 0.501463 0.064691
C71   C     C_R   0.686905 0.371592 0.498943 0.032090
C72   C     C_R   0.620452 0.709398 0.496077 0.065030
C73   C     C_R   0.313185 0.371577 0.501018 0.031669
C74   C     C_R   0.880116 0.210440 0.501613 0.064463
C75   C     C_R   0.186954 0.871744 0.498894 0.031977
C76   C     C_R   0.120199 0.210213 0.498566 0.064227
C77   C     C_R   0.816391 0.866381 0.502754 0.024281
C78   C     C_2   0.376594 0.616143 0.910651 1.114764
C79   C     C_R   0.365541 0.782736 0.585554 -0.145337
C80   C     C_2   0.565282 0.236101 0.950850 1.136777
C81   C     C_2   0.609631 0.640283 0.074223 1.119189
C82   C     C_2   0.434373 0.236495 0.047923 1.136726
C83   C     C_2   0.876154 0.115424 0.910269 1.116206
C84   C     C_2   0.064187 0.734610 0.948551 1.126881
C85   C     C_2   0.124523 0.114986 0.090364 1.115812
C86   C     C_2   0.943042 0.715844 0.077653 1.129601
C87   C     C_2   0.343170 0.734240 0.339726 0.972968
C88   C     C_2   0.701221 0.292951 0.610260 0.990498
C89   C     C_2   0.652992 0.736771 0.655022 0.976522
C90   C     C_R   0.747507 0.378505 0.450170 -0.131060
C91   C     C_2   0.299039 0.292958 0.389606 0.991027
C92   C     C_2   0.843308 0.234340 0.339926 0.972849
C93   C     C_2   0.201389 0.793217 0.610410 0.991190
C94   C     C_2   0.157093 0.234247 0.660300 0.972630
C95   C     C_2   0.817243 0.771696 0.424638 0.992573
C96   C     C_R   0.639358 0.777266 0.412949 -0.141484
C97   C     C_R   0.466181 0.396039 0.286288 -0.110494
C98   C     C_R   0.252665 0.378247 0.550005 -0.129457
C99   C     C_R   0.865519 0.282605 0.585731 -0.145686
C100  C     C_R   0.247481 0.878593 0.449959 -0.129976
C101  C     C_R   0.134880 0.282138 0.414478 -0.144413
C102  C     C_R   0.750128 0.879287 0.538394 -0.128745
C103  C     C_R   0.322144 0.805305 0.506961 0.090887
C104  C     C_R   0.778289 0.332734 0.508506 0.104058
C105  C     C_R   0.680593 0.801605 0.492051 0.084747
C106  C     C_R   0.222002 0.332404 0.491672 0.103400
C107  C     C_R   0.822146 0.305204 0.507137 0.091230
C108  C     C_R   0.454632 0.578983 0.255601 -0.132982
C109  C     C_R   0.278313 0.832875 0.508373 0.103314
C110  C     C_R   0.178233 0.304772 0.493073 0.091280
C111  C     C_R   0.726105 0.826355 0.494131 0.096263
C112  C     C_R   0.367770 0.608436 0.110498 0.116086
C113  C     C_R   0.596005 0.308983 0.797067 0.127480
C114  C     C_R   0.629918 0.610535 0.889292 0.114331
C115  C     C_R   0.404024 0.309049 0.202580 0.127500
C116  C     C_R   0.867828 0.108691 0.110661 0.115221
C117  C     C_R   0.096160 0.809003 0.797225 0.126668
C118  C     C_R   0.132251 0.108815 0.889340 0.115390
C119  C     C_R   0.533832 0.396041 0.713599 -0.109611
C120  C     C_R   0.904549 0.805930 0.209274 0.125819
C121  C     C_R   0.354325 0.622731 0.965791 -0.078451
C122  C     C_R   0.589442 0.244470 0.898929 -0.087330
C123  C     C_R   0.636368 0.637988 0.025552 -0.087974
C124  C     C_R   0.410380 0.244736 0.100152 -0.087039
C125  C     C_R   0.854094 0.122436 0.965657 -0.079215
C126  C     C_R   0.089022 0.743724 0.897812 -0.080654
C127  C     C_R   0.146338 0.122242 0.034675 -0.078993
C128  C     C_R   0.914897 0.731911 0.121136 -0.084543
C129  C     C_R   0.387043 0.606829 0.055434 -0.225625
C130  C     C_R   0.045326 0.079185 0.744342 -0.135118
C131  C     C_R   0.571559 0.293022 0.841400 -0.222817
C132  C     C_R   0.606516 0.617981 0.937691 -0.225856
C133  C     C_R   0.428323 0.293209 0.157915 -0.223006
C134  C     C_R   0.886928 0.106707 0.055366 -0.224555
C135  C     C_R   0.071372 0.792577 0.840835 -0.222872
C136  C     C_R   0.113363 0.106599 0.944916 -0.224955
C137  C     C_R   0.932144 0.783339 0.173377 -0.220712
C138  C     C_R   0.314889 0.623486 0.074509 -0.183763
C139  C     C_R   0.636658 0.273417 0.805817 -0.178553
C140  C     C_R   0.684413 0.619499 0.931510 -0.184225
C141  C     C_R   0.966305 0.895092 0.287484 -0.110630
C142  C     C_R   0.363490 0.273422 0.193963 -0.178567
C143  C     C_R   0.815037 0.124021 0.074900 -0.184079
C144  C     C_R   0.136944 0.773598 0.806143 -0.178610
C145  C     C_R   0.184950 0.124335 0.924823 -0.183602
C146  C     C_R   0.861067 0.774568 0.197104 -0.176367
C147  C     C_R   0.280826 0.638019 0.985557 0.083042
C148  C     C_R   0.655700 0.223850 0.862452 0.089519
C149  C     C_R   0.715472 0.639934 0.018676 0.083321
C150  C     C_R   0.344393 0.223933 0.137098 0.089563
C151  C     C_R   0.780840 0.138271 0.985879 0.083145
C152  C     C_R   0.954697 0.079136 0.255712 -0.134292
C153  C     C_R   0.155770 0.723758 0.862247 0.089139
C154  C     C_R   0.219299 0.138415 0.013877 0.083037
C155  C     C_R   0.842398 0.722665 0.145663 0.086023
C156  C     C_R   0.301504 0.642574 0.931659 -0.157779
C157  C     C_R   0.632524 0.209821 0.911319 -0.146447
C158  C     C_R   0.690495 0.653899 0.064225 -0.150568
C159  C     C_R   0.367389 0.210050 0.087858 -0.146787
C160  C     C_R   0.801329 0.142431 0.931677 -0.157762
C161  C     C_R   0.132299 0.709305 0.910515 -0.148409
C162  C     C_R   0.199027 0.142343 0.068421 -0.157883
C163  C     C_R   0.034055 0.896213 0.714077 -0.106751
C164  C     C_R   0.869195 0.701298 0.105767 -0.145436
C165  C     C_R   0.227988 0.654927 0.953020 -0.013305
C166  C     C_R   0.700764 0.191495 0.878184 -0.023868
C167  C     C_R   0.769659 0.653788 0.056389 -0.010646
C168  C     C_R   0.299428 0.191532 0.121507 -0.023933
C169  C     C_R   0.728041 0.155225 0.953500 -0.013130
C170  C     C_R   0.200874 0.691487 0.878009 -0.023670
C171  C     C_R   0.272032 0.155402 0.046002 -0.013443
C172  C     C_R   0.794735 0.694783 0.126534 -0.018418
C173  C     C_R   0.622713 0.611149 0.572964 -0.069686
C174  C     C_R   0.393540 0.734791 0.582915 -0.126581
C175  C     C_R   0.356885 0.414396 0.427484 -0.095842
C176  C     C_R   0.377110 0.610949 0.426581 -0.069484
C177  C     C_R   0.643124 0.414354 0.572487 -0.096245
C178  C     C_R   0.122928 0.110905 0.573445 -0.069923
C179  C     C_R   0.857797 0.912042 0.427596 -0.080609
C180  C     C_R   0.877153 0.110980 0.426630 -0.071490
C181  C     C_R   0.143152 0.914431 0.572467 -0.096046
C182  C     C_R   0.720773 0.195558 0.823754 -0.316639
C183  C     C_R   0.201834 0.636710 0.994083 -0.336747
C184  C     C_R   0.279627 0.195409 0.176269 -0.316220
F1    F     F_    0.786620 0.178101 0.793853 -0.649949
F2    F     F_    0.128946 0.638548 0.008438 -0.664696
F3    F     F_    0.214075 0.177666 0.206714 -0.649949
F4    F     F_    0.876281 0.621281 0.022866 -0.666424
F5    F     F_    0.287095 0.678840 0.794310 -0.649252
F6    F     F_    0.629433 0.139529 0.009988 -0.665090
F7    F     F_    0.697508 0.705712 0.187589 -0.662914
F8    F     F_    0.370227 0.140006 0.988488 -0.664597
H1    H     H_    0.518690 0.575058 0.767051 0.094609
H2    H     H_    0.301047 0.628781 0.117910 0.117020
H3    H     H_    0.345056 0.286911 0.228241 0.113628
H4    H     H_    0.702042 0.615772 0.893610 0.115700
H5    H     H_    0.155760 0.787481 0.772700 0.113834
H6    H     H_    0.801368 0.129670 0.118498 0.117178
H7    H     H_    0.840200 0.793104 0.224375 0.108982
H8    H     H_    0.198428 0.130223 0.881013 0.117152
H9    H     H_    0.540345 0.320532 0.835872 0.127245
H10   H     H_    0.427413 0.592701 0.081672 0.138587
H11   H     H_    0.459450 0.320769 0.163367 0.127119
H12   H     H_    0.496949 0.386465 0.274653 0.101234
H13   H     H_    0.564836 0.608351 0.907444 0.143775
H14   H     H_    0.039971 0.819849 0.835060 0.127808
H15   H     H_    0.927229 0.092363 0.081462 0.141415
H16   H     H_    0.965796 0.807331 0.181880 0.130156
H17   H     H_    0.073136 0.092116 0.919003 0.141396
H18   H     H_    0.698583 0.217209 0.760489 0.184109
H19   H     H_    0.217980 0.601956 0.043555 0.173456
H20   H     H_    0.301928 0.216949 0.239647 0.183945
H21   H     H_    0.784361 0.590926 0.980435 0.173528
H22   H     H_    0.198958 0.717745 0.760757 0.184335
H23   H     H_    0.480366 0.574795 0.231471 0.094143
H24   H     H_    0.718328 0.102705 0.044729 0.172908
H25   H     H_    0.789121 0.734876 0.231175 0.189469
H26   H     H_    0.281480 0.103128 0.954134 0.173354
H27   H     H_    0.651198 0.622227 0.641046 0.106083
H28   H     H_    0.322299 0.415676 0.360660 0.089372
H29   H     H_    0.348475 0.621393 0.358398 0.107174
H30   H     H_    0.677715 0.415662 0.639306 0.089265
H31   H     H_    0.151598 0.121347 0.641632 0.107179
H32   H     H_    0.822963 0.912438 0.361025 0.088033
H33   H     H_    0.848516 0.121457 0.358458 0.107360
H34   H     H_    0.503055 0.386478 0.725172 0.101146
H35   H     H_    0.177747 0.915765 0.639281 0.089127
H36   H     H_    0.549488 0.625222 0.357748 0.105077
H37   H     H_    0.416443 0.415213 0.641764 0.091916
H38   H     H_    0.450176 0.626014 0.641543 0.105825
H39   H     H_    0.583583 0.415141 0.358220 0.092156
H40   H     H_    0.049701 0.125886 0.358430 0.106546
H41   H     H_    0.917302 0.912798 0.641876 0.094349
H42   H     H_    0.950375 0.125988 0.641644 0.106704
H43   H     H_    0.083570 0.915234 0.358179 0.091891
H44   H     H_    0.340363 0.574673 0.235148 0.080852
H45   H     H_    0.019595 0.075144 0.768483 0.097504
H46   H     H_    0.647025 0.382712 0.727103 0.106155
H47   H     H_    0.659476 0.576550 0.764958 0.081348
H48   H     H_    0.352993 0.382767 0.272747 0.106123
H49   H     H_    0.840377 0.074772 0.235117 0.080345
H50   H     H_    0.147086 0.882827 0.727119 0.105997
H51   H     H_    0.159613 0.074777 0.764816 0.080921
H52   H     H_    0.853032 0.883589 0.273930 0.098372
H53   H     H_    0.284332 0.810070 0.365667 0.165964
H54   H     H_    0.784987 0.269120 0.603751 0.168203
H55   H     H_    0.714163 0.811080 0.631498 0.168643
H56   H     H_    0.997195 0.884719 0.276458 0.101065
H57   H     H_    0.215421 0.268835 0.396303 0.168192
H58   H     H_    0.784407 0.310079 0.365866 0.165752
H59   H     H_    0.285105 0.769364 0.603805 0.168365
H60   H     H_    0.215987 0.309751 0.634348 0.166002
H61   H     H_    0.730556 0.750104 0.426302 0.179142
H62   H     H_    0.422239 0.714147 0.645106 0.128653
H63   H     H_    0.679242 0.434183 0.401488 0.127739
H64   H     H_    0.583202 0.708588 0.353123 0.126327
H65   H     H_    0.320744 0.434119 0.598604 0.127392
H66   H     H_    0.922233 0.214029 0.645248 0.128407
H67   H     H_    0.980469 0.075063 0.231642 0.097296
H68   H     H_    0.179187 0.934232 0.401249 0.127166
H69   H     H_    0.078120 0.213676 0.354934 0.128525
H70   H     H_    0.812527 0.941452 0.574436 0.130061
H71   H     H_    0.873325 0.296819 0.649082 0.143810
H72   H     H_    0.258357 0.898985 0.407786 0.130483
H73   H     H_    0.127064 0.296279 0.351126 0.144074
H74   H     H_    0.733897 0.905095 0.568925 0.132952
H75   H     H_    0.373398 0.797018 0.648911 0.144370
H76   H     H_    0.758434 0.398949 0.408097 0.129230
H77   H     H_    0.634759 0.788558 0.350842 0.149695
H78   H     H_    0.003520 0.886816 0.726246 0.100095
H79   H     H_    0.241719 0.398635 0.592151 0.130497
H80   H     H_    0.367165 0.584414 0.798487 0.325023
H81   H     H_    0.575916 0.232310 0.070982 0.362472
H82   H     H_    0.612445 0.620566 0.185552 0.325074
H83   H     H_    0.423493 0.232975 0.927591 0.362277
H84   H     H_    0.866397 0.083215 0.798095 0.325218
H85   H     H_    0.073691 0.730075 0.067806 0.354788
H86   H     H_    0.134661 0.082496 0.202598 0.325101
H87   H     H_    0.938747 0.701194 0.963837 0.361522
H88   H     H_    0.298255 0.735358 0.206504 0.329224
H89   H     H_    0.655214 0.287005 0.771825 0.113652
H90   H     H_    0.641564 0.259233 0.617747 0.315540
H91   H     H_    0.694507 0.742035 0.787974 0.331004
H92   H     H_    0.358760 0.259347 0.382052 0.315490
H93   H     H_    0.798449 0.235577 0.206704 0.329192
H94   H     H_    0.141797 0.759434 0.618025 0.315652
H95   H     H_    0.202014 0.235481 0.793523 0.329027
H96   H     H_    0.879821 0.750354 0.416961 0.328682
N1    N     N_R   0.532910 0.558440 0.665240 -0.039422
N2    N     N_R   0.402970 0.441090 0.454460 -0.042934
N3    N     N_R   0.402970 0.558910 0.454460 -0.052965
N4    N     N_R   0.597030 0.441090 0.545540 -0.042950
N5    N     N_R   0.097030 0.058910 0.545540 -0.052973
N6    N     N_R   0.902970 0.941090 0.454460 -0.044737
N7    N     N_R   0.902970 0.058910 0.454460 -0.053670
N8    N     N_R   0.097030 0.941090 0.545540 -0.042706
N9    N     N_R   0.566200 0.559270 0.454460 -0.050069
N10   N     N_R   0.433800 0.440730 0.545540 -0.044514
N11   N     N_R   0.433800 0.559270 0.545540 -0.050206
N12   N     N_R   0.467090 0.441560 0.334760 -0.045466
N13   N     N_R   0.566200 0.440730 0.454460 -0.044519
N14   N     N_R   0.066200 0.059270 0.454460 -0.050106
N15   N     N_R   0.933800 0.940730 0.545540 -0.044907
N16   N     N_R   0.933800 0.059270 0.545540 -0.050530
N17   N     N_R   0.066200 0.940730 0.454460 -0.044203
N18   N     N_R   0.421050 0.559750 0.334770 -0.038564
N19   N     N_R   0.578950 0.440250 0.665230 -0.044639
N20   N     N_R   0.578950 0.559750 0.665230 -0.038249
N21   N     N_R   0.421050 0.440250 0.334770 -0.044714
N22   N     N_R   0.921050 0.059750 0.334770 -0.038595
N23   N     N_R   0.467090 0.558440 0.334760 -0.039607
N24   N     N_R   0.078950 0.940250 0.665230 -0.044636
N25   N     N_R   0.078950 0.059750 0.665230 -0.038690
N26   N     N_R   0.921050 0.940250 0.334770 -0.045273
N27   N     N_R   0.532910 0.441560 0.665240 -0.045422
N28   N     N_R   0.032910 0.058440 0.665240 -0.039846
N29   N     N_R   0.967090 0.941560 0.334760 -0.045481
N30   N     N_R   0.967090 0.058440 0.334760 -0.039823
N31   N     N_R   0.032910 0.941560 0.665240 -0.045161
N32   N     N_R   0.597030 0.558910 0.545540 -0.052827
Ni1   Ni    Ni4+2 0.483090 0.500000 0.604440 0.221721
Ni2   Ni    Ni4+2 0.516910 0.500000 0.395560 0.221305
Ni3   Ni    Ni4+2 0.983090 0.000000 0.604440 0.221625
Ni4   Ni    Ni4+2 0.016910 0.000000 0.395560 0.221993
Ni5   Ni    Ni4+2 0.586780 0.500000 0.604440 0.230569
Ni6   Ni    Ni4+2 0.413220 0.500000 0.395560 0.230518
Ni7   Ni    Ni4+2 0.086780 0.000000 0.604440 0.230727
Ni8   Ni    Ni4+2 0.913220 0.000000 0.395560 0.228895
O1    O     O_2   0.421464 0.633872 0.938189 -0.617141
O2    O     O_R   0.846781 0.085946 0.829091 -0.751037
O3    O     O_2   0.016050 0.729011 0.909466 -0.637481
O4    O     O_R   0.095383 0.735792 0.040865 -0.734000
O5    O     O_2   0.079653 0.132422 0.063563 -0.620134
O6    O     O_R   0.154126 0.085403 0.171372 -0.751177
O7    O     O_2   0.991225 0.709443 0.122093 -0.629241
O8    O     O_R   0.914966 0.711370 0.985641 -0.732990
O9    O     O_2   0.383007 0.720345 0.341356 -0.631833
O10   O     O_R   0.295218 0.743213 0.258819 -0.784528
O11   O     O_2   0.735042 0.276142 0.684651 -0.599837
O12   O     O_R   0.347418 0.586861 0.829285 -0.751396
O13   O     O_R   0.647611 0.281095 0.575028 -0.789481
O14   O     O_2   0.612530 0.721854 0.650618 -0.630905
O15   O     O_R   0.699211 0.748745 0.737193 -0.789613
O16   O     O_2   0.265248 0.276199 0.315148 -0.600152
O17   O     O_R   0.352668 0.281138 0.424831 -0.789345
O18   O     O_2   0.883153 0.220424 0.341593 -0.632250
O19   O     O_R   0.795385 0.243391 0.259000 -0.784883
O20   O     O_2   0.235245 0.776605 0.684894 -0.599862
O21   O     O_R   0.147806 0.781208 0.575202 -0.788524
O22   O     O_2   0.117238 0.220560 0.658677 -0.632678
O23   O     O_2   0.517166 0.230906 0.912799 -0.632810
O24   O     O_R   0.205059 0.243175 0.741204 -0.784234
O25   O     O_2   0.791508 0.729755 0.377267 -0.601821
O26   O     O_R   0.869063 0.780361 0.446336 -0.801890
O27   O     O_R   0.597141 0.237527 0.043121 -0.735327
O28   O     O_2   0.564516 0.659983 0.038123 -0.612835
O29   O     O_R   0.634969 0.617152 0.159770 -0.747539
O30   O     O_2   0.482474 0.231241 0.085723 -0.633270
O31   O     O_R   0.402373 0.238109 0.955673 -0.734985
O32   O     O_2   0.921024 0.132974 0.937453 -0.619960

loop_
_geom_bond_atom_site_label_1
_geom_bond_atom_site_label_2
_ccdc_geom_bond_type
C61   C70   A    
C120  C146  A    
C31   C42   A    
C10   C184  A    
C181  N8    A    
C44   C175  A    
C82   O30   D    
C35   C74   A    
C80   O23   D    
C124  C133  A    
C24   C98   A    
C57   C76   A    
C85   O6    S    
H94   O21   S    
C52   C61   A    
C80   O27   S    
C17   H36   S    
C54   C63   A    
C180  H33   S    
C141  H56   S    
C2    C90   A    
C163  N31   A    
N20   Ni5   S    
C23   H42   S    
C100  H72   S    
C89   O14   D    
C30   H49   S    
N2    N10   A    
C67   C94   S    
N7    Ni8   S    
C55   H57   S    
C36   C97   A    
C112  C129  A    
C4    C12   A    
N2    Ni6   S    
C21   C48   A    
C143  C151  A    
C99   H71   S    
C100  C109  A    
C10   C162  A    
C2    H63   S    
C102  C111  A    
C99   C107  A    
N21   Ni6   S    
N15   Ni3   S    
C130  N28   A    
C84   C126  S    
N31   Ni3   S    
C4    H22   S    
C150  C159  A    
C139  H89   S    
C163  H78   S    
C86   C128  S    
C165  C183  A    
C112  C138  A    
C127  C136  A    
C37   C108  A    
C108  N23   A    
C69   C95   S    
C101  C110  A    
C62   C88   S    
C153  C161  A    
C1    H1    S    
C17   C43   A    
C18   C44   A    
C6    H25   S    
N11   Ni1   S    
C150  C168  A    
C95   O26   S    
C1    N1    A    
C54   H55   S    
H81   O27   S    
C90   C104  A    
N6    N15   A    
N9    Ni2   S    
C135  H14   S    
C38   C119  A    
C180  N7    A    
C88   O13   S    
C97   H12   S    
C2    C71   A    
C117  C135  A    
C118  C136  A    
C26   H44   S    
C68   C77   A    
C15   F7    S    
C8    F1    S    
C54   C105  A    
C175  N2    A    
C51   C181  A    
C140  H4    S    
C42   C117  S    
C13   C72   A    
C98   H79   S    
C3    H21   S    
C39   C118  S    
C98   C106  A    
C92   O18   D    
C43   C173  A    
C84   O3    D    
C108  H23   S    
C3    C11   A    
N22   Ni8   S    
C179  N6    A    
C64   C91   S    
C104  C107  S    
H95   O24   S    
C27   H46   S    
C49   C179  A    
C133  H11   S    
C52   C103  A    
C121  C156  A    
C123  C132  A    
C48   C76   S    
C173  N32   A    
C69   C77   A    
C166  C182  A    
C68   H70   S    
C125  C160  A    
C3    C167  A    
C6    C172  A    
C181  H35   S    
H85   O4    S    
C4    C170  A    
C81   C123  S    
C50   C74   S    
C28   H47   S    
C53   C104  A    
C182  H18   S    
H88   O10   S    
C147  C165  A    
C59   C67   A    
H83   O31   S    
C168  C171  A    
N3    Ni6   S    
C153  C170  A    
C64   C73   A    
C113  C139  A    
C30   C41   A    
C81   O28   D    
C114  C140  A    
C149  C158  A    
C132  H13   S    
C20   H39   S    
C40   C141  A    
C28   N20   A    
C79   C103  A    
C58   H59   S    
C97   N12   A    
C12   C156  A    
N12   N21   A    
C46   C75   A    
C1    C34   A    
C17   N9    A    
C139  C148  A    
C33   C40   A    
C144  H5    S    
C13   C96   A    
C11   F4    S    
C20   C47   A    
C78   O12   S    
C117  C144  A    
H86   O6    S    
C15   C158  A    
C9    F2    S    
C96   H77   S    
C21   H40   S    
C65   C74   A    
H82   O29   S    
C86   O7    D    
N10   Ni1   S    
C87   O9    D    
C63   C89   S    
C178  N5    A    
N4    N13   A    
N25   Ni7   S    
C9    C161  A    
C70   C174  A    
C91   O16   D    
C66   C93   S    
C145  C154  A    
C127  C162  A    
N5    Ni7   S    
C177  H30   S    
C178  H31   S    
N19   N27   A    
C122  C131  A    
H93   O19   S    
N4    Ni5   S    
C154  C162  A    
C118  C145  A    
C82   O31   S    
C19   C45   A    
C57   C101  A    
N18   N23   A    
C151  C169  A    
N30   Ni4   S    
C179  H32   S    
C26   N18   A    
C85   O5    D    
C60   C111  A    
N29   Ni4   S    
N26   Ni8   S    
C60   C69   A    
C49   C77   S    
C154  C171  A    
C148  C157  A    
N16   Ni3   S    
C83   O32   D    
C14   F6    S    
N13   Ni2   S    
C152  N30   A    
C140  C149  A    
C119  H34   S    
C137  H16   S    
C125  C134  A    
C96   C105  A    
C130  H45   S    
C7    C171  A    
C148  C166  A    
C175  H28   S    
C149  C167  A    
C52   H53   S    
C80   C122  S    
C94   O24   S    
C12   F5    S    
C57   H69   S    
N8    Ni7   S    
C68   C102  A    
C24   C73   A    
C116  C134  A    
C27   C38   A    
N8    N17   A    
H80   O12   S    
C21   N14   A    
C32   C39   A    
C82   C124  S    
C78   C121  S    
C53   H54   S    
C93   O21   S    
C23   N16   A    
C31   H50   S    
C7    H26   S    
N12   Ni2   S    
C155  C172  A    
C174  H62   S    
C146  C155  A    
C56   H58   S    
C91   O17   S    
C142  H3    S    
C95   O25   D    
C126  C161  A    
C29   H48   S    
N26   N29   A    
C105  C111  S    
C115  C142  A    
C28   C34   A    
C46   H68   S    
C79   C174  A    
C29   N21   A    
C83   C125  S    
C93   O20   D    
C48   C178  A    
C25   N17   A    
C138  H2    S    
N6    Ni8   S    
C14   C157  A    
N1    Ni1   S    
C145  H8    S    
C38   C113  S    
C23   C50   A    
C55   C106  A    
C13   H64   S    
C24   H65   S    
C88   O11   D    
C90   H76   S    
N14   Ni4   S    
C9    C183  A    
C22   H41   S    
C89   O15   S    
C84   O4    S    
C176  N3    A    
N32   Ni5   S    
C147  C156  A    
C5    C14   A    
C7    C16   A    
C40   C120  S    
C126  C135  A    
C18   N10   A    
C155  C164  A    
C119  N27   A    
C8    C160  A    
C8    C182  A    
C165  C170  A    
C94   O22   D    
C143  H6    S    
C101  H73   S    
C45   C70   S    
C121  C129  A    
C18   H37   S    
C26   C37   A    
C167  C172  A    
C115  C133  A    
C20   N13   A    
C78   O1    D    
C103  C109  S    
C142  C150  A    
C22   N15   A    
N18   Ni6   S    
C32   N25   A    
C66   C75   A    
C60   H61   S    
C122  C157  A    
C27   N19   A    
C44   C73   S    
C131  H9    S    
C19   H38   S    
C136  H17   S    
C63   C72   A    
C5    C169  A    
C120  C137  A    
N19   Ni5   S    
C65   C92   S    
C43   C72   S    
N17   Ni4   S    
C58   C109  A    
C152  H67   S    
C128  C164  A    
C41   C152  A    
N1    N20   A    
C29   C36   A    
C83   O2    S    
C51   C75   S    
C183  H19   S    
C56   C65   A    
C124  C159  A    
C146  H7    S    
C59   C110  A    
C141  N29   A    
C86   O8    S    
C144  C153  A    
C37   C112  S    
C16   F8    S    
C6    C15   A    
C58   C66   A    
N28   Ni3   S    
H96   O26   S    
C168  C184  A    
C62   C71   A    
C79   H75   S    
H92   O17   S    
H87   O8    S    
C61   C87   S    
C16   C159  A    
C35   C99   A    
C184  H20   S    
N24   N31   A    
C176  H29   S    
C45   C176  A    
C42   C163  A    
N25   N28   A    
N22   N30   A    
C5    H24   S    
C35   H66   S    
C50   C180  A    
C128  C137  A    
C25   C51   A    
C56   C107  A    
C33   N26   A    
C116  C143  A    
C53   C62   A    
C138  C147  A    
N24   Ni7   S    
C47   C71   S    
C55   C64   A    
C10   F3    S    
H84   O2    S    
C81   O29   S    
H91   O15   S    
C30   N22   A    
C129  H10   S    
C22   C49   A    
C32   H51   S    
C85   C127  S    
C41   C116  S    
N23   Ni2   S    
N3    N11   A    
C106  C110  S    
C46   C100  A    
C177  N4    A    
C113  C131  A    
C114  C132  A    
C92   O19   S    
C123  C158  A    
C31   N24   A    
C34   C114  S    
N9    N32   A    
C151  C160  A    
C47   C177  A    
N27   Ni1   S    
C134  H15   S    
H90   O13   S    
C11   C164  A    
C19   N11   A    
C173  H27   S    
C87   O10   S    
C25   H43   S    
C166  C169  A    
C102  H74   S    
C59   H60   S    
C33   H52   S    
C67   C76   A    
C39   C130  A    
N5    N14   A    
C36   C115  S    
N7    N16   A    
