data_mof_unit_66566.cif
_audit_creation_date              2012-12-10T16:50:10-0500
_audit_creation_method            fapswitch 2.2
_symmetry_space_group_name_H-M    P1
_symmetry_Int_Tables_number       1
_space_group_crystal_system       triclinic
_cell_length_a                    7.783174
_cell_length_b                    8.579997
_cell_length_c                    10.651257
_cell_angle_alpha                 92.154166
_cell_angle_beta                  84.803263
_cell_angle_gamma                 93.334215
_cell_volume                      706.790233567

loop_
_atom_site_label
_atom_site_type_symbol
_atom_type_description
_atom_site_fract_x
_atom_site_fract_y
_atom_site_fract_z
_atom_type_partial_charge
C1    C     C_R   0.544937 0.794747 0.501291 0.961614
C2    C     C_R   0.455178 0.206400 0.512055 0.823046
C3    C     C_R   0.501750 0.515339 0.260931 0.856420
C4    C     C_R   0.238806 0.700840 0.894430 -0.175459
C5    C     C_R   0.103127 0.762050 0.971297 -0.156340
C6    C     C_R   0.105780 0.763610 0.101048 -0.175254
C7    C     C_R   0.243978 0.704568 0.154180 -0.195550
C8    C     C_R   0.373927 0.625994 0.078580 0.097811
C9    C     C_3   0.267310 0.071962 0.734340 0.069390
C10   C     C_3   0.423108 0.073041 0.814226 -0.401348
C11   C     C_3   0.377562 0.137506 0.947908 -0.929007
C12   C     C_R   0.372735 0.625378 0.946426 0.093828
C13   C     C_3   0.005934 0.306977 0.292868 0.240156
C14   C     C_3   0.962767 0.135555 0.255031 -0.392872
C15   C     C_3   0.797591 0.114748 0.187259 -0.957459
C16   C     C_R   0.507327 0.550303 0.871987 -0.123683
C17   C     C_R   0.649026 0.498299 0.925923 -0.214002
C18   C     C_R   0.648643 0.497572 0.053368 -0.223115
C19   C     C_R   0.506877 0.548919 0.129768 -0.124630
C20   C     C_2   0.565840 0.958057 0.497933 -0.498873
C21   C     C_2   0.435808 0.046358 0.542419 0.328159
C22   C     C_R   0.502540 0.517164 0.739452 0.847074
H1    H     H_    0.756058 0.446879 0.870101 0.176599
H2    H     H_    0.231001 0.192887 0.720645 0.172503
H3    H     H_    0.467141 0.952752 0.818711 0.232511
H4    H     H_    0.532043 0.147430 0.770114 0.211661
H5    H     H_    0.329208 0.256454 0.945505 0.265227
H6    H     H_    0.494159 0.143748 0.001114 0.271207
H7    H     H_    0.276731 0.060425 0.997995 0.270734
H8    H     H_    0.133526 0.341097 0.244107 0.115769
H9    H     H_    0.915499 0.385474 0.256784 0.144483
H10   H     H_    0.071295 0.091488 0.191098 0.184810
H11   H     H_    0.949872 0.061813 0.339198 0.248033
H12   H     H_    0.991457 0.635611 0.579431 0.154053
H13   H     H_    0.687686 0.165696 0.245230 0.285719
H14   H     H_    0.764818 0.988583 0.170021 0.256029
H15   H     H_    0.816607 0.172022 0.094909 0.252520
H16   H     H_    0.237826 0.720082 0.795216 0.188752
H17   H     H_    0.999287 0.814617 0.929973 0.141205
H18   H     H_    0.003294 0.815242 0.160896 0.153364
H19   H     H_    0.247563 0.726297 0.254216 0.175808
H20   H     H_    0.755954 0.446744 0.091291 0.166565
H21   H     H_    0.684383 0.005143 0.448649 0.166935
H22   H     H_    0.153716 0.015029 0.788407 0.163225
N1    N     N_2   0.950330 0.457950 0.466250 0.098309
N2    N     N_2   0.049670 0.542050 0.533750 -0.102653
O1    O     O_R   0.389250 0.738570 0.508280 -0.575668
O2    O     O_3   0.017637 0.322486 0.424416 -0.508612
O3    O     O_R   0.678390 0.711630 0.486650 -0.654008
O4    O     O_R   0.355400 0.513470 0.694050 -0.644719
O5    O     O_R   0.644540 0.486530 0.672420 -0.632845
O6    O     O_R   0.321610 0.288370 0.513350 -0.553877
O7    O     O_R   0.610750 0.261430 0.491720 -0.617844
O8    O     O_R   0.355460 0.513470 0.327580 -0.634976
O9    O     O_R   0.644600 0.486530 0.305950 -0.641517
O10   O     O_3   0.293314 0.985962 0.618096 -0.626948
Zn1   Zn    Zn3+2 0.306930 0.517990 0.514440 0.985282
Zn2   Zn    Zn3+2 0.693070 0.482010 0.485560 0.962461

loop_
_geom_bond_atom_site_label_1
_geom_bond_atom_site_label_2
_ccdc_geom_bond_type
C21   O10   S    
O7    Zn2   S    
C9    H2    S    
C3    C19   S    
C6    C7    A    
H12   N2    S    
O1    Zn1   S    
C9    C10   S    
C15   H14   S    
C11   H5    S    
C8    C12   A    
C10   H4    S    
C2    C21   S    
C7    H19   S    
C17   C18   A    
C7    C8    A    
C9    O10   S    
N1    N2    D    
O8    Zn1   S    
C17   H1    S    
C2    O6    A    
C11   H6    S    
C14   H11   S    
C10   H3    S    
C15   H13   S    
C4    H16   S    
C5    H17   S    
N2    Zn1   S    
C22   O5    A    
C5    C6    A    
C3    O8    A    
C6    H18   S    
N1    Zn2   S    
O9    Zn2   S    
C8    C19   A    
C4    C12   A    
C10   C11   S    
C22   O4    A    
C2    O7    A    
C13   H8    S    
C20   H21   S    
C20   C21   D    
C11   H7    S    
C18   C19   A    
O6    Zn1   S    
N1    O2    S    
O5    Zn2   S    
C14   C15   S    
C15   H15   S    
C1    C20   S    
C16   C22   S    
C18   H20   S    
C13   C14   S    
O4    Zn1   S    
C3    O9    A    
C13   H9    S    
C1    O1    A    
O3    Zn2   S    
C12   C16   A    
C16   C17   A    
C14   H10   S    
C4    C5    A    
C9    H22   S    
C13   O2    S    
C1    O3    A    
