data_mof_unit_63045.cif
_audit_creation_date              2012-12-10T19:52:24-0500
_audit_creation_method            fapswitch 2.2
_symmetry_space_group_name_H-M    P1
_symmetry_Int_Tables_number       1
_space_group_crystal_system       triclinic
_cell_length_a                    18.275823
_cell_length_b                    18.275617
_cell_length_c                    31.932767
_cell_angle_alpha                 89.999928
_cell_angle_beta                  89.999889
_cell_angle_gamma                 90.000082
_cell_volume                      10665.6061757

loop_
_atom_site_label
_atom_site_type_symbol
_atom_type_description
_atom_site_fract_x
_atom_site_fract_y
_atom_site_fract_z
_atom_type_partial_charge
C1    C     C_R   0.641232 0.500020 0.000000 0.930642
C2    C     C_1   0.499998 0.499187 0.163004 0.059841
C3    C     C_2   0.372934 0.423774 0.278702 0.954927
C4    C     C_2   0.127134 0.923886 0.221301 0.954864
C5    C     C_2   0.127131 0.923880 0.778699 0.954873
C6    C     C_2   0.872936 0.923769 0.221298 0.954929
C7    C     C_2   0.872933 0.923775 0.778702 0.954926
C8    C     C_2   0.499937 0.646736 0.722197 0.907656
C9    C     C_2   0.499940 0.646736 0.277803 0.907658
C10   C     C_2   0.999935 0.146736 0.222197 0.907656
C11   C     C_2   0.999942 0.146736 0.777803 0.907658
C12   C     C_2   0.500067 0.351067 0.778439 0.995240
C13   C     C_1   0.999998 0.999188 0.336995 0.059844
C14   C     C_2   0.500064 0.351067 0.221561 0.995239
C15   C     C_2   0.000069 0.851067 0.278439 0.995240
C16   C     C_2   0.000062 0.851067 0.721561 0.995239
C17   C     C_1   0.999998 0.999187 0.663004 0.059841
C18   C     C_1   0.500001 0.499468 0.662993 0.181237
C19   C     C_1   0.500001 0.499469 0.337007 0.181236
C20   C     C_1   0.000001 0.999468 0.162993 0.181237
C21   C     C_1   0.000001 0.999469 0.837007 0.181236
C22   C     C_1   0.717664 0.500054 0.000000 -0.168893
C23   C     C_1   0.282336 0.500055 1.000000 -0.168901
C24   C     C_1   0.217664 0.000055 0.500000 -0.168893
C25   C     C_R   0.358768 0.500020 0.000000 0.930627
C26   C     C_1   0.782336 0.000055 0.500000 -0.168901
C27   C     C_1   0.782414 0.500046 0.000000 -0.166078
C28   C     C_1   0.217586 0.500046 1.000000 -0.166086
C29   C     C_1   0.282414 0.000046 0.500000 -0.166078
C30   C     C_1   0.717586 0.000046 0.500000 -0.166086
C31   C     C_R   0.500000 0.358646 0.500000 0.936456
C32   C     C_R   0.000000 0.858646 1.000000 0.936455
C33   C     C_R   0.500000 0.499906 0.581317 0.890915
C34   C     C_R   0.500000 0.499906 0.418683 0.890915
C35   C     C_R   1.000000 0.999906 0.081317 0.890915
C36   C     C_R   0.141232 0.000020 0.500000 0.930642
C37   C     C_R   0.000000 0.999906 0.918683 0.890915
C38   C     C_R   0.500000 0.641074 0.500000 0.933880
C39   C     C_R   1.000000 0.141074 0.000000 0.933880
C40   C     C_R   0.000000 0.641120 1.000000 0.922902
C41   C     C_R   0.500000 0.141120 0.500000 0.922902
C42   C     C_R   0.858846 0.500016 0.000000 0.923949
C43   C     C_R   0.141154 0.500016 1.000000 0.923950
C44   C     C_R   0.358846 0.000016 0.500000 0.923949
C45   C     C_R   0.641154 0.000016 0.500000 0.923950
C46   C     C_R   0.500000 0.499988 0.918680 0.897964
C47   C     C_R   0.858768 0.000020 0.500000 0.930627
C48   C     C_R   0.500000 0.499988 0.081320 0.897964
C49   C     C_R   1.000000 0.999988 0.418680 0.897964
C50   C     C_R   1.000000 0.999988 0.581320 0.897964
C51   C     C_R   1.000000 0.358827 0.000000 0.924071
C52   C     C_R   0.500000 0.858827 0.500000 0.924071
C53   C     C_1   0.500000 0.282249 0.500000 -0.163382
C54   C     C_1   0.000000 0.782249 1.000000 -0.163382
C55   C     C_1   0.000000 0.717519 1.000000 -0.163842
C56   C     C_1   0.500000 0.217519 0.500000 -0.163842
C57   C     C_1   0.500000 0.717559 0.500000 -0.163348
C58   C     C_3   0.499968 0.568526 0.736349 -0.086160
C59   C     C_1   1.000000 0.217559 0.000000 -0.163348
C60   C     C_1   1.000000 0.282340 0.000000 -0.165815
C61   C     C_1   0.500000 0.782340 0.500000 -0.165815
C62   C     C_3   0.560145 0.463797 0.735957 -0.093146
C63   C     C_3   0.560145 0.463796 0.264043 -0.093158
C64   C     C_3   0.439889 0.463741 0.735956 -0.093190
C65   C     C_3   0.439888 0.463743 0.264044 -0.093185
C66   C     C_3   0.060146 0.963798 0.235957 -0.093146
C67   C     C_3   0.060144 0.963795 0.764043 -0.093157
C68   C     C_3   0.939889 0.963741 0.235956 -0.093190
C69   C     C_3   0.499970 0.568526 0.263651 -0.086154
C70   C     C_3   0.939888 0.963744 0.764044 -0.093186
C71   C     C_3   0.559298 0.532697 0.763861 0.109141
C72   C     C_3   0.559299 0.532695 0.236138 0.109141
C73   C     C_3   0.440669 0.532642 0.763860 0.109157
C74   C     C_3   0.440670 0.532643 0.236140 0.109157
C75   C     C_3   0.059297 0.032697 0.263862 0.109141
C76   C     C_3   0.059299 0.032695 0.736138 0.109141
C77   C     C_3   0.940668 0.032641 0.263860 0.109157
C78   C     C_3   0.940670 0.032644 0.736140 0.109157
C79   C     C_1   0.499999 0.499832 0.874370 -0.129198
C80   C     C_3   0.999967 0.068526 0.236349 -0.086160
C81   C     C_1   0.499999 0.499832 0.125630 -0.129200
C82   C     C_1   0.999999 0.999832 0.374370 -0.129198
C83   C     C_1   0.999999 0.999832 0.625630 -0.129200
C84   C     C_1   0.500000 0.499731 0.625617 -0.068287
C85   C     C_1   0.500000 0.499731 0.374383 -0.068286
C86   C     C_1   0.000000 0.999730 0.125617 -0.068287
C87   C     C_1   0.000000 0.999731 0.874382 -0.068286
C88   C     C_3   0.500032 0.429054 0.763750 -0.155250
C89   C     C_3   0.500031 0.429054 0.236250 -0.155248
C90   C     C_3   0.000033 0.929054 0.263750 -0.155250
C91   C     C_3   0.999971 0.068526 0.763651 -0.086154
C92   C     C_3   0.000030 0.929054 0.736250 -0.155248
C93   C     C_3   0.499998 0.498000 0.791667 0.011024
C94   C     C_3   0.499999 0.498000 0.208333 0.011023
C95   C     C_3   0.999998 0.998000 0.291667 0.011024
C96   C     C_3   0.999999 0.998000 0.708333 0.011023
C97   C     C_3   0.500001 0.499043 0.708336 -0.074989
C98   C     C_3   0.500002 0.499044 0.291664 -0.074991
C99   C     C_3   0.000001 0.999044 0.208336 -0.074989
C100  C     C_3   0.000002 0.999044 0.791664 -0.074991
C101  C     C_3   0.673976 0.598915 0.750730 -0.656075
C102  C     C_1   0.499998 0.499188 0.836995 0.059844
C103  C     C_3   0.673975 0.598918 0.249270 -0.656091
C104  C     C_3   0.325959 0.598801 0.750720 -0.656136
C105  C     C_3   0.325961 0.598803 0.249279 -0.656134
C106  C     C_3   0.173975 0.098917 0.250730 -0.656075
C107  C     C_3   0.173976 0.098916 0.749270 -0.656090
C108  C     C_3   0.825958 0.098798 0.250720 -0.656137
C109  C     C_3   0.825962 0.098805 0.749279 -0.656133
C110  C     C_2   0.627133 0.423885 0.721301 0.954863
C111  C     C_2   0.627132 0.423882 0.278699 0.954873
C112  C     C_2   0.372935 0.423770 0.721298 0.954931
H1    H     H_    0.610234 0.605738 0.804415 0.245483
H2    H     H_    0.276182 0.618250 0.767242 0.246971
H3    H     H_    0.309138 0.556549 0.727752 0.244959
H4    H     H_    0.350750 0.645817 0.733938 0.241194
H5    H     H_    0.389640 0.605591 0.195568 0.245448
H6    H     H_    0.276189 0.618265 0.232757 0.246967
H7    H     H_    0.350754 0.645811 0.266068 0.241190
H8    H     H_    0.309129 0.556548 0.272243 0.244962
H9    H     H_    0.110233 0.105739 0.304416 0.245483
H10   H     H_    0.223686 0.118515 0.267258 0.246938
H11   H     H_    0.149135 0.145825 0.233872 0.241151
H12   H     H_    0.723687 0.618512 0.767258 0.246938
H13   H     H_    0.190927 0.056613 0.227825 0.244993
H14   H     H_    0.110242 0.105725 0.695581 0.245477
H15   H     H_    0.223702 0.118482 0.732742 0.246949
H16   H     H_    0.190902 0.056624 0.772188 0.244987
H17   H     H_    0.149143 0.145848 0.766110 0.241167
H18   H     H_    0.889634 0.105585 0.304432 0.245445
H19   H     H_    0.776180 0.118248 0.267242 0.246971
H20   H     H_    0.809137 0.056547 0.227752 0.244959
H21   H     H_    0.850748 0.145815 0.233937 0.241194
H22   H     H_    0.889641 0.105592 0.695568 0.245448
H23   H     H_    0.649137 0.645823 0.733872 0.241151
H24   H     H_    0.776191 0.118267 0.732757 0.246967
H25   H     H_    0.850756 0.145813 0.766068 0.241190
H26   H     H_    0.809129 0.056551 0.772243 0.244962
H27   H     H_    0.687518 0.387943 0.672664 0.352385
H28   H     H_    0.687514 0.387938 0.327336 0.352385
H29   H     H_    0.312584 0.387774 0.672661 0.352377
H30   H     H_    0.312581 0.387779 0.327339 0.352377
H31   H     H_    0.187519 0.887945 0.172664 0.352384
H32   H     H_    0.187513 0.887936 0.827336 0.352385
H33   H     H_    0.812585 0.887771 0.172661 0.352377
H34   H     H_    0.690927 0.556611 0.727825 0.244993
H35   H     H_    0.812580 0.887782 0.827339 0.352377
H36   H     H_    0.499900 0.717911 0.673995 0.354139
H37   H     H_    0.499906 0.717911 0.326005 0.354138
H38   H     H_    0.999898 0.217911 0.173995 0.354139
H39   H     H_    0.999908 0.217911 0.826005 0.354138
H40   H     H_    0.500098 0.280846 0.827106 0.352382
H41   H     H_    0.500094 0.280846 0.172895 0.352382
H42   H     H_    0.000101 0.780846 0.327105 0.352382
H43   H     H_    0.000091 0.780846 0.672895 0.352382
H44   H     H_    0.610241 0.605727 0.195581 0.245478
H45   H     H_    0.723700 0.618485 0.232742 0.246950
H46   H     H_    0.690901 0.556626 0.272188 0.244987
H47   H     H_    0.649141 0.645850 0.266110 0.241167
H48   H     H_    0.389636 0.605586 0.804432 0.245445
N1    N     N_2   0.623081 0.569191 0.780952 -0.287607
N2    N     N_2   0.623085 0.569185 0.219047 -0.287610
N3    N     N_2   0.376842 0.569065 0.780946 -0.287601
N4    N     N_2   0.376844 0.569068 0.219053 -0.287601
N5    N     N_2   0.123080 0.069192 0.280952 -0.287607
N6    N     N_2   0.123086 0.069184 0.719047 -0.287610
N7    N     N_2   0.876841 0.069063 0.280946 -0.287601
N8    N     N_2   0.876845 0.069070 0.719053 -0.287601
O1    O     O_R   0.607370 0.439420 0.000000 -0.613606
O2    O     O_R   0.392710 0.560580 0.000000 -0.617969
O3    O     O_R   0.107290 0.060580 0.500000 -0.617968
O4    O     O_R   0.892710 0.060580 0.500000 -0.617969
O5    O     O_R   0.500000 0.439420 0.938390 -0.596011
O6    O     O_R   0.500000 0.439420 0.061610 -0.596011
O7    O     O_R   0.000000 0.939420 0.438390 -0.596011
O8    O     O_R   1.000000 0.939420 0.561610 -0.596011
O9    O     O_R   0.500000 0.560580 0.938390 -0.623518
O10   O     O_R   0.500000 0.560580 0.061610 -0.623518
O11   O     O_R   0.000000 0.060580 0.438390 -0.623518
O12   O     O_R   0.392630 0.439420 0.000000 -0.613610
O13   O     O_R   0.000000 0.060580 0.561610 -0.623518
O14   O     O_R   0.560550 0.392540 0.500000 -0.614959
O15   O     O_R   0.439450 0.392540 0.500000 -0.614961
O16   O     O_R   0.060550 0.892540 0.000000 -0.614959
O17   O     O_R   0.939450 0.892540 0.000000 -0.614961
O18   O     O_R   0.560580 0.499860 0.561610 -0.608200
O19   O     O_R   0.560580 0.499860 0.438390 -0.608200
O20   O     O_R   0.439420 0.499860 0.561610 -0.608203
O21   O     O_R   0.439420 0.499860 0.438390 -0.608203
O22   O     O_R   0.060580 0.999860 0.061610 -0.608200
O23   O     O_R   0.107370 0.939420 0.500000 -0.613606
O24   O     O_R   0.060580 0.999860 0.938390 -0.608200
O25   O     O_R   0.939420 0.999860 0.061610 -0.608203
O26   O     O_R   0.939420 0.999860 0.938390 -0.608203
O27   O     O_R   0.560630 0.607160 0.500000 -0.615775
O28   O     O_R   0.439370 0.607160 0.500000 -0.615772
O29   O     O_R   0.060630 0.107160 0.000000 -0.615775
O30   O     O_R   0.939370 0.107160 0.000000 -0.615772
O31   O     O_R   0.000000 0.607310 0.965210 -0.613590
O32   O     O_R   0.000000 0.607310 0.034790 -0.613590
O33   O     O_R   0.500000 0.107310 0.465210 -0.613590
O34   O     O_R   0.892630 0.939420 0.500000 -0.613610
O35   O     O_R   0.500000 0.107310 0.534790 -0.613590
O36   O     O_R   0.892680 0.500000 0.965220 -0.614428
O37   O     O_R   0.892680 0.500000 0.034780 -0.614429
O38   O     O_R   0.107320 0.500000 0.965220 -0.614433
O39   O     O_R   0.107320 0.500000 0.034780 -0.614432
O40   O     O_R   0.392680 0.000000 0.465220 -0.614428
O41   O     O_R   0.392680 0.000000 0.534780 -0.614429
O42   O     O_R   0.607320 0.000000 0.465220 -0.614433
O43   O     O_R   0.607320 0.000000 0.534780 -0.614432
O44   O     O_2   0.669697 0.398632 0.747033 -0.591466
O45   O     O_R   0.000000 0.392690 0.965220 -0.614704
O46   O     O_R   0.640637 0.415779 0.678504 -0.803024
O47   O     O_2   0.669695 0.398629 0.252967 -0.591460
O48   O     O_R   0.640634 0.415775 0.321496 -0.803026
O49   O     O_2   0.330393 0.398482 0.747031 -0.591451
O50   O     O_R   0.359440 0.415651 0.678501 -0.803047
O51   O     O_2   0.330391 0.398486 0.252970 -0.591453
O52   O     O_R   0.359438 0.415655 0.321499 -0.803046
O53   O     O_2   0.169698 0.898634 0.247033 -0.591466
O54   O     O_R   0.140638 0.915781 0.178504 -0.803023
O55   O     O_2   0.169694 0.898627 0.752967 -0.591460
O56   O     O_R   0.000000 0.392690 0.034780 -0.614704
O57   O     O_R   0.140633 0.915773 0.821496 -0.803026
O58   O     O_2   0.830394 0.898480 0.247031 -0.591451
O59   O     O_R   0.859441 0.915649 0.178501 -0.803048
O60   O     O_2   0.830390 0.898488 0.752970 -0.591453
O61   O     O_R   0.859437 0.915657 0.821499 -0.803046
O62   O     O_2   0.499927 0.695734 0.748238 -0.617036
O63   O     O_R   0.499921 0.663283 0.679500 -0.809595
O64   O     O_2   0.499929 0.695734 0.251762 -0.617039
O65   O     O_R   0.499926 0.663283 0.320500 -0.809594
O66   O     O_2   0.999924 0.195734 0.248238 -0.617036
O67   O     O_R   0.500000 0.892690 0.465220 -0.614704
O68   O     O_R   0.999919 0.163283 0.179500 -0.809595
O69   O     O_2   0.999931 0.195734 0.751762 -0.617039
O70   O     O_R   0.999928 0.163283 0.820500 -0.809594
O71   O     O_2   0.500090 0.301543 0.752728 -0.603235
O72   O     O_R   0.500074 0.335361 0.821244 -0.778017
O73   O     O_2   0.500086 0.301543 0.247273 -0.603236
O74   O     O_R   0.500070 0.335361 0.178757 -0.778017
O75   O     O_2   0.000092 0.801543 0.252728 -0.603235
O76   O     O_R   0.000076 0.835361 0.321244 -0.778017
O77   O     O_2   0.000083 0.801543 0.747273 -0.603236
O78   O     O_R   0.500000 0.892690 0.534780 -0.614704
O79   O     O_R   0.000069 0.835361 0.678757 -0.778017
O80   O     O_R   0.607290 0.560580 0.000000 -0.617968
Zn1   Zn    Zn3+2 0.500000 0.419100 0.000000 1.027219
Zn2   Zn    Zn3+2 0.000000 0.500000 0.046450 1.017135
Zn3   Zn    Zn3+2 0.500000 0.000000 0.453550 1.017135
Zn4   Zn    Zn3+2 0.500000 0.000000 0.546450 1.017135
Zn5   Zn    Zn3+2 0.000000 0.919100 0.500000 1.027219
Zn6   Zn    Zn3+2 0.500000 0.580900 0.000000 0.996341
Zn7   Zn    Zn3+2 0.000000 0.080900 0.500000 0.996341
Zn8   Zn    Zn3+2 0.580910 0.499830 0.500000 1.020541
Zn9   Zn    Zn3+2 0.419090 0.499830 0.500000 1.020535
Zn10  Zn    Zn3+2 0.080910 0.999830 0.000000 1.020541
Zn11  Zn    Zn3+2 0.919090 0.999830 0.000000 1.020535
Zn12  Zn    Zn3+2 0.000000 0.500000 0.953550 1.017135

loop_
_geom_bond_atom_site_label_1
_geom_bond_atom_site_label_2
_ccdc_geom_bond_type
C25   O2    A    
C66   C99   S    
C4    C66   S    
C21   C87   T    
O4    Zn7   S    
C76   C91   S    
O56   Zn2   S    
C70   C78   S    
C36   O23   A    
O36   Zn12  S    
C74   C94   S    
C30   C45   S    
C42   O36   A    
C34   O19   A    
C73   C93   S    
C5    C67   S    
C103  H47   S    
C104  N3    S    
C48   O10   A    
C47   O4    A    
C34   C85   S    
C25   O12   A    
C75   C95   S    
C90   C95   S    
C66   C90   S    
O78   Zn4   S    
C16   O77   D    
C38   O27   A    
C11   O70   S    
C65   C89   S    
O9    Zn6   S    
H33   O59   S    
C106  H13   S    
O23   Zn5   S    
C32   O17   A    
C13   C95   S    
C9    O64   D    
O29   Zn10  S    
C50   O8    A    
C110  O46   S    
C111  O47   D    
C65   C98   S    
C44   O41   A    
C63   C98   S    
C52   C61   S    
C49   O11   A    
C46   C79   S    
C8    O63   S    
O80   Zn6   S    
C58   C71   S    
C53   C56   T    
O34   Zn5   S    
C7    O60   D    
O11   Zn7   S    
H27   O46   S    
C4    O53   D    
C104  H3    S    
C44   O40   A    
C48   C81   S    
C42   O37   A    
C109  H25   S    
O26   Zn11  S    
O1    Zn1   S    
C89   C94   S    
O22   Zn10  S    
C24   C29   T    
C108  H19   S    
O37   Zn2   S    
O13   Zn7   S    
O32   Zn2   S    
O31   Zn12  S    
C104  H4    S    
C8    O62   D    
H18   N7    S    
O17   Zn11  S    
C12   O71   D    
C78   C96   S    
C3    O52   S    
O33   Zn3   S    
C20   C86   T    
C106  H11   S    
C68   C90   S    
C112  O49   D    
C79   C102  T    
C76   N6    S    
C33   O18   A    
C18   C97   S    
O67   Zn3   S    
C91   C100  S    
C41   O35   A    
C75   C80   S    
C107  H17   S    
C77   C80   S    
C72   C94   S    
C69   C98   S    
C40   C55   S    
C6    C68   S    
C39   O29   A    
C107  N6    S    
H44   N2    S    
C59   C60   T    
H38   O68   S    
C14   O74   S    
O27   Zn8   S    
C109  H24   S    
C67   C76   S    
C46   O9    A    
C63   C89   S    
C3    C65   S    
C58   C97   S    
C7    C70   S    
C19   C85   T    
C32   C54   S    
O30   Zn11  S    
C33   C84   S    
C19   C98   S    
C70   C100  S    
C50   C83   S    
O7    Zn5   S    
C62   C97   S    
C48   O6    A    
C101  H23   S    
H5    N4    S    
H42   O76   S    
C101  H34   S    
C10   O66   D    
C101  H12   S    
O2    Zn6   S    
C9    O65   S    
C106  N5    S    
C2    C94   S    
C111  O48   S    
C75   N5    S    
C36   O3    A    
C17   C96   S    
C15   O75   D    
C10   C80   S    
C103  H45   S    
O25   Zn11  S    
C40   O32   A    
O15   Zn9   S    
C43   O39   A    
C13   C82   T    
C77   C95   S    
H37   O65   S    
C65   C74   S    
C73   N3    S    
C47   O34   A    
C109  H26   S    
C17   C83   T    
O40   Zn3   S    
C49   C82   S    
O20   Zn9   S    
C69   C72   S    
H48   N3    S    
C14   C89   S    
O18   Zn8   S    
C109  N8    S    
H29   O50   S    
C14   O73   D    
O3    Zn7   S    
O12   Zn1   S    
C18   C84   T    
C62   C110  S    
C12   O72   S    
C51   O56   A    
C64   C73   S    
C12   C88   S    
C39   C59   S    
C6    O59   S    
C106  H10   S    
C46   O5    A    
C69   C74   S    
C105  H8    S    
H36   O63   S    
C45   O43   A    
C23   C28   T    
C31   C53   S    
C57   C61   T    
H30   O52   S    
C26   C47   S    
C5    O57   S    
C104  H2    S    
C39   O30   A    
C67   C100  S    
C64   C97   S    
C5    O55   D    
C108  N7    S    
C26   C30   T    
C35   O22   A    
H43   O79   S    
C22   C27   T    
C31   O14   A    
O43   Zn4   S    
H22   N8    S    
C105  H6    S    
C50   O13   A    
C77   N7    S    
C41   O33   A    
C80   C99   S    
O42   Zn3   S    
C49   O7    A    
C7    O61   S    
C16   O79   S    
C68   C77   S    
C21   C100  S    
H39   O70   S    
O38   Zn12  S    
C88   C93   S    
C103  N2    S    
C8    C58   S    
C71   N1    S    
C31   O15   A    
C15   O76   S    
C10   O68   S    
C37   C87   S    
C34   O21   A    
C41   C56   S    
C110  O44   D    
O24   Zn10  S    
H31   O54   S    
H14   N6    S    
C1    O80   A    
C52   O78   A    
C93   C102  S    
C107  H16   S    
C54   C55   T    
C103  H46   S    
C16   C92   S    
C71   C93   S    
C40   O31   A    
C105  N4    S    
C78   C91   S    
C11   O69   D    
H9    N5    S    
C28   C43   S    
C78   N8    S    
C45   O42   A    
C70   C92   S    
O6    Zn1   S    
O21   Zn9   S    
C24   C36   S    
O5    Zn1   S    
C37   O26   A    
C9    C69   S    
C101  N1    S    
O19   Zn8   S    
C68   C99   S    
C107  H15   S    
C108  H21   S    
O45   Zn12  S    
C112  O50   S    
C76   C96   S    
C15   C90   S    
C74   N4    S    
H35   O61   S    
C27   C42   S    
C51   O45   A    
C20   C99   S    
C62   C88   S    
H40   O72   S    
C4    O54   S    
C66   C75   S    
C6    O58   D    
C1    O1    A    
C67   C92   S    
C35   C86   S    
C38   O28   A    
C62   C71   S    
C92   C96   S    
C33   O20   A    
C29   C44   S    
C23   C25   S    
C63   C111  S    
O28   Zn9   S    
H32   O57   S    
O39   Zn2   S    
O16   Zn10  S    
C108  H20   S    
C64   C112  S    
C35   O25   A    
O41   Zn4   S    
H1    N1    S    
O35   Zn4   S    
C11   C91   S    
C1    C22   S    
C37   O24   A    
C63   C72   S    
C52   O67   A    
C3    O51   D    
H28   O48   S    
C64   C88   S    
C72   N2    S    
C105  H7    S    
C2    C81   T    
C51   C60   S    
C32   O16   A    
O10   Zn6   S    
H41   O74   S    
O14   Zn8   S    
C38   C57   S    
O8    Zn5   S    
C58   C73   S    
C43   O38   A    
