data_mof_unit_30310.cif
_audit_creation_date              2013-03-05T15:40:56-0500
_audit_creation_method            fapswitch 2.2
_symmetry_space_group_name_H-M    P1
_symmetry_Int_Tables_number       1
_space_group_crystal_system       triclinic
_cell_length_a                    27.769128
_cell_length_b                    18.857643
_cell_length_c                    16.761295
_cell_angle_alpha                 89.86608
_cell_angle_beta                  63.546902
_cell_angle_gamma                 89.869532
_cell_volume                      7858.2144185

loop_
_atom_site_label
_atom_site_type_symbol
_atom_site_description
_atom_site_fract_x
_atom_site_fract_y
_atom_site_fract_z
_atom_type_partial_charge
O1    O     O_R   0.255040 0.869590 0.478480 -0.516633
O2    O     O_R   0.744960 0.130410 0.521520 -0.529048
O3    O     O_R   0.744960 0.869590 0.521520 -0.536747
O4    O     O_R   0.255040 0.130410 0.478480 -0.525042
O5    O     O_R   0.755040 0.369590 0.478480 -0.520136
O6    O     O_R   0.244960 0.630410 0.521520 -0.531200
O7    O     O_R   0.244960 0.369590 0.521520 -0.526700
O8    O     O_R   0.755040 0.630410 0.478480 -0.540610
O9    O     O_R   0.182050 0.796550 0.624440 -0.535617
O10   O     O_R   0.817950 0.203450 0.375560 -0.504273
O11   O     O_R   0.817950 0.796550 0.375560 -0.532477
O12   O     O_R   0.182050 0.203450 0.624440 -0.535029
O13   O     O_R   0.682050 0.296550 0.624440 -0.509469
O14   O     O_R   0.317950 0.703450 0.375560 -0.543968
O15   O     O_R   0.317950 0.296550 0.375560 -0.526726
O16   O     O_R   0.682050 0.703450 0.624440 -0.513796
Cu1   Cu    Cu3+1 0.209920 0.785290 0.495070 1.284965
Cu2   Cu    Cu3+1 0.790080 0.214710 0.504930 1.264163
Cu3   Cu    Cu3+1 0.790080 0.785290 0.504930 1.275673
Cu4   Cu    Cu3+1 0.209920 0.214710 0.495070 1.278222
Cu5   Cu    Cu3+1 0.709920 0.285290 0.495070 1.278618
Cu6   Cu    Cu3+1 0.290080 0.714710 0.504930 1.269191
Cu7   Cu    Cu3+1 0.290080 0.285290 0.504930 1.277403
Cu8   Cu    Cu3+1 0.709920 0.714710 0.495070 1.251699
C1    C     C_R   0.296254 0.732030 0.328394 0.835856
C2    C     C_R   0.707665 0.277087 0.668890 0.849573
C3    C     C_R   0.706563 0.724428 0.669832 0.852018
C4    C     C_R   0.296161 0.268753 0.328299 0.854335
C5    C     C_R   0.796830 0.232680 0.328220 0.829847
C6    C     C_R   0.207187 0.774496 0.670201 0.830022
C7    C     C_R   0.209140 0.221214 0.668148 0.842142
C8    C     C_R   0.792781 0.776538 0.330816 0.836931
O17   O     O_R   0.250530 0.763330 0.367210 -0.496357
O18   O     O_R   0.749470 0.236670 0.632790 -0.549120
O19   O     O_R   0.749470 0.763330 0.632790 -0.536165
O20   O     O_R   0.250530 0.236670 0.367210 -0.491017
O21   O     O_R   0.750530 0.263330 0.367210 -0.546316
O22   O     O_R   0.249470 0.736670 0.632790 -0.494881
O23   O     O_R   0.249470 0.263330 0.632790 -0.530583
O24   O     O_R   0.750530 0.736670 0.367210 -0.548481
O25   O     O_R   0.177260 0.690030 0.513710 -0.538883
O26   O     O_R   0.822740 0.309970 0.486290 -0.502246
O27   O     O_R   0.822740 0.690030 0.486290 -0.505268
O28   O     O_R   0.177260 0.309970 0.513710 -0.538749
O29   O     O_R   0.677260 0.190030 0.513710 -0.534193
O30   O     O_R   0.322740 0.809970 0.486290 -0.532429
O31   O     O_R   0.322740 0.190030 0.486290 -0.499314
O32   O     O_R   0.677260 0.809970 0.513710 -0.502511
C9    C     C_R   0.200901 0.631153 0.512072 0.814696
C10   C     C_R   0.803371 0.368356 0.473071 0.870927
C11   C     C_R   0.800929 0.631113 0.483106 0.828917
C12   C     C_R   0.201208 0.368533 0.511011 0.838679
C13   C     C_R   0.696402 0.131924 0.528797 0.802750
C14   C     C_R   0.300136 0.869184 0.483717 0.841860
C15   C     C_R   0.303791 0.131931 0.471355 0.846102
C16   C     C_R   0.695821 0.867924 0.530667 0.843059
C17   C     C_R   0.071131 0.628312 0.435946 -0.259640
C18   C     C_R   0.976873 0.374610 0.404892 -0.248619
C19   C     C_R   0.964739 0.627934 0.459584 -0.272616
C20   C     C_R   0.077301 0.373266 0.412893 -0.246831
C21   C     C_R   0.542700 0.128936 0.526295 -0.265385
C22   C     C_R   0.426847 0.880230 0.568300 -0.251707
C23   C     C_R   0.460492 0.126235 0.471764 -0.255238
C24   C     C_R   0.524821 0.876219 0.582558 -0.253432
C25   C     C_R   0.045062 0.692792 0.438888 0.612509
C26   C     C_R   0.008432 0.312335 0.385097 0.600425
C27   C     C_R   0.991233 0.692561 0.455144 0.615659
C28   C     C_R   0.057822 0.311560 0.389570 0.585997
C29   C     C_R   0.525352 0.192225 0.502803 0.594565
C30   C     C_R   0.441656 0.819295 0.601074 0.591687
C31   C     C_R   0.486497 0.190378 0.471252 0.610058
C32   C     C_R   0.490497 0.816819 0.606571 0.594186
C33   C     C_R   0.992832 0.564161 0.444280 -0.073948
C34   C     C_R   0.047782 0.436303 0.426693 -0.080160
C35   C     C_R   0.044647 0.564102 0.439551 -0.074399
C36   C     C_R   0.997348 0.436825 0.424206 -0.079296
C37   C     C_R   0.475246 0.063866 0.501687 -0.080911
C38   C     C_R   0.508723 0.938274 0.553916 -0.078930
C39   C     C_R   0.519312 0.064371 0.521805 -0.074680
C40   C     C_R   0.460935 0.939410 0.543351 -0.077139
C41   C     C_R   0.445750 0.001286 0.512612 0.100090
C42   C     C_R   0.538218 0.000859 0.542223 0.099746
C43   C     C_R   0.968047 0.500318 0.439508 0.099128
C44   C     C_R   0.070029 0.499842 0.438680 0.098197
C45   C     C_R   0.367721 0.939946 0.515082 -0.110475
C46   C     C_R   0.611421 0.065753 0.551597 -0.114980
C47   C     C_R   0.608615 0.935676 0.561977 -0.090478
C48   C     C_R   0.384807 0.063956 0.466229 -0.091604
C49   C     C_R   0.891225 0.436452 0.438042 -0.091844
C50   C     C_R   0.139816 0.564420 0.460031 -0.107814
C51   C     C_R   0.140518 0.434645 0.457078 -0.102722
C52   C     C_R   0.884401 0.564475 0.472510 -0.103672
C53   C     C_R   0.326451 0.937083 0.486346 -0.183205
C54   C     C_R   0.663774 0.065593 0.547588 -0.184948
C55   C     C_R   0.662727 0.934728 0.551225 -0.174958
C56   C     C_R   0.335174 0.065064 0.460239 -0.161547
C57   C     C_R   0.834605 0.435400 0.461312 -0.170256
C58   C     C_R   0.177911 0.564509 0.495902 -0.188114
C59   C     C_R   0.178114 0.434661 0.494665 -0.177825
C60   C     C_R   0.830781 0.564561 0.480613 -0.164631
C61   C     C_R   0.310813 0.000246 0.458458 0.238390
C62   C     C_R   0.688119 0.000064 0.550133 0.248528
C63   C     C_R   0.805281 0.499708 0.483470 0.238752
C64   C     C_R   0.193202 0.499494 0.519163 0.269475
C65   C     C_R   0.399703 0.001492 0.496942 -0.073840
C66   C     C_R   0.586546 0.000593 0.551132 -0.069897
C67   C     C_R   0.914496 0.500427 0.449255 -0.074435
C68   C     C_R   0.116554 0.499499 0.452943 -0.065627
C69   C     C_R   0.574281 0.875419 0.587739 0.699592
C70   C     C_R   0.419451 0.123437 0.444824 0.719821
C71   C     C_R   0.378158 0.883902 0.561883 0.690499
C72   C     C_R   0.582167 0.128773 0.556210 0.697292
C73   C     C_R   0.125510 0.373741 0.422412 0.670742
C74   C     C_R   0.909704 0.625718 0.486798 0.714703
C75   C     C_R   0.925753 0.376221 0.405242 0.690766
C76   C     C_R   0.122287 0.626477 0.432630 0.670353
C77   C     C_R   0.203560 0.738436 0.971230 -0.037851
C78   C     C_R   0.794305 0.261295 0.034480 -0.040484
C79   C     C_R   0.777099 0.773986 0.048703 -0.031266
C80   C     C_R   0.248514 0.179724 0.930587 -0.037143
C81   C     C_R   0.732990 0.294750 0.943106 -0.034824
C82   C     C_R   0.259452 0.701803 0.070216 -0.035206
C83   C     C_R   0.305502 0.222551 0.026431 -0.038096
C84   C     C_R   0.718954 0.731030 0.955124 -0.032495
C85   C     C_R   0.247493 0.691184 0.936361 -0.012630
C86   C     C_R   0.744746 0.297138 0.078598 -0.011542
C87   C     C_R   0.720954 0.760744 0.095929 -0.004589
C88   C     C_R   0.298629 0.214283 0.885189 -0.004229
C89   C     C_R   0.787433 0.273735 0.894552 -0.005635
C90   C     C_R   0.216908 0.751580 0.104143 -0.014013
C91   C     C_R   0.263317 0.172729 0.064906 -0.017456
C92   C     C_R   0.775113 0.743774 0.908199 -0.016239
C93   C     C_R   0.269683 0.664594 0.991666 -0.019300
C94   C     C_R   0.710970 0.304773 0.036229 -0.035770
C95   C     C_R   0.691984 0.735938 0.049461 -0.032476
C96   C     C_R   0.326161 0.239440 0.934350 -0.031140
C97   C     C_R   0.816297 0.249171 0.941556 -0.030145
C98   C     C_R   0.183787 0.760747 0.060399 -0.035074
C99   C     C_R   0.232745 0.153660 0.018366 -0.023415
C100  C     C_R   0.803913 0.769010 0.954398 -0.030294
C101  C     C_R   0.134030 0.808568 0.954587 -0.047140
C102  C     C_R   0.867584 0.194315 0.044018 -0.040408
C103  C     C_R   0.860289 0.816882 0.050625 -0.049906
C104  C     C_R   0.165992 0.132031 0.929530 -0.042594
C105  C     C_R   0.646590 0.328308 0.946230 -0.049307
C106  C     C_R   0.334948 0.639952 0.078837 -0.040265
C107  C     C_R   0.370497 0.303210 0.042454 -0.049964
C108  C     C_R   0.636512 0.686916 0.951837 -0.050220
C109  C     C_R   0.116294 0.846798 0.898740 -0.173370
C110  C     C_R   0.888592 0.160052 0.098120 -0.181874
C111  C     C_R   0.886686 0.843462 0.099949 -0.171828
C112  C     C_R   0.128981 0.131147 0.890664 -0.157573
C113  C     C_R   0.616649 0.347432 0.899225 -0.169847
C114  C     C_R   0.374124 0.637467 0.112078 -0.167868
C115  C     C_R   0.385931 0.344178 0.099319 -0.167096
C116  C     C_R   0.611187 0.658867 0.901534 -0.174034
C117  C     C_R   0.144217 0.838515 0.805480 0.238353
C118  C     C_R   0.867504 0.178413 0.189292 0.239157
C119  C     C_R   0.866881 0.823691 0.189786 0.253750
C120  C     C_R   0.142268 0.167528 0.810226 0.263509
C121  C     C_R   0.635017 0.324576 0.810843 0.253311
C122  C     C_R   0.365049 0.677378 0.188940 0.261454
C123  C     C_R   0.358058 0.334701 0.192417 0.251420
C124  C     C_R   0.631325 0.678375 0.811362 0.252850
C125  C     C_R   0.187384 0.790468 0.766958 -0.177733
C126  C     C_R   0.823604 0.225701 0.228904 -0.181741
C127  C     C_R   0.813508 0.798543 0.236322 -0.195647
C128  C     C_R   0.194892 0.192815 0.759244 -0.194327
C129  C     C_R   0.688778 0.301160 0.762191 -0.191293
C130  C     C_R   0.318146 0.718575 0.231131 -0.162388
C131  C     C_R   0.322030 0.277705 0.229120 -0.175841
C132  C     C_R   0.684567 0.704001 0.765469 -0.185705
C133  C     C_R   0.209488 0.758544 0.821822 -0.100573
C134  C     C_R   0.802519 0.258775 0.174478 -0.091310
C135  C     C_R   0.781134 0.794415 0.190418 -0.081379
C136  C     C_R   0.232594 0.190617 0.796759 -0.072997
C137  C     C_R   0.723515 0.301069 0.804356 -0.078833
C138  C     C_R   0.287229 0.734444 0.184720 -0.091194
C139  C     C_R   0.308461 0.235186 0.171230 -0.083645
C140  C     C_R   0.715858 0.709398 0.812978 -0.099749
C141  C     C_R   0.181708 0.767473 0.915663 -0.004277
C142  C     C_R   0.821511 0.237742 0.084486 -0.003717
C143  C     C_R   0.806403 0.794195 0.096434 -0.010686
C144  C     C_R   0.214995 0.169076 0.886442 -0.003790
C145  C     C_R   0.700842 0.307339 0.897975 -0.006082
C146  C     C_R   0.293712 0.691764 0.111756 -0.011438
C147  C     C_R   0.327746 0.254408 0.080326 -0.004555
C148  C     C_R   0.690052 0.710511 0.906861 -0.008648
C149  C     C_R   0.106914 0.811496 0.048823 -0.199911
C150  C     C_R   0.891354 0.188163 0.950343 -0.179645
C151  C     C_R   0.885679 0.813608 0.957467 -0.188145
C152  C     C_R   0.157198 0.095785 0.008760 -0.198453
C153  C     C_R   0.623922 0.328683 0.039852 -0.186042
C154  C     C_R   0.335053 0.592321 0.013982 -0.194590
C155  C     C_R   0.396055 0.308690 0.948749 -0.175565
C156  C     C_R   0.610706 0.690086 0.045025 -0.172047
C157  C     C_R   0.132823 0.792713 0.100442 0.603043
C158  C     C_R   0.865944 0.212850 0.900352 0.591406
C159  C     C_R   0.858165 0.792188 0.909941 0.589321
C160  C     C_R   0.186810 0.109817 0.055158 0.598627
C161  C     C_R   0.655408 0.318567 0.084254 0.591394
C162  C     C_R   0.304341 0.605589 0.968863 0.597710
C163  C     C_R   0.373110 0.281674 0.896501 0.612505
C164  C     C_R   0.637671 0.712525 0.093265 0.589448
C165  C     C_R   0.259260 0.720435 0.788742 0.656646
C166  C     C_R   0.764062 0.314186 0.204649 0.620353
C167  C     C_R   0.724583 0.793829 0.234043 0.598599
C168  C     C_R   0.288245 0.204573 0.748042 0.589878
C169  C     C_R   0.780166 0.297009 0.757159 0.599349
C170  C     C_R   0.250418 0.791797 0.207706 0.670570
C171  C     C_R   0.278063 0.172297 0.198497 0.640873
C172  C     C_R   0.772084 0.708202 0.770794 0.634456
C173  C     C_R   0.274215 0.682202 0.844629 -0.144978
C174  C     C_R   0.732892 0.328804 0.160802 -0.154438
C175  C     C_R   0.695314 0.778267 0.187286 -0.170291
C176  C     C_R   0.319805 0.218567 0.791703 -0.161616
C177  C     C_R   0.811138 0.281556 0.801372 -0.161502
C178  C     C_R   0.213878 0.797404 0.171940 -0.124471
C179  C     C_R   0.255173 0.142792 0.147238 -0.130728
C180  C     C_R   0.801141 0.724413 0.817529 -0.155291
H1    H     H_    0.065771 0.828844 0.084611 0.224450
H2    H     H_    0.930868 0.166158 0.912485 0.222799
H3    H     H_    0.927852 0.825938 0.919491 0.202581
H4    H     H_    0.128153 0.054485 0.038160 0.213420
H5    H     H_    0.581047 0.333599 0.080425 0.209159
H6    H     H_    0.358332 0.544022 0.997272 0.196677
H7    H     H_    0.434466 0.333704 0.912283 0.228056
H8    H     H_    0.568685 0.676532 0.082309 0.213964
H9    H     H_    0.312751 0.655497 0.814174 0.246956
H10   H     H_    0.702262 0.369379 0.188168 0.230809
H11   H     H_    0.652404 0.784258 0.223797 0.243603
H12   H     H_    0.361868 0.227373 0.749502 0.247654
H13   H     H_    0.854159 0.280741 0.761611 0.239758
H14   H     H_    0.186965 0.842528 0.191345 0.234551
H15   H     H_    0.233836 0.093942 0.172001 0.259194
H16   H     H_    0.844004 0.716853 0.782202 0.247766
O33   O     O_R   0.051640 0.926880 0.885090 -0.518407
O34   O     O_R   0.948360 0.073120 0.114910 -0.501546
O35   O     O_R   0.948360 0.926880 0.114910 -0.506774
O36   O     O_R   0.051640 0.073120 0.885090 -0.510919
O37   O     O_R   0.551640 0.426880 0.885090 -0.512020
O38   O     O_R   0.448360 0.573120 0.114910 -0.516009
O39   O     O_R   0.448360 0.426880 0.114910 -0.515057
O40   O     O_R   0.551640 0.573120 0.885090 -0.506470
Cu9   Cu    Cu3+1 0.495240 0.500000 0.924150 1.171323
Cu10  Cu    Cu3+1 0.504760 0.500000 0.075850 1.147168
Cu11  Cu    Cu3+1 0.995240 0.000000 0.924150 1.148800
Cu12  Cu    Cu3+1 0.004760 0.000000 0.075850 1.169305
C181  C     C_R   0.929069 0.899196 0.063994 0.790892
C182  C     C_R   0.077104 0.091756 0.931453 0.818795
C183  C     C_R   0.072853 0.901380 0.934655 0.768214
C184  C     C_R   0.928696 0.100648 0.064144 0.807693
C185  C     C_R   0.427380 0.401209 0.065113 0.782201
C186  C     C_R   0.570193 0.601484 0.936569 0.803756
C187  C     C_R   0.571994 0.400252 0.935492 0.794261
C188  C     C_R   0.423400 0.592820 0.069128 0.802820
O41   O     O_R   0.940620 0.926560 0.986760 -0.597695
O42   O     O_R   0.059380 0.073440 0.013240 -0.603076
O43   O     O_R   0.059380 0.926560 0.013240 -0.613830
O44   O     O_R   0.940620 0.073440 0.986760 -0.598536
O45   O     O_R   0.440620 0.426560 0.986760 -0.613181
O46   O     O_R   0.559380 0.573440 0.013240 -0.596689
O47   O     O_R   0.559380 0.426560 0.013240 -0.604020
O48   O     O_R   0.440620 0.573440 0.986760 -0.588873
F1    F     F_    0.503924 0.755859 0.635142 -0.512788
F2    F     F_    0.472100 0.252090 0.445750 -0.516281
F3    F     F_    0.410207 0.760523 0.624085 -0.514248
F4    F     F_    0.548226 0.255280 0.505175 -0.526073
F5    F     F_    0.085433 0.249508 0.373884 -0.526649
F6    F     F_    0.965336 0.755525 0.464920 -0.519281
F7    F     F_    0.990731 0.250997 0.365057 -0.510084
F8    F     F_    0.069597 0.755819 0.435031 -0.521902
N1    N     N_R   0.271597 0.998697 0.424521 0.162837
O49   O     O_R   0.287306 0.999192 0.338933 -0.236558
O50   O     O_R   0.220389 0.999112 0.478728 -0.239813
N2    N     N_R   0.738962 0.999878 0.553193 0.148135
O51   O     O_R   0.783702 0.000198 0.479685 -0.265596
O52   O     O_R   0.740426 0.997812 0.629662 -0.313738
N3    N     N_R   0.747756 0.498954 0.517018 0.144694
O53   O     O_R   0.717152 0.505614 0.602119 -0.314356
O54   O     O_R   0.726205 0.498802 0.462069 -0.258428
N4    N     N_R   0.221148 0.499312 0.573630 0.135005
O55   O     O_R   0.193948 0.499800 0.659979 -0.337305
O56   O     O_R   0.273516 0.499765 0.537235 -0.252395
F9    F     F_    0.585062 0.819895 0.629006 -0.575832
F10   F     F_    0.417329 0.175232 0.389935 -0.588340
F11   F     F_    0.338220 0.839003 0.612429 -0.575088
F12   F     F_    0.584102 0.185687 0.604353 -0.561192
F13   F     F_    0.160239 0.318989 0.386729 -0.601839
F14   F     F_    0.881694 0.676214 0.546714 -0.538224
F15   F     F_    0.912458 0.321908 0.365898 -0.586692
F16   F     F_    0.156213 0.681181 0.392208 -0.609288
N5    N     N_R   0.132080 0.884444 0.748212 0.147508
O57   O     O_R   0.162288 0.939347 0.711767 -0.328560
O58   O     O_R   0.093654 0.868312 0.726995 -0.277190
N6    N     N_R   0.890991 0.148461 0.242653 0.155677
O59   O     O_R   0.873022 0.088760 0.284615 -0.279206
O60   O     O_R   0.930335 0.181002 0.249236 -0.211769
N7    N     N_R   0.901809 0.827798 0.232173 0.147075
O61   O     O_R   0.897756 0.880855 0.284434 -0.238893
O62   O     O_R   0.943574 0.786327 0.205601 -0.343172
N8    N     N_R   0.101072 0.182166 0.782658 0.132167
O63   O     O_R   0.092963 0.138964 0.729353 -0.259651
O64   O     O_R   0.067498 0.233969 0.819629 -0.343283
N9    N     N_R   0.597968 0.322906 0.772371 0.155824
O65   O     O_R   0.598262 0.373569 0.719209 -0.230554
O66   O     O_R   0.557851 0.278714 0.803588 -0.312603
N10   N     N_R   0.404206 0.678746 0.223081 0.137259
O67   O     O_R   0.405989 0.627535 0.273968 -0.256971
O68   O     O_R   0.430692 0.736882 0.217293 -0.334946
N11   N     N_R   0.362571 0.387537 0.250490 0.138747
O69   O     O_R   0.331391 0.442999 0.272019 -0.352670
O70   O     O_R   0.398365 0.380957 0.280399 -0.241852
N12   N     N_R   0.597086 0.672816 0.767858 0.165645
O71   O     O_R   0.602259 0.619364 0.715548 -0.233870
O72   O     O_R   0.554665 0.713008 0.793875 -0.259563
F17   F     F_    0.106153 0.801358 0.190137 -0.603423
F18   F     F_    0.889174 0.195413 0.812741 -0.639083
F19   F     F_    0.884657 0.800753 0.820344 -0.635245
F20   F     F_    0.167623 0.080756 0.137542 -0.630467
F21   F     F_    0.629950 0.316336 0.174670 -0.628048
F22   F     F_    0.306793 0.558504 0.905969 -0.631138
F23   F     F_    0.396945 0.301306 0.809665 -0.624137
F24   F     F_    0.610592 0.704487 0.182829 -0.642323
F25   F     F_    0.300519 0.730085 0.707304 -0.531320
F26   F     F_    0.760541 0.360204 0.269172 -0.622031
F27   F     F_    0.696879 0.816623 0.319373 -0.657184
F28   F     F_    0.314692 0.195736 0.658574 -0.658411
F29   F     F_    0.806773 0.315293 0.669893 -0.656409
F30   F     F_    0.253770 0.847712 0.255910 -0.597639
F31   F     F_    0.274594 0.134289 0.269602 -0.604336
F32   F     F_    0.798948 0.680992 0.688094 -0.603298

loop_
_geom_bond_atom_site_label_1
_geom_bond_atom_site_label_2
_geom_bond_distance
_ccdc_geom_bond_type
C104  C144  1.409869 A    
O35   C181  1.303253 A    
Cu2   Cu5   2.658383 S    
C135  C167  1.406370 A    
C61   N1    1.436126 S    
C156  H8    1.080926 S    
C87   C175  1.410983 A    
C118  C126  1.413807 A    
N4    O55   1.300528 A    
C130  C138  1.422869 A    
O37   Cu9   1.965626 S    
C82   C90   1.413901 A    
C155  C163  1.390364 A    
C185  O45   1.286911 A    
Cu6   O22   1.971021 S    
C153  C161  1.390334 A    
O40   Cu9   1.968479 S    
C22   C30   1.409773 A    
C85   C173  1.388367 A    
C116  C186  1.489547 S    
O3    Cu3   1.963905 S    
C50   C76   1.418252 A    
C156  C164  1.391387 A    
C107  C115  1.434540 A    
C19   C33   1.392667 A    
C55   C62   1.417009 A    
O34   C184  1.304731 A    
C166  C174  1.389254 A    
C103  C111  1.419719 A    
O40   C186  1.302122 A    
Cu9   Cu10  2.670961 S    
C33   C35   1.405347 A    
C90   C178  1.401490 A    
C36   C43   1.404458 A    
O25   C9    1.282672 A    
Cu11  O41   1.975967 S    
C17   C76   1.397052 A    
N8    O64   1.300566 A    
C37   C39   1.406722 A    
C126  C134  1.426738 A    
C177  H13   1.078051 S    
C172  C180  1.386913 A    
C3    O19   1.298495 A    
N12   O71   1.302554 A    
C113  C121  1.403318 A    
O35   Cu12  1.968479 S    
C5    C126  1.496367 S    
Cu12  O43   1.974565 S    
C38   C42   1.400874 A    
C106  C114  1.426824 A    
O12   Cu4   1.962013 S    
O13   Cu5   1.962728 S    
C57   C63   1.414164 A    
N6    O59   1.302797 A    
C102  C142  1.411496 A    
C23   C31   1.408205 A    
C188  O48   1.296783 A    
C90   C98   1.418773 A    
C151  H3    1.080322 S    
C8    O24   1.295427 A    
C173  H9    1.082301 S    
C184  O44   1.294195 A    
C135  C143  1.410377 A    
C149  C157  1.394143 A    
C136  C144  1.416694 A    
C84   C95   1.419501 A    
C2    O18   1.291129 A    
C50   C58   1.430796 A    
O2    C13   1.298933 A    
C110  C184  1.500561 S    
C108  C148  1.406992 A    
O39   C185  1.306460 A    
C155  H7    1.074221 S    
C169  C177  1.392680 A    
C136  C168  1.414521 A    
C153  H5    1.080286 S    
Cu3   O19   1.969995 S    
C154  H6    1.078484 S    
O10   Cu2   1.962728 S    
C119  C127  1.414721 A    
C101  C141  1.416776 A    
C152  C160  1.386624 A    
C138  C146  1.408404 A    
O5    Cu5   1.967470 S    
C86   C94   1.413183 A    
C134  C166  1.415725 A    
C103  C151  1.399441 A    
C73   F13   1.355835 S    
C33   C43   1.408124 A    
O33   Cu11  1.965626 S    
O6    Cu6   1.967468 S    
C16   C55   1.504960 S    
C49   C75   1.428277 A    
Cu9   O45   1.975967 S    
C134  C142  1.415559 A    
C112  C182  1.489795 S    
C18   C36   1.404760 A    
C6    O22   1.273967 A    
C34   C36   1.419575 A    
C79   C100  1.418984 A    
C22   C40   1.402249 A    
O7    C12   1.303214 A    
Cu2   O26   1.974706 S    
C38   C40   1.414924 A    
C35   C44   1.397300 A    
C82   C146  1.419328 A    
C138  C170  1.417446 A    
C140  C172  1.398052 A    
C4    C131  1.497766 S    
C19   C27   1.409598 A    
C27   F6    1.358636 S    
C45   C53   1.428470 A    
C22   C71   1.404809 A    
N9    O66   1.300841 A    
C47   C55   1.431550 A    
O36   Cu11  1.968479 S    
C140  C148  1.409114 A    
C64   N4    1.437656 S    
C172  F32   1.349643 S    
O16   C3    1.289476 A    
N3    O54   1.302869 A    
C113  C187  1.491632 S    
O29   C13   1.289563 A    
C131  C139  1.434285 A    
C46   C66   1.412710 A    
C119  N7    1.437386 S    
C129  C137  1.427352 A    
Cu4   O28   1.972276 S    
N10   O68   1.300707 A    
Cu5   O29   1.974706 S    
C41   C65   1.415330 A    
C74   F14   1.351089 S    
Cu7   O31   1.972276 S    
Cu8   O32   1.972276 S    
C179  H15   1.074032 S    
C117  C125  1.408170 A    
C84   C148  1.424635 A    
C99   C160  1.411564 A    
C115  C123  1.410417 A    
C165  F25   1.347396 S    
C76   F16   1.357649 S    
C105  C145  1.411861 A    
C92   C180  1.410009 A    
C111  C119  1.403347 A    
N5    O57   1.301237 A    
C161  F21   1.357784 S    
Cu2   O18   1.971021 S    
Cu4   Cu7   2.663839 S    
O39   Cu10  1.968479 S    
C17   C25   1.403366 A    
C89   C97   1.427223 A    
C79   C143  1.424898 A    
C97   C158  1.412931 A    
C80   C144  1.438499 A    
C20   C28   1.411669 A    
O9    C6    1.312523 A    
O26   C10   1.285679 A    
Cu12  O42   1.975967 S    
C88   C176  1.409380 A    
O11   C8    1.289530 A    
C31   F2    1.358177 S    
N11   O70   1.302999 A    
O12   C7    1.306946 A    
O14   Cu6   1.962728 S    
O13   C2    1.290512 A    
C124  C132  1.414010 A    
C106  C154  1.410738 A    
C94   C161  1.410263 A    
C127  C135  1.422366 A    
C11   C60   1.492874 S    
C128  C136  1.442002 A    
C81   C89   1.416898 A    
C13   C54   1.494586 S    
C24   C38   1.409217 A    
C114  C122  1.415678 A    
C6    C125  1.493395 S    
C34   C44   1.404568 A    
C15   C56   1.495201 S    
C39   C42   1.408015 A    
C171  C179  1.393625 A    
O1    Cu1   1.967470 S    
C17   C35   1.405276 A    
C50   C68   1.415227 A    
C28   F5    1.357941 S    
C104  C112  1.441380 A    
C48   C65   1.417139 A    
C24   C69   1.414330 A    
C21   C39   1.399088 A    
O7    Cu7   1.963905 S    
N6    O60   1.301207 A    
O8    Cu8   1.963907 S    
C42   C66   1.414899 A    
C91   C99   1.432223 A    
C133  C141  1.420242 A    
C98   C157  1.403025 A    
N2    O51   1.303013 A    
C186  O46   1.294247 A    
C171  F31   1.355524 S    
C157  F17   1.357899 S    
C159  F19   1.355614 S    
C21   C72   1.393594 A    
C120  N8    1.437838 S    
C3    C132  1.488932 S    
C160  F20   1.354001 S    
C96   C163  1.414910 A    
C1    O17   1.283059 A    
C79   C87   1.421624 A    
C1    C130  1.486590 S    
C48   C56   1.425934 A    
O36   C182  1.311267 A    
C77   C98   1.408204 A    
Cu11  O44   1.974562 S    
C114  C188  1.489775 S    
C120  C128  1.407758 A    
O11   Cu3   1.962013 S    
O38   Cu10  1.965623 S    
C87   C95   1.426289 A    
C88   C96   1.432959 A    
C139  C147  1.418130 A    
N12   O72   1.300812 A    
C102  C150  1.411239 A    
C137  C145  1.411752 A    
C117  N5    1.438107 S    
C25   F8    1.358330 S    
C14   C53   1.486134 S    
C89   C177  1.406316 A    
C26   F7    1.357896 S    
C86   C174  1.400813 A    
C183  O43   1.289763 A    
C52   C74   1.428207 A    
C25   C27   1.394919 A    
N3    O53   1.301152 A    
O37   C187  1.306687 A    
C81   C94   1.412953 A    
C123  C131  1.409973 A    
C105  C153  1.406677 A    
Cu10  O46   1.975967 S    
C48   C70   1.417004 A    
C132  C140  1.420145 A    
C78   C142  1.425267 A    
C59   C64   1.413102 A    
C165  C173  1.382677 A    
C56   C61   1.405155 A    
Cu1   O17   1.971020 S    
Cu3   O27   1.972276 S    
C124  N12   1.437058 S    
C167  F27   1.357670 S    
C121  N9    1.437540 S    
C101  C149  1.416156 A    
C152  H4    1.070923 S    
C169  F29   1.356547 S    
C104  C152  1.413507 A    
C107  C147  1.410694 A    
C60   C63   1.404560 A    
C103  C143  1.410490 A    
N7    O61   1.302595 A    
C122  C130  1.406176 A    
C37   C41   1.402453 A    
C58   C64   1.406539 A    
O30   C14   1.289737 A    
C167  C175  1.389454 A    
Cu6   O30   1.974706 S    
O4    C15   1.305344 A    
C75   F15   1.357213 S    
O5    C10   1.304416 A    
C53   C61   1.414822 A    
C174  H10   1.081839 S    
C150  C158  1.392888 A    
C93   C162  1.407060 A    
Cu8   O24   1.969994 S    
C110  C118  1.415059 A    
C83   C91   1.414207 A    
N4    O56   1.302552 A    
C51   C68   1.407247 A    
C106  C146  1.415901 A    
C181  O41   1.293338 A    
C45   C71   1.419013 A    
C80   C88   1.413772 A    
C95   C164  1.422561 A    
C47   C69   1.422150 A    
C92   C100  1.421579 A    
Cu1   Cu6   2.658383 S    
C102  C110  1.430703 A    
C150  H2    1.075949 S    
Cu3   Cu8   2.663839 S    
C118  N6    1.435289 S    
O10   C5    1.299412 A    
O27   C11   1.279137 A    
O15   C4    1.303382 A    
C19   C74   1.387302 A    
C32   F1    1.358083 S    
C44   C68   1.414719 A    
C77   C141  1.426591 A    
O14   C1    1.303583 A    
Cu4   O20   1.969994 S    
Cu5   O21   1.971020 S    
C7    C128  1.494543 S    
C4    O20   1.289336 A    
N9    O65   1.302459 A    
C8    C127  1.482510 S    
C5    O21   1.289966 A    
C71   F11   1.352188 S    
C133  C165  1.431346 A    
C108  C116  1.420298 A    
C109  C117  1.410620 A    
C109  C183  1.492409 S    
C26   C28   1.406566 A    
N11   O69   1.301171 A    
C112  C120  1.406482 A    
O2    Cu2   1.967468 S    
O38   C188  1.295620 A    
C122  N10   1.437025 S    
C63   N3    1.438039 S    
C29   F4    1.358335 S    
C101  C109  1.429858 A    
C30   F3    1.357236 S    
C111  C181  1.491214 S    
C84   C92   1.420017 A    
C175  H11   1.075716 S    
C100  C159  1.420315 A    
C151  C159  1.388035 A    
C149  H1    1.077400 S    
C125  C133  1.443423 A    
C168  F28   1.354750 S    
C139  C171  1.409312 A    
C158  F18   1.355723 S    
C91   C179  1.411775 A    
C137  C169  1.413309 A    
C29   C31   1.397754 A    
C46   C54   1.425138 A    
N1    O50   1.302532 A    
C9    C58   1.489923 S    
C108  C156  1.399937 A    
C2    C129  1.482650 S    
C43   C67   1.421831 A    
C70   F10   1.359312 S    
C107  C155  1.409850 A    
C78   C97   1.415879 A    
C164  F24   1.354921 S    
C69   F9    1.357949 S    
O15   Cu7   1.962013 S    
O16   Cu8   1.962013 S    
C49   C67   1.421687 A    
C20   C73   1.417061 A    
C45   C65   1.410920 A    
C18   C26   1.412553 A    
C121  C129  1.415191 A    
C178  H14   1.081766 S    
C166  F26   1.357228 S    
C51   C73   1.432276 A    
C49   C57   1.441641 A    
C46   C72   1.420682 A    
O1    C14   1.293772 A    
C162  F22   1.358119 S    
C82   C93   1.405939 A    
O3    C16   1.303930 A    
C52   C67   1.420027 A    
C85   C93   1.412701 A    
N1    O49   1.300299 A    
C80   C99   1.421851 A    
N7    O62   1.300882 A    
O8    C11   1.310784 A    
O9    Cu1   1.962728 S    
N2    O52   1.300820 A    
C18   C75   1.417194 A    
O34   Cu12  1.965623 S    
N10   O67   1.302341 A    
C52   C60   1.433629 A    
O31   C15   1.288853 A    
C23   C37   1.407406 A    
C21   C29   1.405592 A    
O32   C16   1.294369 A    
N8    O63   1.302360 A    
C10   C57   1.497016 S    
C180  H16   1.076732 S    
C187  O47   1.289409 A    
C40   C41   1.411845 A    
Cu11  Cu12  2.670961 S    
O4    Cu4   1.963907 S    
C78   C86   1.410343 A    
C12   C59   1.480775 S    
C170  C178  1.393317 A    
C83   C96   1.422070 A    
C51   C59   1.439728 A    
C23   C70   1.401573 A    
C105  C113  1.422315 A    
N5    O58   1.302956 A    
C115  C185  1.491631 S    
O28   C12   1.280701 A    
C47   C66   1.414939 A    
C77   C85   1.409311 A    
Cu7   O23   1.969995 S    
C20   C34   1.402304 A    
C176  H12   1.075392 S    
C7    O23   1.283271 A    
C24   C32   1.409318 A    
O6    C9    1.301802 A    
C83   C147  1.435225 A    
Cu1   O25   1.974706 S    
C81   C145  1.423168 A    
C116  C124  1.406313 A    
C154  C162  1.390899 A    
C168  C176  1.395206 A    
C170  F30   1.358213 S    
O33   C183  1.304312 A    
C30   C32   1.400427 A    
C72   F12   1.359730 S    
C62   N2    1.435449 S    
Cu9   O48   1.974562 S    
C123  N11   1.438644 S    
C182  O42   1.279922 A    
Cu10  O47   1.974565 S    
C54   C62   1.416848 A    
C163  F23   1.354210 S    
