data_mof_unit_59615.cif
_audit_creation_date              2012-12-10T19:08:04-0500
_audit_creation_method            fapswitch 2.2
_symmetry_space_group_name_H-M    P1
_symmetry_Int_Tables_number       1
_space_group_crystal_system       triclinic
_cell_length_a                    9.077755
_cell_length_b                    10.828208
_cell_length_c                    9.561301
_cell_angle_alpha                 90.173558
_cell_angle_beta                  89.996609
_cell_angle_gamma                 90.085698
_cell_volume                      939.830550945

loop_
_atom_site_label
_atom_site_type_symbol
_atom_type_description
_atom_site_fract_x
_atom_site_fract_y
_atom_site_fract_z
_atom_type_partial_charge
C1    C     C_R   0.497081 0.262387 0.499754 0.809420
C2    C     C_R   0.470294 0.935238 0.372387 -0.171760
C3    C     C_R   0.482625 0.870860 0.499473 -0.165796
C4    C     C_R   0.473033 0.937010 0.624699 0.018850
C5    C     C_3   0.566978 0.931813 0.752821 0.418585
C6    C     C_3   0.566699 0.072098 0.752267 0.445455
C7    C     C_R   0.628393 0.513204 0.073642 0.266455
C8    C     C_R   0.375263 0.474980 0.074075 -0.044347
C9    C     C_R   0.375239 0.475061 0.925693 0.009244
C10   C     C_R   0.628562 0.512598 0.926466 0.273090
C11   C     C_3   0.733318 0.618583 0.920796 -0.484879
C12   C     C_R   0.220716 0.500014 0.499982 0.850134
C13   C     C_3   0.732122 0.619935 0.079634 -0.477429
C14   C     C_R   0.497412 0.737693 0.500060 0.807963
C15   C     C_R   0.779270 0.500115 0.500023 0.834410
C16   C     C_1   0.065546 0.500108 0.499998 -0.183122
C17   C     C_1   0.934427 0.500149 0.500021 -0.189657
C18   C     C_R   0.472846 0.064257 0.624324 0.004387
C19   C     C_R   0.481996 0.129339 0.498916 -0.167590
C20   C     C_R   0.469922 0.063996 0.372114 -0.165598
Cu1   Cu    Cu3+1 0.499990 0.499980 0.640670 0.992856
Cu2   Cu    Cu3+1 0.500010 0.500020 0.359330 0.961277
H1    H     H_    0.467803 0.111609 0.272671 0.201522
H2    H     H_    0.683539 0.702069 0.873648 0.251359
H3    H     H_    0.840019 0.594230 0.126085 0.198840
H4    H     H_    0.680672 0.704227 0.124860 0.231164
H5    H     H_    0.468397 0.886900 0.273048 0.197917
H6    H     H_    0.677077 0.889920 0.734658 -0.012677
H7    H     H_    0.676462 0.114759 0.733795 0.007503
H8    H     H_    0.273515 0.455839 0.128399 0.144402
H9    H     H_    0.273466 0.456030 0.871247 0.142110
H10   H     H_    0.841661 0.591504 0.876116 0.195958
N1    N     N_R   0.500920 0.500930 0.147930 -0.191152
N2    N     N_R   0.500930 0.500890 0.852020 -0.181174
O1    O     O_R   0.500000 0.319640 0.618810 -0.552895
O2    O     O_R   0.500020 0.319680 0.381230 -0.580924
O3    O     O_R   0.288380 0.499980 0.618770 -0.585541
O4    O     O_R   0.288400 0.500020 0.381190 -0.589727
O5    O     O_R   0.499980 0.680320 0.618770 -0.555827
O6    O     O_R   0.500000 0.680360 0.381190 -0.585227
O7    O     O_R   0.711600 0.499980 0.618810 -0.587320
O8    O     O_R   0.711620 0.500020 0.381230 -0.581458
F1    F     F_    0.490554 0.882592 0.865006 -0.608482
F2    F     F_    0.490158 0.122588 0.863880 -0.600317

loop_
_geom_bond_atom_site_label_1
_geom_bond_atom_site_label_2
_ccdc_geom_bond_type
C7    C10   A    
C2    H5    S    
Cu1   O1    S    
C5    H6    S    
C11   C13   S    
C15   O8    A    
C19   C20   A    
Cu1   O5    S    
C20   H1    S    
C4    C18   A    
C2    C3    A    
C5    F1    S    
C8    H8    S    
C10   N2    A    
C6    F2    S    
Cu1   Cu2   S    
C7    N1    A    
C13   H3    S    
Cu2   O8    S    
C3    C14   S    
Cu1   O7    S    
C5    C6    S    
C11   H10   S    
C8    N1    A    
C12   O4    A    
C9    N2    A    
C6    C18   S    
C13   H4    S    
C1    C19   S    
C16   C17   T    
C10   C11   S    
C9    H9    S    
C2    C20   A    
C3    C4    A    
Cu2   O4    S    
C11   H2    S    
C7    C13   S    
C6    H7    S    
Cu1   O3    S    
C15   O7    A    
C18   C19   A    
C12   O3    A    
C15   C17   S    
Cu2   N1    S    
Cu2   O6    S    
C8    C9    A    
Cu1   N2    S    
C1    O1    A    
C14   O5    A    
C14   O6    A    
Cu2   O2    S    
C12   C16   S    
C1    O2    A    
C4    C5    S    
