data_mof_unit_28109.cif
_audit_creation_date              2012-12-10T18:04:02-0500
_audit_creation_method            fapswitch 2.2
_symmetry_space_group_name_H-M    P1
_symmetry_Int_Tables_number       1
_space_group_crystal_system       triclinic
_cell_length_a                    10.876699
_cell_length_b                    9.570831
_cell_length_c                    10.840175
_cell_angle_alpha                 89.951009
_cell_angle_beta                  91.909137
_cell_angle_gamma                 89.650585
_cell_volume                      1127.80390704

loop_
_atom_site_label
_atom_site_type_symbol
_atom_type_description
_atom_site_fract_x
_atom_site_fract_y
_atom_site_fract_z
_atom_type_partial_charge
C1    C     C_R   0.262201 0.501223 0.504167 0.799442
C2    C     C_R   0.737348 0.500290 0.493641 0.799907
C3    C     C_R   0.419166 0.072323 0.424067 0.273639
C4    C     C_R   0.581143 0.071096 0.575563 0.271473
C5    C     C_R   0.419621 0.924672 0.426523 -0.044474
C6    C     C_R   0.581106 0.923443 0.572673 -0.050343
C7    C     C_R   0.493245 0.499873 0.262444 0.783283
C8    C     C_R   0.507287 0.499584 0.737486 0.785975
C9    C     C_R   0.490348 0.619031 0.058802 -0.020409
C10   C     C_R   0.527640 0.617090 0.941504 -0.019179
C11   C     C_R   0.488176 0.497397 0.128854 -0.114281
C12   C     C_R   0.516171 0.496275 0.871011 -0.117608
C13   C     C_R   0.494075 0.369414 0.064348 -0.185190
C14   C     C_R   0.503157 0.369053 0.935491 -0.185191
C15   C     C_3   0.536174 0.773412 0.934015 0.242380
C16   C     C_3   0.478754 0.775485 0.062408 0.244622
C17   C     C_R   0.064141 0.378879 0.506473 -0.230054
C18   C     C_R   0.937075 0.378110 0.502818 -0.234758
C19   C     C_R   0.871158 0.503136 0.487104 -0.076938
C20   C     C_R   0.127728 0.505636 0.506242 -0.077878
C21   C     C_R   0.934680 0.630812 0.472988 0.175155
C22   C     C_R   0.061145 0.634022 0.501609 0.173193
Cu1   Cu    Cu3+1 0.500000 0.640660 0.500000 0.916748
Cu2   Cu    Cu3+1 0.500000 0.359340 0.500000 0.942835
H1    H     H_    0.490227 0.270315 0.112308 0.174191
H2    H     H_    0.499036 0.270050 0.887275 0.174929
H3    H     H_    0.479634 0.822979 0.858296 0.136748
H4    H     H_    0.534691 0.827640 0.136636 0.134431
H5    H     H_    0.112495 0.279731 0.512843 0.173234
H6    H     H_    0.890561 0.278929 0.510574 0.171738
H7    H     H_    0.355561 0.867532 0.368497 0.115062
H8    H     H_    0.646732 0.865303 0.628906 0.118050
N1    N     N_R   0.500000 0.852070 0.500000 -0.192135
N2    N     N_R   0.500000 0.147940 0.500000 -0.158014
O1    O     O_R   0.319640 0.618740 0.499990 -0.580178
O2    O     O_R   0.680360 0.618740 0.500010 -0.582349
O3    O     O_R   0.319620 0.381170 0.499990 -0.588085
O4    O     O_R   0.680380 0.381170 0.500010 -0.588267
O5    O     O_R   0.499990 0.618810 0.319660 -0.600473
O6    O     O_R   0.500010 0.618810 0.680340 -0.598957
O7    O     O_R   0.499960 0.381240 0.319650 -0.582549
O8    O     O_R   0.500040 0.381240 0.680350 -0.582831
O9    O     O_3   0.658119 0.825285 0.946384 -0.627624
C23   C     C_3   0.736733 0.771682 0.856116 0.052887
H9    H     H_    0.782731 0.861269 0.812090 0.154696
H10   H     H_    0.688578 0.712169 0.781604 0.148203
C24   C     C_3   0.835344 0.678262 0.917979 -0.344026
H11   H     H_    0.890326 0.740727 0.986016 0.231471
H12   H     H_    0.790874 0.591821 0.968071 0.227632
C25   C     C_3   0.920619 0.616031 0.823087 -0.918780
H13   H     H_    0.867437 0.550017 0.756440 0.255796
H14   H     H_    0.991775 0.549744 0.870425 0.260166
H15   H     H_    0.967132 0.700420 0.772335 0.261645
O10   O     O_3   0.356493 0.827934 0.047699 -0.628124
C26   C     C_3   0.275209 0.772907 0.134282 0.053142
H16   H     H_    0.223387 0.861469 0.174155 0.154006
H17   H     H_    0.321758 0.717442 0.212289 0.149766
C27   C     C_3   0.183593 0.674756 0.069063 -0.347039
H18   H     H_    0.129841 0.733978 0.997220 0.231208
H19   H     H_    0.233871 0.589123 0.022946 0.228897
C28   C     C_3   0.095710 0.611044 0.160140 -0.920623
H20   H     H_    0.042070 0.694546 0.205236 0.261251
H21   H     H_    0.030693 0.540065 0.110545 0.261272
H22   H     H_    0.147879 0.549768 0.231694 0.254871
C29   C     C_3   0.872071 0.760785 0.419420 -0.836383
H23   H     H_    0.804244 0.732382 0.344902 0.244151
H24   H     H_    0.827027 0.820630 0.493182 0.235727
H25   H     H_    0.938490 0.830394 0.374441 0.219249
C30   C     C_3   0.119784 0.773290 0.534319 -0.845127
H26   H     H_    0.183094 0.762350 0.616279 0.248252
H27   H     H_    0.168141 0.814900 0.453970 0.230823
H28   H     H_    0.050865 0.852148 0.562220 0.219986
C31   C     C_3   0.326104 0.135922 0.334087 -0.841113
H29   H     H_    0.327092 0.249308 0.325648 0.280492
H30   H     H_    0.341852 0.094126 0.240302 0.208442
H31   H     H_    0.232177 0.105662 0.360700 0.195581
C32   C     C_3   0.673856 0.133443 0.665700 -0.842134
H32   H     H_    0.673250 0.246925 0.673099 0.280983
H33   H     H_    0.657164 0.092680 0.759632 0.212304
H34   H     H_    0.767859 0.101098 0.640041 0.191176

loop_
_geom_bond_atom_site_label_1
_geom_bond_atom_site_label_2
_ccdc_geom_bond_type
C16   H4    S    
C6    H8    S    
C26   H16   S    
C28   H22   S    
C17   H5    S    
C31   H29   S    
C24   H12   S    
C32   H32   S    
C7    C11   S    
C19   C21   A    
C9    C16   S    
C8    O8    A    
C10   C15   S    
C27   H19   S    
C15   C16   S    
C17   C20   A    
Cu2   O8    S    
C28   H21   S    
C18   C19   A    
C30   H27   S    
C15   H3    S    
C29   H24   S    
C5    N1    A    
Cu2   O4    S    
Cu1   Cu2   S    
C18   H6    S    
C9    C10   A    
C22   C30   S    
C23   C24   S    
C1    O3    A    
C27   C28   S    
C13   C14   A    
Cu2   O7    S    
C31   H30   S    
C13   H1    S    
C30   H26   S    
C23   H10   S    
C25   H13   S    
C24   C25   S    
C32   H33   S    
C4    N2    A    
C25   H15   S    
C4    C6    A    
C3    N2    A    
Cu1   N1    S    
C27   H18   S    
Cu2   N2    S    
C30   H28   S    
O9    C23   S    
C2    O4    A    
C25   H14   S    
C24   H11   S    
C8    C12   S    
C29   H25   S    
C17   C18   A    
C14   H2    S    
C9    C11   A    
C10   C12   A    
C20   C22   A    
Cu1   O2    S    
Cu1   O1    S    
C26   H17   S    
C31   H31   S    
C23   H9    S    
C1    O1    A    
C32   H34   S    
C2    O2    A    
Cu2   O3    S    
O10   C26   S    
C1    C20   S    
C21   C29   S    
C2    C19   S    
C12   C14   A    
C3    C5    A    
C6    N1    A    
C15   O9    S    
C4    C32   S    
C11   C13   A    
Cu1   O5    S    
C7    O7    A    
C28   H20   S    
C3    C31   S    
C16   O10   S    
C29   H23   S    
C26   C27   S    
C7    O5    A    
C8    O6    A    
C21   C22   A    
Cu1   O6    S    
C5    H7    S    
