data_mof_unit_56249.cif
_audit_creation_date              2012-12-10T19:50:11-0500
_audit_creation_method            fapswitch 2.2
_symmetry_space_group_name_H-M    P1
_symmetry_Int_Tables_number       1
_space_group_crystal_system       triclinic
_cell_length_a                    14.165581
_cell_length_b                    14.965142
_cell_length_c                    15.459368
_cell_angle_alpha                 90.269423
_cell_angle_beta                  68.160616
_cell_angle_gamma                 90.367092
_cell_volume                      3041.95270968

loop_
_atom_site_label
_atom_site_type_symbol
_atom_type_description
_atom_site_fract_x
_atom_site_fract_y
_atom_site_fract_z
_atom_type_partial_charge
C1    C     C_R   0.499734 0.672321 0.501412 0.969750
C2    C     C_R   0.584460 0.184042 0.451480 0.453812
C3    C     C_R   0.497006 0.768309 0.510013 -0.323819
C4    C     C_R   0.497307 0.231710 0.505695 -0.322087
C5    C     C_R   0.541471 0.810365 0.567776 0.441537
C6    C     C_R   0.410355 0.188080 0.568421 0.436674
C7    C     C_R   0.545231 0.903594 0.570838 0.106256
C8    C     C_R   0.413018 0.095485 0.579920 0.117295
C9    C     C_R   0.498355 0.952352 0.520446 0.025056
C10   C     C_R   0.498225 0.048385 0.520772 0.005059
C11   C     C_R   0.861806 0.509873 0.583502 0.438879
C12   C     C_R   0.499467 0.327732 0.500575 1.004714
C13   C     C_R   0.125600 0.434200 0.449186 0.441272
C14   C     C_R   0.763136 0.511650 0.581277 -0.077270
C15   C     C_R   0.224910 0.436878 0.449890 -0.106168
C16   C     C_R   0.436726 0.500625 0.676309 0.903360
C17   C     C_R   0.563196 0.502197 0.323765 0.922256
C18   C     C_R   0.828573 0.489162 0.418422 -0.042699
C19   C     C_R   0.184760 0.563255 0.548886 -0.038377
C20   C     C_R   0.928622 0.490012 0.416562 -0.296255
C21   C     C_R   0.085774 0.564850 0.548438 -0.285751
C22   C     C_R   0.947073 0.500505 0.499520 0.037792
C23   C     C_R   0.381632 0.579196 0.101676 -0.244140
C24   C     C_R   0.054081 0.499925 0.498543 0.042711
C25   C     C_R   0.398241 0.513528 0.777245 -0.130395
C26   C     C_R   0.601499 0.517708 0.223247 -0.125984
C27   C     C_R   0.264243 0.549730 0.925113 0.527186
C28   C     C_R   0.737672 0.544387 0.073984 0.530432
C29   C     C_R   0.295530 0.529923 0.829718 -0.299111
C30   C     C_R   0.705407 0.525000 0.169340 -0.285622
C31   C     C_R   0.469384 0.518673 0.819390 -0.288939
C32   C     C_R   0.530142 0.531452 0.182477 -0.244406
C33   C     C_R   0.442494 0.547430 0.911011 0.018659
C34   C     C_R   0.622375 0.565586 0.895503 -0.254932
C35   C     C_R   0.559446 0.552600 0.088569 0.023809
C36   C     C_R   0.338008 0.559370 0.965875 0.054989
C37   C     C_R   0.664684 0.554752 0.032624 0.040166
C38   C     C_R   0.517282 0.559123 0.950392 0.100740
C39   C     C_R   0.485750 0.564197 0.048024 0.111752
C40   C     C_3   0.851071 0.438784 0.716100 -0.344568
C41   C     C_3   0.059678 0.295131 0.454719 -0.347966
C42   C     C_3   0.110885 0.482623 0.996841 -0.314651
C43   C     C_3   0.879551 0.630628 0.031141 -0.335041
C44   C     C_3   0.301782 0.787429 0.438251 -0.264304
C45   C     C_R   0.309361 0.578702 0.060657 -0.196745
C46   C     C_3   0.751641 0.220982 0.412798 -0.260520
C47   C     C_3   0.509938 0.735662 0.703278 -0.265652
C48   C     C_3   0.252150 0.233043 0.582958 -0.280826
C49   C     C_3   0.599713 0.948459 0.627127 -0.828484
C50   C     C_3   0.327406 0.046843 0.654610 -0.867931
C51   C     C_R   0.694681 0.565647 0.936422 -0.188037
C52   C     C_R   0.450757 0.910364 0.466867 -0.319663
C53   C     C_R   0.582321 0.091629 0.456718 -0.318219
C54   C     C_R   0.448226 0.817989 0.462191 0.461028
H1    H     H_    0.230471 0.590091 0.104315 0.190429
H2    H     H_    0.546557 0.499089 0.779709 0.165488
H3    H     H_    0.761447 0.515097 0.200603 0.165447
H4    H     H_    0.239808 0.527718 0.797132 0.178128
H5    H     H_    0.354516 0.593896 0.175345 0.156386
H6    H     H_    0.650355 0.573021 0.820698 0.163616
H7    H     H_    0.417439 0.949909 0.427026 0.173458
H8    H     H_    0.646028 0.053238 0.410742 0.181038
H9    H     H_    0.898471 0.383219 0.674221 0.153961
H10   H     H_    0.768817 0.422217 0.737809 0.157407
H11   H     H_    0.868206 0.445423 0.780245 0.213034
H12   H     H_    0.774307 0.570513 0.891931 0.207784
H13   H     H_    0.988951 0.313026 0.514283 0.156255
H14   H     H_    0.116036 0.265294 0.480398 0.145442
H15   H     H_    0.039171 0.243353 0.413094 0.196213
H16   H     H_    0.146620 0.435594 0.031196 0.161271
H17   H     H_    0.106699 0.451940 0.932688 0.183503
H18   H     H_    0.031871 0.494261 0.046074 0.220137
H19   H     H_    0.877057 0.639860 0.103419 0.170573
H20   H     H_    0.838477 0.685848 0.012271 0.163607
H21   H     H_    0.960365 0.634567 0.983332 0.231234
H22   H     H_    0.266219 0.769660 0.513463 0.142964
H23   H     H_    0.699218 0.522132 0.645495 0.142865
H24   H     H_    0.269103 0.741935 0.399679 0.188566
H25   H     H_    0.281563 0.856825 0.426861 0.146869
H26   H     H_    0.733410 0.242828 0.486234 0.156893
H27   H     H_    0.812503 0.265884 0.367674 0.189241
H28   H     H_    0.782305 0.151912 0.402357 0.146598
H29   H     H_    0.545716 0.695918 0.743131 0.196379
H30   H     H_    0.450260 0.693372 0.692813 0.134449
H31   H     H_    0.474154 0.794995 0.746225 0.147728
H32   H     H_    0.215581 0.166037 0.592637 0.152363
H33   H     H_    0.192091 0.282538 0.618505 0.185799
H34   H     H_    0.280065 0.387769 0.410532 0.147816
H35   H     H_    0.283622 0.249926 0.507434 0.155897
H36   H     H_    0.679594 0.924912 0.602472 0.254394
H37   H     H_    0.601695 0.022289 0.621624 0.227274
H38   H     H_    0.561368 0.931584 0.701908 0.235820
H39   H     H_    0.287421 0.002072 0.621811 0.223015
H40   H     H_    0.358721 0.006162 0.697502 0.239544
H41   H     H_    0.271133 0.093023 0.702868 0.270081
H42   H     H_    0.815993 0.480485 0.354065 0.146067
H43   H     H_    0.207740 0.613198 0.588024 0.135966
H44   H     H_    0.991281 0.483273 0.350269 0.197656
H45   H     H_    0.034587 0.617290 0.586325 0.196312
H46   H     H_    0.450840 0.521468 0.224400 0.176313
N1    N     N_R   0.747530 0.500020 0.500000 -0.107197
N2    N     N_R   0.252470 0.499980 0.500000 -0.108355
O1    O     O_R   0.420530 0.630930 0.499990 -0.600630
O2    O     O_3   0.101065 0.369391 0.397042 -0.614718
O3    O     O_3   0.162652 0.565346 0.977115 -0.634848
O4    O     O_3   0.840434 0.546329 0.020092 -0.630531
O5    O     O_3   0.408244 0.775975 0.403231 -0.581296
O6    O     O_3   0.666646 0.227848 0.386468 -0.588824
O7    O     O_3   0.585989 0.760603 0.617619 -0.578223
O8    O     O_3   0.326842 0.237344 0.623110 -0.590314
O9    O     O_R   0.579470 0.369070 0.500010 -0.595671
O10   O     O_R   0.579480 0.630940 0.499990 -0.570759
O11   O     O_R   0.420520 0.369060 0.500010 -0.606196
O12   O     O_R   0.375120 0.499990 0.632240 -0.613281
O13   O     O_R   0.624880 0.500010 0.367760 -0.625387
O14   O     O_R   0.534080 0.500000 0.632240 -0.635436
O15   O     O_R   0.465920 0.500000 0.367760 -0.619962
O16   O     O_3   0.874586 0.520410 0.667369 -0.621193
Zn1   Zn    Zn3+2 0.393860 0.499990 0.500000 0.962811
Zn2   Zn    Zn3+2 0.606140 0.500010 0.500000 0.972107

loop_
_geom_bond_atom_site_label_1
_geom_bond_atom_site_label_2
_ccdc_geom_bond_type
C25   C31   A    
C40   O16   S    
C26   C32   A    
C23   C45   A    
C27   C29   A    
C18   H42   S    
C48   O8    S    
C49   H36   S    
C19   H43   S    
O10   Zn2   S    
C41   H13   S    
C23   H5    S    
C34   C51   A    
C40   H9    S    
C54   O5    S    
C17   C26   S    
C47   H31   S    
C35   C37   A    
C52   H7    S    
O15   Zn1   S    
C1    O10   A    
C38   C39   A    
C21   H45   S    
C3    C54   A    
C50   H41   S    
C27   O3    S    
C19   N2    A    
C30   H3    S    
C42   H16   S    
C33   C36   A    
C14   H23   S    
C2    O6    S    
C44   H22   S    
C10   C53   A    
C42   H17   S    
O11   Zn1   S    
C43   H19   S    
C28   O4    S    
C46   O6    S    
C31   C33   A    
C47   H29   S    
C31   H2    S    
C4    C12   S    
C9    C10   S    
C1    O1    A    
C18   C20   A    
O12   Zn1   S    
C17   O15   A    
C43   H20   S    
C46   H28   S    
C34   H6    S    
C6    O8    S    
C9    C52   A    
C49   H37   S    
C16   O14   A    
C52   C54   A    
C18   N1    A    
C41   H14   S    
C25   C29   A    
C32   C35   A    
C7    C49   S    
C4    C6    A    
C5    C7    A    
C50   H40   S    
C14   N1    A    
C6    C8    A    
C47   O7    S    
O14   Zn2   S    
C13   C24   A    
O9    Zn2   S    
C1    C3    S    
C51   H12   S    
C2    C4    A    
C46   H27   S    
C53   H8    S    
C42   H18   S    
C48   H33   S    
C36   C45   A    
C47   H30   S    
C13   O2    S    
C20   C22   A    
C26   C30   A    
C40   H11   S    
C13   C15   A    
C22   C24   S    
C49   H38   S    
C8    C50   S    
C17   O13   A    
C43   H21   S    
C41   H15   S    
C12   O11   A    
C44   O5    S    
C16   C25   S    
C7    C9    A    
C19   C21   A    
C34   C38   A    
N1    Zn2   S    
C44   H25   S    
O1    Zn1   S    
C3    C5    A    
C2    C53   A    
C16   O12   A    
C50   H39   S    
C27   C36   A    
C11   C22   A    
C33   C38   A    
C40   H10   S    
C41   O2    S    
C48   H35   S    
C44   H24   S    
C46   H26   S    
C5    O7    S    
C28   C37   A    
C23   C39   A    
C35   C39   A    
C28   C30   A    
C37   C51   A    
C11   C14   A    
C48   H32   S    
C15   N2    A    
C42   O3    S    
C32   H46   S    
C20   H44   S    
C29   H4    S    
C45   H1    S    
C8    C10   A    
O13   Zn2   S    
C21   C24   A    
C11   O16   S    
C43   O4    S    
C12   O9    A    
N2    Zn1   S    
C15   H34   S    
