data_mof_unit_34638.cif
_audit_creation_date              2012-10-26T19:04:44-0400
_audit_creation_method            fapswitch 2.2
_symmetry_space_group_name_H-M    P1
_symmetry_Int_Tables_number       1
_space_group_crystal_system       triclinic
_cell_length_a                    9.60332
_cell_length_b                    10.776957
_cell_length_c                    13.423779
_cell_angle_alpha                 92.441305
_cell_angle_beta                  72.410253
_cell_angle_gamma                 90.056352
_cell_volume                      1323.02660353

loop_
_atom_site_label
_atom_site_type_symbol
_atom_type_description
_atom_site_fract_x
_atom_site_fract_y
_atom_site_fract_z
_atom_type_partial_charge
C1    C     C_R   0.498736 0.737404 0.503099 0.592970
C2    C     C_R   0.373796 0.486764 0.814615 -0.006851
C3    C     C_R   0.287309 0.879353 0.672049 -0.105494
C4    C     C_R   0.421604 0.493670 0.699792 0.513028
C5    C     C_R   0.185340 0.948275 0.751146 -0.116017
C6    C     C_R   0.184909 0.077339 0.751099 -0.108965
C7    C     C_R   0.286499 0.138279 0.671971 -0.086185
C8    C     C_R   0.389566 0.070306 0.589980 0.010672
C9    C     C_R   0.389948 0.939061 0.589933 -0.030442
C10   C     C_R   0.496330 0.871653 0.509486 0.003923
C11   C     C_R   0.603474 0.933029 0.433642 0.356166
C12   C     C_R   0.432889 0.476073 0.979286 0.038047
C13   C     C_R   0.603066 0.061081 0.434088 -0.113208
C14   C     C_R   0.495767 0.129607 0.509765 -0.055293
C15   C     C_R   0.914520 0.337176 0.359597 -0.093602
C16   C     C_R   0.498671 0.262948 0.502996 0.519329
C17   C     C_R   0.015254 0.257476 0.290542 -0.158727
C18   C     C_R   0.158516 0.256221 0.291024 -0.158254
C19   C     C_R   0.201968 0.334795 0.360438 -0.085055
C20   C     C_R   0.103482 0.419146 0.431306 0.156932
C21   C     C_R   0.954048 0.419730 0.431072 0.157821
C22   C     C_R   0.898465 0.576334 0.565750 0.012381
C23   C     C_R   0.470357 0.449097 0.870001 0.028563
C24   C     C_R   0.046362 0.576389 0.565663 0.005308
C25   C     C_R   0.578481 0.497336 0.299974 0.561555
C26   C     C_R   0.786784 0.390460 0.024788 0.357727
C27   C     C_R   0.622387 0.479001 0.185958 -0.051556
C28   C     C_R   0.232489 0.529160 0.870457 -0.102219
C29   C     C_R   0.189210 0.540566 0.978820 -0.088933
C30   C     C_R   0.288275 0.516852 0.032962 -0.107359
C31   C     C_R   0.541210 0.460256 0.030528 -0.021983
C32   C     C_R   0.678624 0.405183 0.974926 0.059175
C33   C     C_R   0.705044 0.363688 0.871007 -0.116315
C34   C     C_R   0.602038 0.383846 0.819721 -0.139940
C35   C     C_R   0.517944 0.499892 0.135115 -0.152147
C36   C     C_R   0.758296 0.426859 0.129978 -0.104188
Cu1   Cu    Cu3+1 0.359340 0.500010 0.500010 0.924624
Cu2   Cu    Cu3+1 0.640660 0.499990 0.499990 0.958915
F1    F     F_    0.918644 0.338031 0.972549 -0.669821
F2    F     F_    0.706331 0.868420 0.356935 -0.617154
H1    H     H_    0.840454 0.410257 0.168247 0.140662
H2    H     H_    0.236832 0.193454 0.237448 0.136932
H3    H     H_    0.313963 0.324697 0.354825 0.184012
H4    H     H_    0.418527 0.547347 0.179507 0.144303
H5    H     H_    0.155706 0.556025 0.830222 0.136636
H6    H     H_    0.246961 0.528360 0.116928 0.114201
H7    H     H_    0.626147 0.344467 0.740940 0.154921
H8    H     H_    0.806245 0.316032 0.828515 0.170423
H9    H     H_    0.078918 0.639046 0.619492 0.109795
H10   H     H_    0.079240 0.571776 0.021113 0.147942
H11   H     H_    0.286182 0.779523 0.677318 0.122385
H12   H     H_    0.107476 0.901324 0.813452 0.119365
H13   H     H_    0.106681 0.130576 0.813344 0.166317
H14   H     H_    0.284669 0.238616 0.677065 0.148607
H15   H     H_    0.685079 0.107172 0.373463 0.134756
H16   H     H_    0.820684 0.638974 0.619667 0.123462
H17   H     H_    0.807312 0.329946 0.353441 0.171775
H18   H     H_    0.981429 0.195803 0.236564 0.148398
N1    N     N_R   0.852480 0.498790 0.499000 -0.243577
N2    N     N_R   0.148360 0.498710 0.498970 -0.243567
O1    O     O_R   0.381190 0.680360 0.500010 -0.506661
O2    O     O_R   0.618760 0.680340 0.500000 -0.446010
O3    O     O_R   0.323240 0.499990 0.650990 -0.518486
O4    O     O_R   0.560820 0.499960 0.650980 -0.514097
O5    O     O_R   0.381240 0.319660 0.500000 -0.522963
O6    O     O_R   0.618810 0.319640 0.499990 -0.527069
O7    O     O_R   0.439180 0.500040 0.349020 -0.519389
O8    O     O_R   0.676760 0.500010 0.349010 -0.500501

loop_
_geom_bond_atom_site_label_1
_geom_bond_atom_site_label_2
_ccdc_geom_bond_type
Cu1   O1    S    
C5    H12   S    
C26   C32   A    
C6    C7    A    
C3    C9    A    
C27   C36   A    
C20   N2    A    
C15   H17   S    
C9    C10   A    
C4    O4    A    
C2    C4    S    
C19   C20   A    
C25   O7    A    
C15   C21   A    
C17   H18   S    
C24   N2    A    
C23   C34   A    
C12   C30   A    
C32   C33   A    
C2    C23   A    
C17   C18   A    
C3    C5    A    
C7    C8    A    
C13   C14   A    
C1    O2    A    
C35   H4    S    
C11   C13   A    
C12   C23   A    
C36   H1    S    
C29   C30   A    
C25   O8    A    
C5    C6    A    
Cu1   O7    S    
C22   C24   A    
C4    O3    A    
C28   C29   A    
Cu1   O3    S    
Cu1   Cu2   S    
Cu2   O8    S    
C21   N1    A    
C31   C35   A    
C29   H10   S    
C18   H2    S    
C12   C31   A    
Cu2   O4    S    
C11   F2    S    
C28   H5    S    
C14   C16   S    
C26   F1    S    
Cu1   N2    S    
C25   C27   S    
C10   C11   A    
C6    H13   S    
Cu2   N1    S    
C34   H7    S    
Cu2   O6    S    
C24   H9    S    
C33   C34   A    
C20   C21   A    
C18   C19   A    
C26   C36   A    
C22   N1    A    
C15   C17   A    
C33   H8    S    
C3    H11   S    
C2    C28   A    
C16   O6    A    
C22   H16   S    
C16   O5    A    
C8    C14   A    
C7    H14   S    
C27   C35   A    
Cu2   O2    S    
C30   H6    S    
C1    C10   S    
C31   C32   A    
Cu1   O5    S    
C19   H3    S    
C8    C9    A    
C13   H15   S    
C1    O1    A    
