data_mof_unit_37680.cif
_audit_creation_date              2013-03-05T15:43:54-0500
_audit_creation_method            fapswitch 2.2
_symmetry_space_group_name_H-M    P1
_symmetry_Int_Tables_number       1
_space_group_crystal_system       triclinic
_cell_length_a                    7.277565
_cell_length_b                    14.196491
_cell_length_c                    16.280581
_cell_angle_alpha                 90.000617
_cell_angle_beta                  97.988136
_cell_angle_gamma                 89.999479
_cell_volume                      1665.7215648

loop_
_atom_site_label
_atom_site_type_symbol
_atom_site_description
_atom_site_fract_x
_atom_site_fract_y
_atom_site_fract_z
_atom_type_partial_charge
O1    O     O_R   0.525340 0.338340 0.164530 -0.572657
O2    O     O_R   0.474660 0.661660 0.835470 -0.572695
O3    O     O_R   0.974660 0.838340 0.835470 -0.572704
O4    O     O_R   0.025340 0.161660 0.164530 -0.572654
O5    O     O_R   0.253520 0.352000 0.336710 -0.524986
O6    O     O_R   0.746480 0.648000 0.663290 -0.524961
O7    O     O_R   0.246480 0.852000 0.663290 -0.524984
O8    O     O_R   0.753520 0.148000 0.336710 -0.524975
O9    O     O_R   0.083330 0.168380 0.337300 -0.506719
O10   O     O_R   0.916670 0.831620 0.662700 -0.506716
O11   O     O_R   0.416670 0.668380 0.662700 -0.506710
O12   O     O_R   0.583330 0.331620 0.337300 -0.506725
C1    C     C_R   0.432682 0.363052 0.367632 0.887871
C2    C     C_R   0.567318 0.636947 0.632368 0.887923
C3    C     C_R   0.067317 0.863052 0.632368 0.887884
C4    C     C_R   0.932682 0.136947 0.367632 0.887889
O13   O     O_R   0.195840 0.349670 0.165140 -0.559214
O14   O     O_R   0.804160 0.650330 0.834860 -0.559226
O15   O     O_R   0.304160 0.849670 0.834860 -0.559190
O16   O     O_R   0.695840 0.150330 0.165140 -0.559221
C5    C     C_R   0.356539 0.370297 0.137037 0.863994
C6    C     C_R   0.643462 0.629726 0.862992 0.863485
C7    C     C_R   0.143459 0.870294 0.862970 0.864079
C8    C     C_R   0.856541 0.129708 0.137026 0.863684
O17   O     O_3   0.387830 0.193120 0.250910 -0.283448
O18   O     O_3   0.612170 0.806880 0.749090 -0.283440
O19   O     O_3   0.112170 0.693120 0.749090 -0.283478
O20   O     O_3   0.887830 0.306880 0.250910 -0.283417
V1    V     V_3+5 0.113010 0.264540 0.250910 1.241451
V2    V     V_3+5 0.886990 0.735460 0.749090 1.241378
V3    V     V_3+5 0.386990 0.764540 0.749090 1.241411
V4    V     V_3+5 0.613010 0.235460 0.250910 1.241430
H1    H     H_    0.057190 0.841294 0.245389 0.106842
H2    H     H_    0.942812 0.158707 0.754610 0.106821
H3    H     H_    0.442793 0.341299 0.754609 0.106789
H4    H     H_    0.557201 0.658701 0.245392 0.106885
C9    C     C_R   0.946957 0.193635 0.548204 0.394713
C10   C     C_R   0.053042 0.806364 0.451795 0.394711
C11   C     C_R   0.553048 0.693633 0.451798 0.394717
C12   C     C_R   0.446952 0.306365 0.548204 0.394712
C13   C     C_R   0.933806 0.212630 0.631703 -0.099456
C14   C     C_R   0.066194 0.787370 0.368297 -0.099448
C15   C     C_R   0.566204 0.712626 0.368300 -0.099469
C16   C     C_R   0.433794 0.287373 0.631702 -0.099430
C17   C     C_R   0.950887 0.142061 0.690290 -0.131250
C18   C     C_R   0.049114 0.857939 0.309710 -0.131265
C19   C     C_R   0.549123 0.642057 0.309713 -0.131222
C20   C     C_R   0.450873 0.357943 0.690289 -0.131283
C21   C     C_R   0.983539 0.050616 0.667375 -0.051263
C22   C     C_R   0.016463 0.949384 0.332624 -0.051291
C23   C     C_R   0.516467 0.550613 0.332626 -0.051256
C24   C     C_R   0.483530 0.449387 0.667375 -0.051312
C25   C     C_R   0.993780 0.025841 0.583653 -0.002632
C26   C     C_R   0.006220 0.974159 0.416347 -0.002629
C27   C     C_R   0.506222 0.525839 0.416348 -0.002641
C28   C     C_R   0.493776 0.474160 0.583653 -0.002619
C29   C     C_R   0.969272 0.097370 0.521368 0.024548
C30   C     C_R   0.030728 0.902629 0.478632 0.024554
C31   C     C_R   0.530731 0.597368 0.478633 0.024546
C32   C     C_R   0.469268 0.402630 0.521368 0.024556
C33   C     C_R   0.029059 0.930653 0.563142 -0.045007
C34   C     C_R   0.970941 0.069347 0.436857 -0.045017
C35   C     C_R   0.470939 0.430652 0.436858 -0.045004
C36   C     C_R   0.529060 0.569346 0.563143 -0.045032
H5    H     H_    0.915540 0.284127 0.652355 0.117713
H6    H     H_    0.084459 0.715873 0.347643 0.117733
H7    H     H_    0.584472 0.784123 0.347648 0.117719
H8    H     H_    0.415526 0.215877 0.652354 0.117721
H9    H     H_    0.999846 0.999597 0.717102 0.046713
H10   H     H_    0.000156 0.000403 0.282898 0.046744
H11   H     H_    0.500159 0.499593 0.282899 0.046753
H12   H     H_    0.499837 0.500407 0.717102 0.046753
C37   C     C_2   0.146603 0.944782 0.926827 -0.169817
C38   C     C_2   0.853397 0.055228 0.073159 -0.169995
C39   C     C_2   0.353380 0.444797 0.073203 -0.169739
C40   C     C_2   0.646621 0.555296 0.926913 -0.170282
C41   C     C_2   0.011862 0.954451 0.977244 -0.110894
C42   C     C_2   0.988199 0.045534 0.022775 -0.111120
C43   C     C_2   0.487987 0.454418 0.022712 -0.110966
C44   C     C_2   0.511556 0.545490 0.977156 -0.111162
H13   H     H_    0.747853 0.001945 0.075185 0.027283
H14   H     H_    0.252072 0.998095 0.924760 0.027142
H15   H     H_    0.752526 0.502153 0.925083 0.027451
H16   H     H_    0.248054 0.498173 0.075363 0.027139
N1    N     N_R   0.944814 0.274714 0.494988 0.075930
O21   O     O_R   0.844300 0.347200 0.508577 -0.382462
O22   O     O_R   0.084436 0.290268 0.455873 -0.361657
N2    N     N_R   0.055187 0.725285 0.505010 0.075933
O23   O     O_R   0.155698 0.652798 0.491420 -0.382461
O24   O     O_R   0.915569 0.709732 0.544128 -0.361652
N3    N     N_R   0.555188 0.774712 0.505014 0.075932
O25   O     O_R   0.655702 0.847198 0.491428 -0.382458
O26   O     O_R   0.415561 0.790267 0.544127 -0.361655
N4    N     N_R   0.444814 0.225285 0.494988 0.075932
O27   O     O_R   0.344307 0.152798 0.508578 -0.382461
O28   O     O_R   0.584434 0.209733 0.455872 -0.361654
C45   C     C_2   0.111951 0.126687 0.010417 0.568146
H17   H     H_    0.259861 0.116498 0.011422 0.015837
O29   O     O_2   0.048159 0.205890 0.998506 -0.568918
C46   C     C_2   0.888226 0.873267 0.989650 0.567960
H18   H     H_    0.740333 0.883415 0.988716 0.015435
O30   O     O_2   0.952102 0.794077 0.001519 -0.568865
C47   C     C_2   0.387226 0.626484 0.989284 0.568785
H19   H     H_    0.239264 0.616086 0.987973 0.015481
O31   O     O_2   0.450575 0.705761 0.001349 -0.568721
C48   C     C_2   0.611430 0.373179 0.010216 0.567672
H20   H     H_    0.759319 0.383248 0.011041 0.015780
O32   O     O_2   0.547390 0.294010 0.998408 -0.568970

loop_
_geom_bond_atom_site_label_1
_geom_bond_atom_site_label_2
_geom_bond_distance
_ccdc_geom_bond_type
O1    C5    1.327571 A    
C12   C32   1.450739 A    
C27   C31   1.428629 A    
O13   V1    2.001961 S    
O3    C7    1.327576 A    
C6    C40   1.481013 S    
O15   V3    2.001935 S    
C45   H17   1.083964 S    
C29   C34   1.433909 A    
C41   C42   1.512141 S    
C31   C36   1.433904 A    
C22   C26   1.419643 A    
C4    C34   1.476998 S    
H4    C19   1.083040 S    
C32   C35   1.433909 A    
C9    N1    1.439445 S    
O20   V1    1.745513 S    
O9    C4    1.339943 A    
C10   C14   1.402149 A    
O10   C3    1.339944 A    
O16   V4    2.001936 S    
O4    C8    1.327578 A    
O11   C2    1.339937 A    
C39   H16   1.081871 S    
O6    C2    1.340030 A    
C48   H20   1.083958 S    
C41   C46   1.493059 S    
C14   C18   1.376944 A    
C10   C30   1.450741 A    
C25   C33   1.423849 A    
O16   C8    1.346007 A    
C27   C35   1.423847 A    
O2    C6    1.327571 A    
C28   C36   1.423847 A    
O14   V2    2.001960 S    
C12   C16   1.402150 A    
O5    C1    1.340030 A    
O4    V1    2.066048 S    
O9    V1    1.993216 S    
C30   C33   1.433910 A    
O7    C3    1.340033 A    
O11   V3    1.993194 S    
O18   V3    1.745524 S    
O8    C4    1.340033 A    
C21   H9    1.080465 S    
O12   V4    1.993193 S    
O19   V2    1.745513 S    
H1    C18   1.083041 S    
C23   H11   1.080465 S    
C7    C37   1.480859 S    
H3    C20   1.083040 S    
C40   H15   1.081884 S    
C11   N3    1.439443 S    
C45   O29   1.221637 D    
O5    V1    2.035074 S    
N1    O22   1.290975 A    
C11   C15   1.402147 A    
O7    V3    2.035081 S    
C44   C47   1.493126 S    
O8    V4    2.035080 S    
N3    O25   1.299205 A    
C25   C29   1.428634 A    
C19   C23   1.380432 A    
C26   C34   1.423849 A    
N1    O21   1.299203 A    
O1    V4    2.066061 S    
O13   C5    1.345936 A    
C28   C32   1.428631 A    
C43   C48   1.493101 S    
C10   N2    1.439445 S    
O2    V3    2.066059 S    
O3    V2    2.066046 S    
O15   C7    1.345989 A    
C24   H12   1.080466 S    
N3    O26   1.290975 A    
O10   V2    1.993217 S    
C1    C35   1.476985 S    
C17   C21   1.380432 A    
C11   C31   1.450738 A    
C42   C45   1.493072 S    
C46   O30   1.221617 D    
C3    C33   1.476998 S    
C47   O31   1.221719 D    
H2    C17   1.083041 S    
O12   C1    1.339938 A    
N4    O28   1.290968 A    
C2    C36   1.476983 S    
O6    V2    2.035073 S    
N2    O24   1.290971 A    
C16   H8    1.083229 S    
C39   C43   1.370334 D    
C38   H13   1.081818 S    
C37   H14   1.081810 S    
C26   C30   1.428635 A    
C18   C22   1.380430 A    
C37   C41   1.370343 D    
O14   C6    1.346073 A    
C40   C44   1.370444 D    
C12   N4    1.439445 S    
C13   H5    1.083229 S    
C5    C39   1.480740 S    
C22   H10   1.080465 S    
C8    C38   1.480895 S    
C48   O32   1.221658 D    
O17   V4    1.745524 S    
C21   C25   1.419643 A    
C46   H18   1.083909 S    
C23   C27   1.419643 A    
C9    C13   1.402148 A    
N4    O27   1.299200 A    
C43   C44   1.512114 S    
C16   C20   1.376942 A    
C20   C24   1.380432 A    
N2    O23   1.299201 A    
C15   H7    1.083229 S    
C38   C42   1.370359 D    
C47   H19   1.084143 S    
C14   H6    1.083229 S    
C13   C17   1.376944 A    
C15   C19   1.376943 A    
C9    C29   1.450739 A    
C24   C28   1.419643 A    
