data_mof_unit_36524.cif
_audit_creation_date              2012-12-10T16:49:27-0500
_audit_creation_method            fapswitch 2.2
_symmetry_space_group_name_H-M    P1
_symmetry_Int_Tables_number       1
_space_group_crystal_system       triclinic
_cell_length_a                    19.330325
_cell_length_b                    8.686132
_cell_length_c                    7.523602
_cell_angle_alpha                 101.462717
_cell_angle_beta                  95.020455
_cell_angle_gamma                 92.5718
_cell_volume                      1230.79907363

loop_
_atom_site_label
_atom_site_type_symbol
_atom_type_description
_atom_site_fract_x
_atom_site_fract_y
_atom_site_fract_z
_atom_type_partial_charge
C1    C     C_R   0.495507 0.201427 0.456652 0.824756
C2    C     C_R   0.504490 0.798572 0.543343 0.825054
C3    C     C_2   0.481021 0.037573 0.444786 -0.214490
C4    C     C_2   0.518984 0.962419 0.555185 -0.214761
C5    C     C_R   0.367666 0.502997 0.501794 0.804293
C6    C     C_R   0.632320 0.496865 0.498175 0.804417
C7    C     C_R   0.260015 0.577575 0.662079 -0.039083
C8    C     C_R   0.739653 0.420203 0.337673 -0.037937
C9    C     C_R   0.187005 0.577009 0.655765 -0.102854
C10   C     C_R   0.812618 0.419435 0.343588 -0.099416
C11   C     C_R   0.145340 0.510368 0.492506 -0.073640
C12   C     C_R   0.854520 0.486737 0.506193 -0.064610
C13   C     C_R   0.176641 0.444490 0.333742 -0.018977
C14   C     C_R   0.823552 0.554574 0.664472 -0.012600
C15   C     C_R   0.249152 0.443119 0.343516 -0.187175
C16   C     C_R   0.751017 0.556549 0.655555 -0.188614
C17   C     C_R   0.291357 0.508926 0.504316 -0.129263
C18   C     C_R   0.708576 0.490195 0.495359 -0.125982
C19   C     C_R   0.930355 0.492812 0.505356 0.471213
C20   C     C_R   0.069469 0.504238 0.492874 0.462373
Cu1   Cu    Cu3+1 0.507710 0.517380 0.684380 1.032644
Cu2   Cu    Cu3+1 0.492290 0.482620 0.315620 1.032799
H1    H     H_    0.273274 0.390128 0.223452 0.233060
H2    H     H_    0.727209 0.610566 0.775810 0.224795
N1    N     N_R   0.032549 0.363622 0.463948 -0.185916
N2    N     N_R   0.967282 0.633426 0.534412 -0.189806
N3    N     N_R   0.963950 0.358009 0.469472 -0.180094
N4    N     N_R   0.035876 0.639038 0.528813 -0.193050
N5    N     N_2   0.480680 0.456420 0.038530 -0.240656
N6    N     N_2   0.519320 0.543580 0.961470 -0.240954
O1    O     O_R   0.505010 0.286130 0.619770 -0.608920
O2    O     O_R   0.494990 0.713870 0.380230 -0.608510
O3    O     O_R   0.491990 0.256780 0.308370 -0.544646
O4    O     O_R   0.508010 0.743220 0.691630 -0.544623
O5    O     O_R   0.406650 0.514660 0.655750 -0.551622
O6    O     O_R   0.593350 0.485340 0.344250 -0.552332
O7    O     O_R   0.393640 0.485310 0.344340 -0.606362
O8    O     O_R   0.606360 0.514690 0.655660 -0.606133
C21   C     C_2   0.302349 0.648795 0.834934 0.908402
O9    O     O_2   0.342203 0.763880 0.842911 -0.557496
O10   O     O_R   0.296400 0.582530 0.987873 -0.734425
H3    H     H_    0.330398 0.634403 0.095182 0.353865
C22   C     C_2   0.697083 0.349468 0.165071 0.908241
O11   O     O_2   0.657405 0.234024 0.156925 -0.556683
O12   O     O_R   0.702529 0.416839 0.012669 -0.735842
H4    H     H_    0.668297 0.365464 0.905664 0.354237
C23   C     C_1   0.154693 0.645954 0.817846 0.332444
N7    N     N_1   0.129002 0.701250 0.946830 -0.196776
C24   C     C_1   0.844602 0.348991 0.181564 0.327567
N8    N     N_1   0.869998 0.292478 0.052569 -0.175507
C25   C     C_2   0.136101 0.380004 0.153898 0.891551
O13   O     O_2   0.076791 0.417358 0.121407 -0.561050
O14   O     O_R   0.166957 0.279483 0.018273 -0.733667
H5    H     H_    0.135024 0.246046 0.901197 0.352919
C26   C     C_2   0.864973 0.620625 0.842442 0.884471
O15   O     O_2   0.840759 0.719237 0.955940 -0.557544
O16   O     O_R   0.930589 0.567569 0.883514 -0.720131
H6    H     H_    0.952700 0.620385 0.009334 0.366986
C27   C     C_1   0.415855 0.970970 0.342200 0.340656
N9    N     N_1   0.363434 0.920058 0.261426 -0.237954
C28   C     C_1   0.584198 0.028949 0.657557 0.340948
N10   N     N_1   0.636669 0.079769 0.738118 -0.236106
C29   C     C_2   0.453622 0.308162 0.936882 1.132229
O17   O     O_2   0.487650 0.192892 0.936501 -0.558315
O18   O     O_R   0.385780 0.291144 0.851720 -0.752467
H7    H     H_    0.371815 0.178760 0.786808 0.321938
C30   C     C_2   0.546330 0.691882 0.063103 1.132284
O19   O     O_2   0.512280 0.807103 0.063359 -0.557902
O20   O     O_R   0.614144 0.708993 0.148456 -0.752146
H8    H     H_    0.628065 0.821397 0.213374 0.322895

loop_
_geom_bond_atom_site_label_1
_geom_bond_atom_site_label_2
_ccdc_geom_bond_type
C1    C3    S    
C2    C4    S    
C26   O15   D    
C29   O18   S    
C15   C17   A    
N5    N6    D    
Cu1   O5    S    
Cu2   N5    S    
C5    O7    A    
N1    N3    A    
C22   O12   S    
Cu1   N6    S    
N2    N4    A    
N6    C30   S    
C8    C22   S    
C22   O11   D    
Cu1   Cu2   S    
C2    O4    A    
C19   N2    A    
C15   H1    S    
C14   C26   S    
O16   H6    S    
C1    O3    A    
C27   N9    T    
C16   H2    S    
O14   H5    S    
O18   H7    S    
C9    C11   A    
Cu1   O1    S    
C28   N10   T    
Cu2   O2    S    
C5    O5    A    
C12   C19   S    
C16   C18   A    
N5    C29   S    
C12   C14   A    
C9    C23   S    
C10   C12   A    
C26   O16   S    
C13   C15   A    
O20   H8    S    
C6    C18   S    
C25   O13   D    
C14   C16   A    
C11   C20   S    
C11   C13   A    
C5    C17   S    
C20   N1    A    
C29   O17   D    
C3    C4    D    
C23   N7    T    
O12   H4    S    
C1    O1    A    
Cu2   O6    S    
C21   O10   S    
C2    O2    A    
C24   N8    T    
O10   H3    S    
C30   O20   S    
C21   O9    D    
C7    C9    A    
Cu2   O3    S    
C7    C21   S    
Cu1   O4    S    
C20   N4    A    
C25   O14   S    
C6    O8    A    
C13   C25   S    
C10   C24   S    
C4    C28   S    
Cu2   O7    S    
C8    C10   A    
C8    C18   A    
Cu1   O8    S    
C30   O19   D    
C6    O6    A    
C19   N3    A    
C7    C17   A    
C3    C27   S    
