data_mof_unit_55560.cif
_audit_creation_date              2013-03-05T16:19:12-0500
_audit_creation_method            fapswitch 2.2
_symmetry_space_group_name_H-M    P1
_symmetry_Int_Tables_number       1
_space_group_crystal_system       triclinic
_cell_length_a                    36.372645
_cell_length_b                    39.796457
_cell_length_c                    8.838778
_cell_angle_alpha                 89.695451
_cell_angle_beta                  92.673544
_cell_angle_gamma                 90.104533
_cell_volume                      12780.0297501

loop_
_atom_site_label
_atom_site_type_symbol
_atom_site_description
_atom_site_fract_x
_atom_site_fract_y
_atom_site_fract_z
_atom_type_partial_charge
P1    P     P_3+3 0.075650 0.535480 0.098240 0.959362
P2    P     P_3+3 0.075650 0.464520 0.598240 0.953561
P3    P     P_3+3 0.575650 0.035480 0.098240 0.950738
P4    P     P_3+3 0.575650 0.964520 0.598240 0.959833
O1    O     O_2   0.072110 0.546320 0.923350 -0.482318
O2    O     O_2   0.072110 0.453680 0.423350 -0.483325
O3    O     O_2   0.572110 0.046320 0.923350 -0.514960
O4    O     O_2   0.572110 0.953680 0.423350 -0.478415
O5    O     O_3   0.042000 0.516250 0.155330 -0.485596
O6    O     O_3   0.042000 0.483750 0.655330 -0.490232
O7    O     O_3   0.542000 0.016250 0.155330 -0.489086
O8    O     O_3   0.542000 0.983750 0.655330 -0.491230
O9    O     O_3   0.012540 0.574900 0.645500 -0.471367
O10   O     O_3   0.012540 0.425100 0.145500 -0.477458
O11   O     O_3   0.512540 0.074900 0.645500 -0.477981
O12   O     O_3   0.512540 0.925100 0.145500 -0.474633
O13   O     O_2   0.076481 0.598612 0.733091 -0.500083
O14   O     O_2   0.074075 0.399100 0.242606 -0.510603
O15   O     O_2   0.559125 0.123352 0.728917 -0.562778
O16   O     O_2   0.575835 0.900963 0.239595 -0.499444
O17   O     O_3   0.117103 0.512953 0.120858 -0.658808
O18   O     O_3   0.117646 0.486298 0.619961 -0.658163
O19   O     O_3   0.618507 0.014827 0.118894 -0.651817
O20   O     O_3   0.618306 0.985549 0.614609 -0.660923
O21   O     O_3   0.032244 0.645875 0.680095 -0.583446
O22   O     O_3   0.023248 0.354457 0.201911 -0.567901
O23   O     O_3   0.515486 0.138899 0.488556 -0.613730
O24   O     O_3   0.531706 0.853868 0.183227 -0.584221
C1    C     C_3   0.025013 0.704466 0.619777 -0.348857
C2    C     C_3   0.989752 0.302171 0.159460 -0.352855
C3    C     C_3   0.530046 0.188038 0.648823 -0.313639
C4    C     C_3   0.523883 0.795388 0.122742 -0.349975
P5    P     P_3+3 0.924520 0.535770 0.591580 0.975507
P6    P     P_3+3 0.924520 0.464230 0.091580 0.976780
P7    P     P_3+3 0.424520 0.035770 0.591580 0.981559
P8    P     P_3+3 0.424520 0.964230 0.091580 0.989587
P9    P     P_3+3 0.950233 0.603104 0.067491 0.991719
P10   P     P_3+3 0.956975 0.390897 0.557615 0.947000
P11   P     P_3+3 0.452791 0.105937 0.062722 0.956919
P12   P     P_3+3 0.450269 0.896998 0.568905 0.991258
O25   O     O_2   0.928110 0.546600 0.766510 -0.429718
O26   O     O_2   0.928110 0.453400 0.266510 -0.471964
O27   O     O_2   0.428110 0.046600 0.766510 -0.458504
O28   O     O_2   0.428110 0.953400 0.266510 -0.443589
O29   O     O_3   0.987780 0.574950 0.044470 -0.478174
O30   O     O_3   0.987780 0.425050 0.544470 -0.480142
O31   O     O_3   0.487780 0.074950 0.044470 -0.477178
O32   O     O_3   0.487780 0.925050 0.544470 -0.478338
O33   O     O_2   0.916031 0.586567 0.987941 -0.433781
O34   O     O_2   0.924495 0.399638 0.444835 -0.452576
O35   O     O_2   0.424781 0.098332 0.930355 -0.423456
O36   O     O_2   0.416016 0.913615 0.489916 -0.438839
O37   O     O_3   0.884287 0.511810 0.568087 -0.656080
O38   O     O_3   0.888462 0.493774 0.067857 -0.631208
O39   O     O_3   0.385971 0.009355 0.558924 -0.639756
O40   O     O_3   0.385547 0.989913 0.056210 -0.651094
O41   O     O_3   0.958773 0.638904 0.956933 -0.587584
O42   O     O_3   0.977266 0.355258 0.473491 -0.592218
O43   O     O_3   0.468705 0.146036 0.009978 -0.623886
O44   O     O_3   0.458753 0.861323 0.459246 -0.585547
C5    C     C_3   0.985372 0.659505 0.033932 0.340297
C6    C     C_3   0.006671 0.341766 0.564909 0.388793
C7    C     C_3   0.496302 0.160362 0.107832 0.321529
C8    C     C_3   0.485564 0.840895 0.536508 0.341084
H1    H     H_    0.980257 0.659824 0.153688 0.000812
H2    H     H_    0.000500 0.345122 0.680391 -0.016034
H3    H     H_    0.488195 0.158554 0.225777 0.058782
H4    H     H_    0.480564 0.840477 0.656257 -0.000458
C9    C     C_3   0.982468 0.696878 0.979413 -0.036224
C10   C     C_3   0.011900 0.303191 0.539911 -0.052696
C11   C     C_3   0.501417 0.197996 0.059090 -0.031433
C12   C     C_3   0.482875 0.803556 0.483398 -0.036429
C13   C     C_3   0.869995 0.501431 0.200504 0.341507
C14   C     C_3   0.880569 0.487623 0.681857 0.328808
C15   C     C_3   0.366238 0.997941 0.185385 0.352357
C16   C     C_3   0.367708 0.999722 0.689079 0.337651
C17   C     C_3   0.830616 0.486806 0.192038 -0.245679
C18   C     C_3   0.841212 0.489394 0.737630 -0.179676
C19   C     C_3   0.324477 0.996224 0.148125 -0.219943
C20   C     C_3   0.326173 0.006850 0.666407 -0.220374
Ba1   Ba    Ba6+2 0.000060 0.523150 0.844950 1.618378
Ba2   Ba    Ba6+2 0.000060 0.476850 0.344950 1.604939
Ba3   Ba    Ba6+2 0.500060 0.023150 0.844950 1.607391
Ba4   Ba    Ba6+2 0.500060 0.976850 0.344950 1.624638
C21   C     C_3   0.121344 0.485725 0.023940 0.341787
C22   C     C_3   0.122216 0.513628 0.522850 0.339422
C23   C     C_3   0.622571 0.986013 0.031556 0.327484
C24   C     C_3   0.621066 0.016802 0.543179 0.358727
H5    H     H_    0.101066 0.486336 0.926120 0.023142
H6    H     H_    0.102050 0.513212 0.424804 0.026097
H7    H     H_    0.604557 0.986796 0.926772 0.018551
H8    H     H_    0.600697 0.019151 0.446385 0.002526
C25   C     C_3   0.160955 0.486820 0.961113 -0.052400
C26   C     C_3   0.161763 0.512705 0.460314 -0.046047
C27   C     C_3   0.663532 0.983490 0.985047 -0.044092
C28   C     C_3   0.660573 0.019426 0.481796 -0.038310
O45   O     O_3   0.958050 0.483830 0.034350 -0.479048
O46   O     O_3   0.958050 0.516170 0.534350 -0.507920
O47   O     O_3   0.458050 0.983830 0.034350 -0.486819
O48   O     O_3   0.458050 0.016170 0.534350 -0.483169
P13   P     P_3+3 0.042731 0.391725 0.125011 0.932501
P14   P     P_3+3 0.045718 0.606265 0.613054 0.930110
P15   P     P_3+3 0.545712 0.893578 0.116617 0.926687
P16   P     P_3+3 0.542215 0.107200 0.584087 0.897842
C29   C     C_3   0.012620 0.668081 0.578164 0.440871
C30   C     C_3   0.994240 0.339244 0.111910 0.447813
C31   C     C_3   0.500197 0.163606 0.583246 0.431432
C32   C     C_3   0.512071 0.831997 0.080754 0.440103
C33   C     C_R   0.835922 0.354375 0.074557 0.581249
C34   C     C_R   0.836820 0.645168 0.595443 0.580659
C35   C     C_R   0.339387 0.853081 0.103578 0.580332
C36   C     C_R   0.341867 0.151192 0.621773 0.580513
O49   O     O_2   0.851556 0.371236 0.172741 -0.609075
O50   O     O_2   0.852570 0.628890 0.696118 -0.592802
O51   O     O_2   0.355989 0.868337 0.204746 -0.596234
O52   O     O_2   0.360741 0.137690 0.722007 -0.601627
N1    N     N_R   0.848545 0.355101 0.928191 -0.415167
N2    N     N_R   0.850286 0.645150 0.450363 -0.417924
N3    N     N_R   0.351820 0.854271 0.956983 -0.417100
N4    N     N_R   0.351391 0.148693 0.471000 -0.412930
C37   C     C_R   0.831015 0.334307 0.822096 0.577692
C38   C     C_R   0.832743 0.665783 0.342484 0.579840
C39   C     C_R   0.333485 0.834523 0.848811 0.578289
C40   C     C_R   0.330865 0.168050 0.366897 0.581287
C41   C     C_2   0.906004 0.365857 0.788403 0.027119
C42   C     C_2   0.908356 0.635603 0.313377 0.039055
C43   C     C_2   0.409031 0.864521 0.815912 0.036174
C44   C     C_2   0.400108 0.131114 0.292369 0.002617
C45   C     C_3   0.939565 0.387282 0.760541 -0.052173
C46   C     C_3   0.940877 0.613188 0.275415 -0.081302
C47   C     C_3   0.441523 0.887004 0.777355 -0.078434
C48   C     C_3   0.425326 0.103064 0.241623 -0.033090
C49   C     C_1   0.918883 0.426993 0.959964 0.001894
C50   C     C_1   0.921387 0.574504 0.475761 0.046786
C51   C     C_1   0.422346 0.925428 0.977537 0.042239
C52   C     C_1   0.420635 0.075605 0.483120 0.040586
C53   C     C_2   0.887016 0.410145 0.963669 -0.122423
C54   C     C_2   0.890042 0.591361 0.489535 -0.124399
C55   C     C_2   0.391684 0.907826 0.996043 -0.135954
C56   C     C_2   0.392163 0.095045 0.516105 -0.149564
C57   C     C_2   0.880325 0.376381 0.887769 0.224959
C58   C     C_2   0.882725 0.624675 0.412426 0.215988
C59   C     C_2   0.383983 0.874966 0.917461 0.219651
C60   C     C_2   0.380882 0.125794 0.421893 0.208216
C61   C     C_R   0.796597 0.306204 0.013639 -0.109063
C62   C     C_R   0.796984 0.692580 0.531824 -0.109806
C63   C     C_R   0.299082 0.806248 0.038474 -0.109571
C64   C     C_R   0.300412 0.197277 0.561570 -0.107327
C65   C     C_R   0.805855 0.332938 0.112752 -0.051248
C66   C     C_R   0.805846 0.665483 0.629964 -0.050749
C67   C     C_R   0.308466 0.832681 0.138516 -0.050265
C68   C     C_R   0.311085 0.171113 0.661396 -0.047819
C69   C     C_R   0.786414 0.336069 0.248814 0.070804
C70   C     C_R   0.785233 0.660994 0.762055 0.071801
C71   C     C_R   0.288462 0.836396 0.272390 0.069161
C72   C     C_R   0.292008 0.166795 0.797269 0.063502
C73   C     C_R   0.811891 0.305308 0.869491 -0.025244
C74   C     C_R   0.812470 0.694053 0.388348 -0.027943
C75   C     C_R   0.314201 0.805514 0.894131 -0.024911
C76   C     C_R   0.313548 0.197690 0.414296 -0.018931
C77   C     C_2   0.944293 0.418251 0.861116 -0.186880
C78   C     C_2   0.947382 0.583721 0.381377 -0.179450
C79   C     C_2   0.448028 0.916611 0.881557 -0.174883
C80   C     C_2   0.442820 0.083957 0.373111 -0.167050
C81   C     C_2   0.068243 0.575426 0.333419 -0.259076
C82   C     C_2   0.065806 0.423187 0.841519 -0.254695
C83   C     C_2   0.566658 0.074810 0.331876 -0.264269
C84   C     C_2   0.568946 0.924608 0.835974 -0.261218
C85   C     C_R   0.223493 0.761315 0.228391 0.022268
C86   C     C_R   0.225507 0.240965 0.755831 0.022521
C87   C     C_R   0.721253 0.261018 0.207901 0.022267
C88   C     C_R   0.721582 0.737277 0.723030 0.022861
C89   C     C_R   0.252742 0.722642 0.056943 0.021105
C90   C     C_R   0.253751 0.280321 0.581938 0.021201
C91   C     C_R   0.748248 0.222981 0.027494 0.021275
C92   C     C_R   0.751710 0.776548 0.554649 0.020653
C93   C     C_R   0.225864 0.729103 0.162767 0.052704
C94   C     C_R   0.227352 0.273360 0.689633 0.052327
C95   C     C_R   0.722401 0.229136 0.138257 0.052571
C96   C     C_R   0.724608 0.769855 0.659743 0.052840
C97   C     C_R   0.190948 0.769111 0.301854 -0.115299
C98   C     C_R   0.193096 0.232537 0.829388 -0.116625
C99   C     C_R   0.689721 0.268640 0.288636 -0.114854
C100  C     C_R   0.688801 0.729590 0.795736 -0.114826
C101  C     C_R   0.163678 0.744762 0.322001 -0.067540
C102  C     C_R   0.165623 0.256469 0.850233 -0.068397
C103  C     C_R   0.662892 0.244257 0.315140 -0.070075
C104  C     C_R   0.662075 0.754229 0.818029 -0.067648
C105  C     C_R   0.168695 0.711394 0.275106 -0.023389
C106  C     C_R   0.170131 0.289995 0.802853 -0.021891
C107  C     C_R   0.666816 0.211089 0.264095 -0.026153
C108  C     C_R   0.667713 0.787794 0.773446 -0.024411
C109  C     C_R   0.200597 0.703437 0.199785 -0.084450
C110  C     C_R   0.201756 0.298580 0.726531 -0.084833
C111  C     C_R   0.697067 0.203464 0.177204 -0.082985
C112  C     C_R   0.699737 0.795685 0.698175 -0.083514
C113  C     C_R   0.207275 0.669942 0.160499 -0.029147
C114  C     C_R   0.207631 0.332184 0.684805 -0.030569
C115  C     C_R   0.702032 0.170297 0.128413 -0.032787
C116  C     C_R   0.706926 0.829296 0.660347 -0.029895
C117  C     C_R   0.183747 0.644454 0.211984 0.584084
C118  C     C_R   0.183482 0.357218 0.734172 0.586089
C119  C     C_R   0.678394 0.144641 0.178205 0.583267
C120  C     C_R   0.683743 0.854865 0.712562 0.582758
N5    N     N_R   0.149397 0.652476 0.264154 -0.419415
N6    N     N_R   0.149448 0.348500 0.788361 -0.419929
N7    N     N_R   0.646425 0.152517 0.250772 -0.421156
N8    N     N_R   0.649307 0.847031 0.765290 -0.419218
C121  C     C_R   0.141926 0.686091 0.295307 0.579388
C122  C     C_R   0.142894 0.314716 0.822417 0.568320
C123  C     C_R   0.640556 0.185708 0.292868 0.572437
C124  C     C_R   0.641413 0.813365 0.795858 0.579915
C125  C     C_2   0.103235 0.626318 0.418400 -0.109480
C126  C     C_2   0.099821 0.372299 0.931009 -0.094680
C127  C     C_2   0.605924 0.123479 0.423402 -0.091420
C128  C     C_2   0.603954 0.873525 0.922008 -0.114777
C129  C     C_3   0.067832 0.607009 0.424346 -0.048291
C130  C     C_3   0.063747 0.390455 0.930685 -0.058293
C131  C     C_3   0.580646 0.094921 0.464064 -0.025626
C132  C     C_3   0.568821 0.893177 0.929445 -0.046803
C133  C     C_1   0.085446 0.575255 0.204387 0.066677
C134  C     C_1   0.084570 0.424962 0.715336 0.044171
C135  C     C_1   0.583562 0.075304 0.203239 0.058671
C136  C     C_1   0.585611 0.924621 0.705711 0.069729
C137  C     C_2   0.109543 0.600035 0.168623 -0.041002
C138  C     C_2   0.110185 0.401069 0.687650 -0.045821
C139  C     C_2   0.605870 0.100767 0.164648 -0.042203
C140  C     C_2   0.609640 0.899880 0.670201 -0.038295
C141  C     C_2   0.121364 0.626344 0.288281 0.225612
C142  C     C_2   0.120518 0.373985 0.807615 0.221666
C143  C     C_2   0.619394 0.126095 0.283342 0.215515
C144  C     C_2   0.621618 0.873392 0.790411 0.227467
O53   O     O_2   0.111886 0.694166 0.339332 -0.628914
O54   O     O_2   0.113181 0.305899 0.867980 -0.628649
O55   O     O_2   0.612387 0.193305 0.354438 -0.624433
O56   O     O_2   0.611400 0.805464 0.841368 -0.628092
C145  C     C_R   0.750661 0.284521 0.186497 0.003050
C146  C     C_R   0.750476 0.713343 0.702248 0.003749
C147  C     C_R   0.252813 0.784890 0.209132 0.003596
C148  C     C_R   0.255036 0.217795 0.735682 0.005054
C149  C     C_R   0.771892 0.280520 0.057204 0.026376
C150  C     C_R   0.772693 0.718183 0.576219 0.026648
C151  C     C_R   0.274644 0.780591 0.081951 0.026598
C152  C     C_R   0.276282 0.222665 0.607096 0.025508
C153  C     C_R   0.768935 0.250472 0.971939 0.006752
C154  C     C_R   0.771329 0.749053 0.495469 0.006848
C155  C     C_R   0.272662 0.750233 0.999061 0.006586
C156  C     C_R   0.273642 0.253045 0.523232 0.005907
C157  C     C_R   0.760179 0.311183 0.288783 0.055693
C158  C     C_R   0.758531 0.685427 0.801094 0.055118
C159  C     C_R   0.261593 0.811929 0.310507 0.055822
C160  C     C_R   0.264383 0.190418 0.836065 0.055480
O57   O     O_2   0.831440 0.341469 0.687900 -0.625309
O58   O     O_2   0.835248 0.659788 0.208150 -0.618058
O59   O     O_2   0.334147 0.842194 0.715207 -0.622538
O60   O     O_2   0.326174 0.158631 0.236569 -0.636887
C161  C     C_R   0.807419 0.275720 0.780353 0.069358
C162  C     C_R   0.808065 0.723840 0.299467 0.060756
C163  C     C_R   0.309872 0.775938 0.804637 0.068916
C164  C     C_R   0.308495 0.227124 0.323406 0.068452
C165  C     C_R   0.258357 0.689032 0.012868 -0.107763
C166  C     C_R   0.258644 0.314002 0.535799 -0.108094
C167  C     C_R   0.752236 0.189657 0.976294 -0.107814
C168  C     C_R   0.757851 0.810322 0.512409 -0.107628
C169  C     C_R   0.237145 0.662891 0.070406 -0.066455
C170  C     C_R   0.237119 0.339762 0.592921 -0.067212
C171  C     C_R   0.730463 0.163603 0.030509 -0.066554
C172  C     C_R   0.736964 0.836410 0.570754 -0.066337
O61   O     O_2   0.194104 0.615322 0.212073 -0.619971
O62   O     O_2   0.192816 0.386641 0.728722 -0.620449
O63   O     O_2   0.686315 0.115293 0.156661 -0.612807
O64   O     O_2   0.694482 0.883918 0.712536 -0.618411
C173  C     C_R   0.786619 0.248832 0.834028 -0.092388
C174  C     C_R   0.789005 0.751278 0.357465 -0.089649
C175  C     C_R   0.290190 0.748552 0.860867 -0.092681
C176  C     C_R   0.290147 0.254833 0.382505 -0.090098
H9    H     H_    0.242968 0.637322 0.037671 0.109684
H10   H     H_    0.242316 0.365409 0.558100 0.110110
H11   H     H_    0.735078 0.138321 0.990780 0.113087
H12   H     H_    0.743220 0.862055 0.539123 0.110512
C177  C     C_3   0.971206 0.663320 0.598914 -0.302109
H13   H     H_    0.954732 0.682327 0.533751 0.059395
H14   H     H_    0.962528 0.637784 0.563618 0.103055
H15   H     H_    0.964311 0.665664 0.717058 0.152463
C178  C     C_3   0.957313 0.357042 0.131996 -0.223218
H16   H     H_    0.936699 0.347863 0.046536 0.037513
H17   H     H_    0.945331 0.351229 0.241319 0.162019
H18   H     H_    0.960374 0.384514 0.123579 0.116435
C179  C     C_3   0.477055 0.147263 0.703096 -0.192450
H19   H     H_    0.457039 0.129331 0.649797 0.103086
H20   H     H_    0.494723 0.133037 0.785041 0.164304
H21   H     H_    0.461297 0.166793 0.761438 0.098109
C180  C     C_3   0.470682 0.836987 0.100367 -0.299009
H22   H     H_    0.462506 0.862796 0.066685 0.103966
H23   H     H_    0.454069 0.818486 0.033394 0.059604
H24   H     H_    0.463523 0.834034 0.218222 0.150816
C181  C     C_3   0.828741 0.449663 0.235109 -0.410856
H25   H     H_    0.811821 0.436059 0.147386 0.128357
H26   H     H_    0.856323 0.437933 0.246193 0.177314
H27   H     H_    0.815437 0.446634 0.344985 0.114987
C182  C     C_3   0.831031 0.525032 0.783753 -0.337160
H28   H     H_    0.805071 0.524568 0.844938 0.084492
H29   H     H_    0.853237 0.536123 0.857810 0.169496
H30   H     H_    0.826717 0.541200 0.681748 0.130365
C183  C     C_3   0.310830 0.960469 0.119736 -0.428698
H31   H     H_    0.280275 0.960125 0.115103 0.122835
H32   H     H_    0.320012 0.951332 0.009633 0.132039
H33   H     H_    0.320971 0.943467 0.212455 0.133701
C184  C     C_3   0.317417 0.044242 0.657716 -0.421897
H34   H     H_    0.287255 0.047926 0.663042 0.121426
H35   H     H_    0.331291 0.057752 0.754132 0.130902
H36   H     H_    0.325995 0.054767 0.548494 0.129273
H37   H     H_    0.812919 0.500747 0.269713 0.092435
H38   H     H_    0.838849 0.472188 0.836020 0.070096
H39   H     H_    0.309615 0.006370 0.245149 0.081804
H40   H     H_    0.311567 0.995997 0.763143 0.083949
H41   H     H_    0.818198 0.490523 0.076075 0.118574
H42   H     H_    0.821061 0.481007 0.646948 0.096869
H43   H     H_    0.317135 0.011982 0.046890 0.116853
H44   H     H_    0.315038 0.994626 0.560959 0.113656
C185  C     C_3   0.114828 0.454541 0.118637 -0.295554
H45   H     H_    0.086048 0.455656 0.153145 0.163749
H46   H     H_    0.118647 0.431358 0.054032 0.051599
H47   H     H_    0.133626 0.453617 0.220892 0.099970
C186  C     C_3   0.116005 0.544454 0.617559 -0.296057
H48   H     H_    0.087345 0.542872 0.653295 0.161195
H49   H     H_    0.135023 0.545318 0.718959 0.095708
H50   H     H_    0.119811 0.567734 0.552755 0.055420
C187  C     C_3   0.612132 0.956806 0.130371 -0.267469
H51   H     H_    0.582267 0.958793 0.147223 0.150864
H52   H     H_    0.618045 0.932617 0.077170 0.053138
H53   H     H_    0.627228 0.957777 0.242191 0.108431
C188  C     C_3   0.614556 0.043129 0.663335 -0.306801
H54   H     H_    0.584483 0.046289 0.668032 0.131693
H55   H     H_    0.626083 0.034788 0.774962 0.119563
H56   H     H_    0.627454 0.067676 0.642432 0.036208
H57   H     H_    0.159186 0.504186 0.863577 0.106838
H58   H     H_    0.160170 0.494829 0.365318 0.105734
H59   H     H_    0.668042 0.004331 0.904875 0.098579
H60   H     H_    0.662323 0.999172 0.397091 0.107220
C189  C     C_3   0.174624 0.453036 0.903076 -0.383226
H61   H     H_    0.178752 0.434428 0.996326 0.137034
H62   H     H_    0.154823 0.443267 0.816475 0.146398
H63   H     H_    0.201561 0.456196 0.850593 0.145946
C190  C     C_3   0.174850 0.546545 0.397804 -0.386955
H64   H     H_    0.201490 0.543478 0.343167 0.144513
H65   H     H_    0.154445 0.556301 0.312678 0.137232
H66   H     H_    0.179471 0.565284 0.489378 0.136556
C191  C     C_3   0.672368 0.950781 0.902966 -0.402628
H67   H     H_    0.672459 0.928704 0.980148 0.140232
H68   H     H_    0.652345 0.946798 0.807563 0.138499
H69   H     H_    0.700213 0.952291 0.856943 0.149673
C192  C     C_3   0.668669 0.052657 0.400604 -0.404613
H70   H     H_    0.668006 0.074679 0.476311 0.125233
H71   H     H_    0.696661 0.052116 0.355723 0.148062
H72   H     H_    0.649115 0.056156 0.303508 0.149034
C193  C     C_3   0.190722 0.501434 0.070221 -0.364198
H73   H     H_    0.183318 0.527258 0.102288 0.144557
H74   H     H_    0.195116 0.485117 0.171360 0.117526
H75   H     H_    0.217273 0.503349 0.013432 0.106482
C194  C     C_3   0.191602 0.499008 0.572147 -0.365878
H76   H     H_    0.184625 0.473151 0.607092 0.145810
H77   H     H_    0.218320 0.497466 0.516549 0.107371
H78   H     H_    0.195395 0.515663 0.671770 0.116668
C195  C     C_3   0.692031 0.988537 0.116192 -0.362362
H79   H     H_    0.688955 0.013836 0.164350 0.145695
H80   H     H_    0.689465 0.968939 0.204815 0.108081
H81   H     H_    0.720318 0.987214 0.074250 0.112380
C196  C     C_3   0.691357 0.012630 0.602508 -0.376675
H82   H     H_    0.688230 0.987161 0.650373 0.142508
H83   H     H_    0.718615 0.013391 0.550830 0.112384
H84   H     H_    0.691312 0.031730 0.693525 0.116765
C197  C     C_3   0.018909 0.664209 0.409671 -0.375821
H85   H     H_    0.048014 0.668139 0.384098 0.151888
H86   H     H_    0.008330 0.639806 0.366858 0.036095
H87   H     H_    0.003637 0.684472 0.349384 0.079371
C198  C     C_3   0.003018 0.338313 0.947298 -0.372262
H88   H     H_    0.999147 0.363795 0.899557 0.029095
H89   H     H_    0.031768 0.329827 0.935781 0.121653
H90   H     H_    0.984370 0.320804 0.884355 0.072736
C199  C     C_3   0.473122 0.185090 0.486072 -0.392132
H91   H     H_    0.487600 0.199565 0.400627 0.107516
H92   H     H_    0.452113 0.168787 0.430688 0.105773
H93   H     H_    0.458593 0.203628 0.555587 0.084253
C200  C     C_3   0.518893 0.836267 0.912756 -0.373669
H94   H     H_    0.508711 0.860823 0.869362 0.035478
H95   H     H_    0.548064 0.832258 0.888874 0.152091
H96   H     H_    0.503630 0.816171 0.851992 0.078247
H97   H     H_    0.041180 0.705043 0.729393 0.124432
H98   H     H_    0.972188 0.287786 0.076169 0.072508
H99   H     H_    0.551029 0.192692 0.563715 0.156138
H100  H     H_    0.541113 0.794633 0.229776 0.126177
H101  H     H_    0.043973 0.715400 0.537408 0.124617
H102  H     H_    0.975063 0.300161 0.264948 0.111950
H103  H     H_    0.517984 0.212693 0.677933 0.051807
H104  H     H_    0.541539 0.783856 0.037702 0.122361
C201  C     C_3   0.003905 0.721407 0.084745 -0.457477
H105  H     H_    0.007289 0.745865 0.025746 0.133497
H106  H     H_    0.988806 0.726230 0.188618 0.128284
H107  H     H_    0.031765 0.711755 0.117519 0.140664
C202  C     C_3   0.042505 0.287438 0.643211 -0.421379
H108  H     H_    0.045345 0.260341 0.616415 0.129382
H109  H     H_    0.069520 0.299279 0.624269 0.153446
H110  H     H_    0.036181 0.289358 0.763920 0.152610
C203  C     C_3   0.534214 0.215885 0.141559 -0.413792
H111  H     H_    0.533082 0.243453 0.121589 0.125790
H112  H     H_    0.534991 0.211114 0.265060 0.153862
H113  H     H_    0.560543 0.207071 0.096938 0.137530
C204  C     C_3   0.504433 0.779122 0.589666 -0.457922
H114  H     H_    0.489333 0.774103 0.693637 0.128582
H115  H     H_    0.507980 0.754736 0.531510 0.133494
H116  H     H_    0.532226 0.788969 0.622267 0.141396
H117  H     H_    0.863051 0.423113 0.000538 0.073711
H118  H     H_    0.867633 0.579701 0.547513 0.104782
H119  H     H_    0.370558 0.918028 0.064454 0.103289
H120  H     H_    0.375864 0.087630 0.609448 0.127108
C205  C     C_3   0.791215 0.367400 0.344929 -0.307885
H121  H     H_    0.789176 0.389794 0.270528 0.105570
H122  H     H_    0.769340 0.370865 0.426435 0.096581
H123  H     H_    0.818151 0.366967 0.409124 0.204624
C206  C     C_3   0.789471 0.628799 0.854427 -0.317273
H124  H     H_    0.791861 0.606848 0.778443 0.115718
H125  H     H_    0.814189 0.630410 0.932550 0.197612
H126  H     H_    0.765145 0.623264 0.921393 0.088185
C207  C     C_3   0.293512 0.867902 0.367419 -0.307981
H127  H     H_    0.294442 0.890321 0.292556 0.107207
H128  H     H_    0.270339 0.872563 0.441540 0.093845
H129  H     H_    0.319311 0.866237 0.439006 0.205264
C208  C     C_3   0.298523 0.135145 0.891446 -0.305823
H130  H     H_    0.299466 0.112967 0.816084 0.103119
H131  H     H_    0.324879 0.137156 0.959000 0.194509
H132  H     H_    0.276188 0.129675 0.968970 0.107124
H133  H     H_    0.110871 0.643525 0.509478 0.117537
H134  H     H_    0.106641 0.354969 0.023206 0.119718
H135  H     H_    0.615864 0.140050 0.513493 0.110896
H136  H     H_    0.611625 0.856149 0.013110 0.116102
H137  H     H_    0.138931 0.752038 0.376970 0.114011
H138  H     H_    0.141008 0.248684 0.905398 0.116164
H139  H     H_    0.639249 0.251418 0.377698 0.114413
H140  H     H_    0.637184 0.746961 0.872499 0.114066
H141  H     H_    0.185396 0.794436 0.337476 0.080941
H142  H     H_    0.187735 0.207027 0.864309 0.081568
H143  H     H_    0.684655 0.293862 0.326693 0.080810
H144  H     H_    0.682525 0.704157 0.828788 0.080202
C209  C     C_3   0.747859 0.310325 0.450741 -0.426393
H145  H     H_    0.724443 0.327742 0.463845 0.110220
H146  H     H_    0.740508 0.284619 0.487846 0.121086
H147  H     H_    0.770639 0.317950 0.531015 0.167398
C210  C     C_3   0.744057 0.684326 0.959585 -0.426371
H148  H     H_    0.737422 0.709749 0.001161 0.124624
H149  H     H_    0.719655 0.667603 0.962435 0.111079
H150  H     H_    0.765204 0.674651 0.043108 0.149203
C211  C     C_3   0.247893 0.811823 0.470261 -0.425674
H151  H     H_    0.224458 0.829440 0.478269 0.110896
H152  H     H_    0.239948 0.786323 0.508036 0.121215
H153  H     H_    0.270106 0.819580 0.553134 0.162425
C212  C     C_3   0.249844 0.188973 0.994165 -0.427850
H154  H     H_    0.240932 0.213900 0.033863 0.120297
H155  H     H_    0.226980 0.170540 0.998467 0.111567
H156  H     H_    0.271818 0.181427 0.078087 0.179136
C213  C     C_3   0.907939 0.330558 0.729641 -0.341827
H157  H     H_    0.895954 0.311818 0.806440 0.097102
H158  H     H_    0.895483 0.329283 0.612919 0.157811
H159  H     H_    0.936894 0.323480 0.723347 0.072797
C214  C     C_3   0.910726 0.671890 0.265899 -0.342536
H160  H     H_    0.900370 0.674233 0.146652 0.162182
H161  H     H_    0.895901 0.689037 0.339917 0.100209
H162  H     H_    0.939140 0.681205 0.278523 0.070755
C215  C     C_3   0.410721 0.828601 0.764158 -0.348459
H163  H     H_    0.395444 0.810869 0.834675 0.100588
H164  H     H_    0.400750 0.827443 0.644112 0.154971
H165  H     H_    0.438914 0.818841 0.777576 0.073565
C216  C     C_3   0.400246 0.163930 0.207096 -0.317866
H166  H     H_    0.384548 0.161816 0.096870 0.166547
H167  H     H_    0.391310 0.185481 0.274749 0.094123
H168  H     H_    0.428423 0.170308 0.184790 0.096235
C217  C     C_3   0.827470 0.269095 0.637249 -0.383188
H169  H     H_    0.848167 0.288171 0.610490 0.158936
H170  H     H_    0.842760 0.245026 0.649879 0.095122
H171  H     H_    0.807451 0.266648 0.539436 0.120644
C218  C     C_3   0.826651 0.728741 0.151352 -0.351555
H172  H     H_    0.856754 0.724885 0.168738 0.116381
H173  H     H_    0.815479 0.711032 0.064553 0.159574
H174  H     H_    0.822447 0.754518 0.104803 0.090090
C219  C     C_3   0.328847 0.769950 0.658390 -0.384709
H175  H     H_    0.349065 0.789315 0.629657 0.161277
H176  H     H_    0.344471 0.746007 0.667397 0.094554
H177  H     H_    0.308045 0.767645 0.563217 0.121752
C220  C     C_3   0.325487 0.232488 0.172244 -0.402760
H178  H     H_    0.340723 0.210744 0.130938 0.160932
H179  H     H_    0.303741 0.239135 0.085082 0.119942
H180  H     H_    0.345253 0.253760 0.181578 0.102172
H181  H     H_    0.280177 0.682398 0.939675 0.067859
H182  H     H_    0.280054 0.320965 0.460740 0.067881
H183  H     H_    0.773202 0.182952 0.899301 0.066999
H184  H     H_    0.779839 0.817105 0.439892 0.068191
H185  H     H_    0.001285 0.721928 0.624497 0.070090
H186  H     H_    0.016958 0.289521 0.170839 0.116662
H187  H     H_    0.544119 0.178887 0.754216 0.116219
H188  H     H_    0.499811 0.778422 0.133156 0.070105
C221  C     C_3   0.131468 0.597684 0.028269 -0.319026
H189  H     H_    0.140061 0.622919 0.989550 0.111308
H190  H     H_    0.155508 0.581019 0.049005 0.135205
H191  H     H_    0.116037 0.586914 0.932911 0.168651
C222  C     C_3   0.130191 0.401736 0.542108 -0.326051
H192  H     H_    0.152851 0.420392 0.548665 0.137882
H193  H     H_    0.140515 0.376560 0.512664 0.106970
H194  H     H_    0.112002 0.408734 0.447038 0.167816
C223  C     C_3   0.615626 0.105444 0.002809 -0.303675
H195  H     H_    0.625696 0.131123 0.978994 0.105565
H196  H     H_    0.636257 0.086472 0.971650 0.135860
H197  H     H_    0.590745 0.102255 0.931409 0.167583
C224  C     C_3   0.632030 0.903015 0.531212 -0.313158
H198  H     H_    0.655808 0.920014 0.553737 0.142536
H199  H     H_    0.641046 0.878049 0.492385 0.109912
H200  H     H_    0.616717 0.913761 0.434940 0.164997
H201  H     H_    0.783665 0.226827 0.763238 0.070430
H202  H     H_    0.786678 0.773977 0.289958 0.068231
H203  H     H_    0.287680 0.726201 0.791933 0.071264
H204  H     H_    0.287319 0.277245 0.313108 0.071444
C225  C     C_3   0.978165 0.438414 0.834053 -0.244540
H205  H     H_    0.993519 0.448380 0.930564 0.154691
H206  H     H_    0.998816 0.421036 0.794165 0.044797
H207  H     H_    0.971616 0.459283 0.753774 0.136331
C226  C     C_3   0.979625 0.562298 0.342014 -0.224232
H208  H     H_    0.996100 0.550308 0.431698 0.155029
H209  H     H_    0.970349 0.542528 0.260702 0.129965
H210  H     H_    0.000272 0.579183 0.296255 0.035665
C227  C     C_3   0.480262 0.938216 0.841633 -0.224815
H211  H     H_    0.496556 0.950364 0.931164 0.153770
H212  H     H_    0.500971 0.921466 0.796569 0.037238
H213  H     H_    0.471066 0.957922 0.759155 0.129550
C228  C     C_3   0.477470 0.065605 0.341415 -0.242126
H214  H     H_    0.492501 0.053706 0.433599 0.150399
H215  H     H_    0.471303 0.045165 0.259323 0.122806
H216  H     H_    0.497152 0.084419 0.302499 0.057426
H217  H     H_    0.058250 0.552558 0.384346 0.034174
H218  H     H_    0.055968 0.445908 0.892816 0.044130
H219  H     H_    0.550661 0.053238 0.363920 0.049663
H220  H     H_    0.559209 0.947565 0.885660 0.031731
C229  C     C_3   0.024497 0.645176 0.017038 -0.282466
H221  H     H_    0.023941 0.623714 0.937886 0.194989
H222  H     H_    0.044105 0.664088 0.975236 0.099241
H223  H     H_    0.035878 0.635587 0.127355 0.029744
C230  C     C_3   0.042659 0.360176 0.537855 -0.286082
H224  H     H_    0.060673 0.356712 0.640238 0.033363
H225  H     H_    0.057335 0.349482 0.442332 0.141670
H226  H     H_    0.038506 0.387289 0.517098 0.153603
C231  C     C_3   0.532901 0.142173 0.096889 -0.361030
H227  H     H_    0.529957 0.115440 0.121310 0.113533
H228  H     H_    0.543932 0.145465 0.983413 0.122994
H229  H     H_    0.553020 0.151992 0.183571 0.109722
C232  C     C_3   0.524592 0.855555 0.519056 -0.277507
H230  H     H_    0.535826 0.865344 0.628865 0.027306
H231  H     H_    0.544382 0.836788 0.478773 0.099213
H232  H     H_    0.523896 0.876938 0.438521 0.196744
H233  H     H_    0.995464 0.698344 0.871325 0.108976
H234  H     H_    0.021581 0.299737 0.424969 0.124050
H235  H     H_    0.507395 0.198084 0.937632 0.106768
H236  H     H_    0.495946 0.802346 0.375511 0.111001
C233  C     C_3   0.942945 0.709911 0.949539 -0.381460
H237  H     H_    0.924652 0.690811 0.894382 0.160946
H238  H     H_    0.930856 0.718539 0.055243 0.113237
H239  H     H_    0.943429 0.732011 0.872282 0.107068
C234  C     C_3   0.976363 0.282775 0.555919 -0.406426
H240  H     H_    0.952243 0.295444 0.499600 0.137489
H241  H     H_    0.979290 0.257809 0.502178 0.115586
H242  H     H_    0.970938 0.278380 0.676966 0.117643
C235  C     C_3   0.466333 0.219101 0.069048 -0.398827
H243  H     H_    0.443416 0.207868 0.998875 0.143431
H244  H     H_    0.458235 0.221644 0.187709 0.113151
H245  H     H_    0.470893 0.244733 0.023082 0.114240
C236  C     C_3   0.443419 0.790229 0.453990 -0.384272
H246  H     H_    0.425087 0.809113 0.396980 0.160968
H247  H     H_    0.444072 0.767997 0.378637 0.107512
H248  H     H_    0.431221 0.781756 0.560195 0.114360
H249  H     H_    0.884706 0.493307 0.306096 0.095520
H250  H     H_    0.900384 0.490612 0.780258 0.064252
H251  H     H_    0.372416 0.981361 0.284533 0.094428
H252  H     H_    0.377866 0.012218 0.794231 0.100785
C237  C     C_3   0.867078 0.539552 0.208262 -0.316546
H253  H     H_    0.853597 0.547014 0.312821 0.057075
H254  H     H_    0.894971 0.550503 0.207786 0.090144
H255  H     H_    0.850588 0.549789 0.109915 0.119616
C238  C     C_3   0.886911 0.453744 0.610468 -0.335275
H256  H     H_    0.878807 0.432905 0.684593 0.047598
H257  H     H_    0.870519 0.451393 0.502736 0.128711
H258  H     H_    0.916391 0.452107 0.586554 0.135345
C239  C     C_3   0.376299 0.033804 0.225521 -0.298747
H259  H     H_    0.406261 0.034305 0.250369 0.065389
H260  H     H_    0.369767 0.051012 0.128484 0.099005
H261  H     H_    0.361373 0.042383 0.324683 0.061853
C240  C     C_3   0.372914 0.962043 0.707022 -0.289138
H262  H     H_    0.402697 0.956637 0.716073 0.074221
H263  H     H_    0.359467 0.952902 0.809006 0.042825
H264  H     H_    0.360789 0.948561 0.606778 0.129327

loop_
_geom_bond_atom_site_label_1
_geom_bond_atom_site_label_2
_geom_bond_distance
_ccdc_geom_bond_type
C103  H139  1.083238 S    
C49   C53   1.339650 D    
C193  H73   1.104672 S    
C23   H7    1.109609 S    
N3    C59   1.483413 S    
C164  C220  1.512016 S    
N4    C60   1.490174 S    
C52   C56   1.337731 D    
C1    C29   1.556600 S    
C163  C219  1.513657 S    
C90   C156  1.419422 A    
C95   C111  1.426084 A    
C188  H54   1.104018 S    
C170  H10   1.083316 S    
C177  H15   1.089776 S    
C51   C55   1.332002 D    
C93   C109  1.419858 A    
C86   C94   1.415709 A    
C149  C153  1.418094 A    
C87   C99   1.412995 A    
Ba1   Ba2   4.797151 S    
C99   H143  1.079205 S    
C201  H106  1.109368 S    
C239  H261  1.108042 S    
C133  C137  1.363836 D    
O12   Ba4   2.769819 S    
C230  H226  1.103028 S    
C6    C10   1.565309 S    
P1    C133  1.869568 S    
C79   C227  1.506675 S    
C83   C131  1.489127 S    
C65   C69   1.429380 A    
C218  H173  1.107257 S    
C198  H90   1.105586 S    
P14   C129  1.885328 S    
C240  H263  1.105039 S    
C62   C66   1.408700 A    
C68   C72   1.424221 A    
C233  H238  1.107451 S    
P6    O26   1.602413 D    
P2    O18   1.758106 S    
C29   C177  1.537193 S    
C14   H250  1.110124 S    
C67   C71   1.426189 A    
P4    O8    1.550314 S    
C96   C112  1.423426 A    
C187  H51   1.106325 S    
C53   H117  1.078104 S    
C196  H84   1.109767 S    
C189  H62   1.098427 S    
Ba2   O46   2.803771 S    
C34   N2    1.393864 Am   
C51   C79   1.339287 D    
C136  C140  1.365231 D    
C192  H71   1.110103 S    
C194  H78   1.108252 S    
N2    C58   1.487213 S    
O21   C29   1.426866 S    
Ba4   O48   2.803771 S    
P10   C45   1.934337 S    
C154  C174  1.407423 A    
C2    H186  1.111198 S    
C197  H87   1.101006 S    
C36   N4    1.396585 Am   
C71   C159  1.428450 A    
C235  H245  1.111018 S    
C92   C154  1.422625 A    
C87   C145  1.438093 A    
C215  H163  1.105182 S    
P11   O31   1.787012 S    
C147  C159  1.430049 A    
C44   C216  1.504500 S    
C159  C211  1.519125 S    
C216  H168  1.082131 S    
C80   C228  1.496240 S    
C102  C106  1.407866 A    
C211  H153  1.109468 S    
C167  C171  1.399646 A    
C209  H145  1.109702 S    
C19   C183  1.524376 S    
C78   C226  1.506026 S    
C56   H120  1.077773 S    
C205  H123  1.109169 S    
C90   C166  1.412352 A    
C194  H77   1.111204 S    
P4    Ba4   3.497305 S    
C63   C151  1.415845 A    
C102  H138  1.083239 S    
C38   C74   1.417607 A    
C238  H256  1.102372 S    
C43   C59   1.374793 D    
C84   C132  1.495507 S    
C190  H66   1.110321 S    
C37   O57   1.219206 D    
C15   C239  1.512631 S    
C21   C185  1.517641 S    
C9    H233  1.086750 S    
N8    C144  1.480293 S    
C3    H187  1.102282 S    
C167  H183  1.080246 S    
P6    O38   1.767431 S    
C193  H75   1.111282 S    
C5    C229  1.548027 S    
Ba3   O48   3.092575 S    
C228  H215  1.108565 S    
P3    Ba3   3.499237 S    
C199  H91   1.100408 S    
C212  H156  1.105610 S    
P8    O28   1.602413 D    
C229  H221  1.106506 S    
C127  H135  1.085178 S    
P8    C51   1.848096 S    
C125  C141  1.352137 D    
C125  H133  1.085578 S    
C52   C80   1.332614 D    
C215  H165  1.098218 S    
P12   O32   1.781517 S    
C75   C163  1.425982 A    
C10   C234  1.537166 S    
C3    C31   1.550318 S    
C178  H18   1.101229 S    
O29   Ba1   2.770299 S    
C34   C66   1.433159 A    
C16   C240  1.518315 S    
C115  C171  1.405748 A    
C32   C180  1.536735 S    
O41   C5    1.418791 S    
N3    C39   1.386758 Am   
O7    Ba4   2.792217 S    
C180  H24   1.091170 S    
C61   C73   1.414466 A    
O43   C7    1.415208 S    
O44   C8    1.418835 S    
C20   H40   1.112422 S    
C217  H170  1.110969 S    
P12   O36   1.547233 D    
C195  H79   1.103061 S    
C176  H204  1.082137 S    
C235  H244  1.107738 S    
C29   C197  1.525894 S    
C39   C75   1.415487 A    
O24   C32   1.426102 S    
C240  H262  1.103956 S    
C208  H131  1.108492 S    
C40   C76   1.412892 A    
C123  O55   1.221570 D    
P8    O47   1.549696 S    
C106  C122  1.414409 A    
C237  H253  1.108338 S    
C43   C47   1.530987 S    
C6    C230  1.526817 S    
P3    O7    1.545450 S    
C221  H190  1.106315 S    
C5    H1    1.083373 S    
C91   C153  1.424781 A    
C3    H99   1.110955 S    
C185  H45   1.104970 S    
C232  H231  1.109702 S    
C4    H100  1.110452 S    
C97   H141  1.079710 S    
C147  C151  1.417484 A    
C204  H114  1.109414 S    
C203  H111  1.110818 S    
C15   C19   1.540631 S    
P9    O41   1.758736 S    
C162  C218  1.512713 S    
C107  C123  1.419030 A    
C200  H95   1.103484 S    
C88   C146  1.438406 A    
C139  C143  1.523095 S    
C191  H67   1.109378 S    
C18   H38   1.110388 S    
C14   C238  1.514239 S    
C162  C174  1.406243 A    
C30   C178  1.537624 S    
O27   Ba3   2.834277 S    
N5    C141  1.476724 S    
C148  C152  1.416175 A    
C179  H21   1.109943 S    
C202  H108  1.111323 S    
C10   C202  1.538697 S    
C234  H240  1.109024 S    
C166  H182  1.081102 S    
C180  H22   1.105261 S    
C11   C235  1.535184 S    
C8    H4    1.082311 S    
C174  H202  1.081240 S    
C64   C76   1.407411 A    
C135  C139  1.349344 D    
C28   C196  1.533565 S    
O23   P16   1.779376 S    
P6    O45   1.549696 S    
C211  H152  1.108660 S    
N2    C38   1.388309 Am   
P4    O4    1.606404 D    
C186  H49   1.106969 S    
C232  H230  1.107772 S    
C108  C124  1.418904 A    
C12   C204  1.538506 S    
C91   C167  1.413413 A    
O30   Ba2   2.755095 S    
C21   C25   1.568490 S    
C92   C168  1.413234 A    
C73   C161  1.425125 A    
C41   C57   1.378776 D    
C183  H32   1.106955 S    
C23   C27   1.567429 S    
C114  C118  1.413544 A    
C199  H93   1.112474 S    
C28   H60   1.106930 S    
C89   C93   1.409096 A    
C182  H30   1.110168 S    
P7    O27   1.606698 D    
C34   O50   1.219560 D    
C81   C129  1.495928 S    
C24   C188  1.522463 S    
C46   C78   1.508970 S    
C122  O54   1.221080 D    
O40   C15   1.406558 S    
C226  H208  1.080693 S    
C86   C98   1.411620 A    
N7    C123  1.393701 Am   
C187  H52   1.099584 S    
C87   C95   1.414722 A    
C11   C203  1.543532 S    
P13   C130  1.913268 S    
C85   C93   1.414277 A    
C205  H122  1.107232 S    
C218  H172  1.109388 S    
C111  C115  1.405380 A    
C184  H35   1.110721 S    
C222  H193  1.107172 S    
C6    H2    1.064438 S    
C120  N8    1.390944 Am   
C12   C236  1.540245 S    
C126  C130  1.498918 S    
C195  H81   1.111209 S    
C178  H17   1.101679 S    
C70   C158  1.430416 A    
C210  H149  1.109545 S    
C138  C142  1.542568 S    
C224  H199  1.108040 S    
C13   C237  1.523114 S    
C209  H147  1.108415 S    
C63   C67   1.409066 A    
O13   P14   1.535418 D    
P16   C131  1.861303 S    
C219  H175  1.101109 S    
C41   C45   1.516500 S    
O22   C30   1.427272 S    
C225  H206  1.093616 S    
O15   P16   1.537553 D    
N6    C122  1.398692 Am   
Ba3   Ba4   4.797151 S    
C17   H41   1.109909 S    
C116  C120  1.415574 A    
C185  H47   1.108060 S    
C62   C150  1.418712 A    
C227  H211  1.081876 S    
C45   C77   1.528207 S    
C117  O61   1.219664 D    
C204  H116  1.109547 S    
C220  H179  1.109430 S    
C119  O63   1.221511 D    
C120  O64   1.219720 D    
P12   C47   1.923646 S    
C206  H126  1.108350 S    
C13   H249  1.101251 S    
C85   C147  1.434618 A    
P7    O48   1.554632 S    
C36   O52   1.218400 D    
C202  H110  1.104945 S    
C213  H159  1.094704 S    
C212  H154  1.108043 S    
P3    C135  1.856057 S    
C64   C68   1.404701 A    
C77   C225  1.496934 S    
C104  H140  1.083211 S    
C101  C105  1.407930 A    
C62   C74   1.412315 A    
C191  H69   1.110336 S    
C114  C170  1.406547 A    
C145  C149  1.418594 A    
C104  C108  1.408033 A    
C101  H137  1.083217 S    
C55   H119  1.080742 S    
C201  H105  1.111150 S    
O3    Ba3   2.833155 S    
C110  C114  1.403994 A    
C31   C179  1.525625 S    
C230  H225  1.107080 S    
C25   H57   1.101654 S    
C107  C111  1.405378 A    
C72   C208  1.518912 S    
C198  H89   1.108834 S    
C175  H203  1.082133 S    
O31   Ba3   2.770299 S    
C164  C176  1.405517 A    
C105  C109  1.401982 A    
C126  H134  1.084927 S    
C233  H237  1.109023 S    
C27   C195  1.532358 S    
C221  H191  1.080718 S    
C25   C193  1.531925 S    
C64   C152  1.411901 A    
C117  N5    1.390077 Am   
C140  C224  1.509747 S    
P6    Ba2   3.499953 S    
O9    P14   1.766239 S    
C113  C169  1.406189 A    
C100  H144  1.078936 S    
C196  H83   1.111079 S    
O42   C6    1.414925 S    
C24   C28   1.562596 S    
C207  H128  1.107871 S    
C71   C207  1.518945 S    
P11   O35   1.545897 D    
O37   C14   1.399263 S    
C28   C192  1.535865 S    
C82   C134  1.335921 D    
C192  H70   1.106460 S    
C33   N1    1.392947 Am   
O16   P15   1.536033 D    
C94   C110  1.419739 A    
C32   C200  1.525420 S    
C150  C154  1.417288 A    
C227  H213  1.109290 S    
P1    O1    1.602112 D    
C108  C112  1.402420 A    
C229  H223  1.107568 S    
P3    O3    1.602112 D    
C197  H86   1.106082 S    
C98   H142  1.079561 S    
C223  H195  1.107417 S    
P4    O20   1.761852 S    
C208  H132  1.107485 S    
Ba1   O46   3.092575 S    
C42   C46   1.533482 S    
C116  C172  1.406479 A    
C3    H103  1.111843 S    
O9    Ba1   2.754610 S    
P2    C134  1.899463 S    
C218  H174  1.111374 S    
C161  C217  1.513799 S    
C98   C102  1.400743 A    
C236  H247  1.111196 S    
C13   C17   1.543805 S    
P10   O42   1.781964 S    
P5    C50   1.846638 S    
C23   C187  1.508830 S    
C26   C190  1.536184 S    
P5    O46   1.554632 S    
C36   C68   1.430896 A    
C163  C175  1.404264 A    
C190  H65   1.101624 S    
C90   C94   1.409347 A    
C39   O59   1.219452 D    
C112  C116  1.404082 A    
O5    Ba2   2.792217 S    
C88   C96   1.415432 A    
C182  H29   1.108191 S    
C193  H74   1.107784 S    
C207  H127  1.109378 S    
Ba3   O47   2.790695 S    
C228  H214  1.068792 S    
C115  C119  1.415152 A    
C238  H257  1.103962 S    
C19   H39   1.112836 S    
C211  H151  1.109714 S    
C30   C198  1.504727 S    
C41   C213  1.503207 S    
C26   H58   1.102765 S    
C188  H55   1.103583 S    
O17   C21   1.398085 S    
C128  C132  1.503668 S    
C203  H113  1.110693 S    
P1    O5    1.545450 S    
C54   C58   1.505910 S    
C201  H107  1.109550 S    
C8    C232  1.547850 S    
P7    Ba3   3.497974 S    
O10   P13   1.740482 S    
O11   Ba3   2.754610 S    
C9    C233  1.539855 S    
C208  H130  1.110116 S    
C232  H232  1.106067 S    
C42   C58   1.376733 D    
C137  C141  1.538610 S    
C152  C156  1.415878 A    
O8    Ba3   2.805314 S    
C49   C77   1.348448 D    
C189  H63   1.110072 S    
N1    C57   1.487503 S    
C48   C80   1.502385 S    
C165  C169  1.401531 A    
C231  H227  1.090477 S    
P8    O40   1.764200 S    
C127  C131  1.512896 S    
O38   C13   1.413034 S    
O1    Ba1   2.833155 S    
O12   P15   1.769823 S    
C47   C79   1.510850 S    
C233  H239  1.111233 S    
O25   Ba1   2.834277 S    
P1    Ba1   3.499237 S    
C4    C32   1.557752 S    
C139  C223  1.500351 S    
C181  H26   1.107259 S    
O20   C24   1.397397 S    
C85   C97   1.412202 A    
C1    H97   1.109980 S    
C11   H235  1.105225 S    
C148  C160  1.432747 A    
C151  C155  1.416266 A    
C22   H6    1.109077 S    
Ba2   O45   3.090453 S    
P2    Ba2   3.497305 S    
C177  H14   1.105767 S    
O10   Ba2   2.769819 S    
C126  C142  1.355143 D    
C140  C144  1.541603 S    
C192  H72   1.097226 S    
C234  H242  1.109862 S    
C223  H196  1.110184 S    
C200  H94   1.106052 S    
C53   C57   1.519171 S    
C216  H167  1.106071 S    
C21   H5    1.110181 S    
C223  H197  1.086534 S    
O4    Ba4   2.833873 S    
Ba4   O47   3.090453 S    
C182  H28   1.109913 S    
C56   C60   1.522619 S    
O28   Ba4   2.833556 S    
C15   H251  1.109010 S    
C38   O58   1.219920 D    
C239  H260  1.111924 S    
C72   C160  1.431772 A    
C156  C176  1.407569 A    
C231  H229  1.106819 S    
C172  H12   1.083308 S    
O6    Ba1   2.805314 S    
P5    O25   1.606698 D    
C203  H112  1.106065 S    
C118  O62   1.219882 D    
C137  C221  1.509131 S    
C105  C121  1.415834 A    
C20   C184  1.523133 S    
C227  H212  1.096802 S    
C187  H53   1.108842 S    
O24   P15   1.765998 S    
C169  H9    1.083331 S    
C27   C191  1.535350 S    
C171  H11   1.083366 S    
C124  O56   1.220950 D    
O18   C22   1.396439 S    
C206  H124  1.110728 S    
C186  H48   1.104847 S    
O21   P14   1.765234 S    
C180  H23   1.107852 S    
C183  H31   1.110276 S    
C14   C18   1.537448 S    
C228  H216  1.099889 S    
C199  H92   1.100532 S    
C134  C138  1.363442 D    
C43   C215  1.505453 S    
C74   C162  1.423777 A    
C17   C181  1.526617 S    
C61   C65   1.412042 A    
C69   C205  1.517739 S    
C18   C182  1.528720 S    
P1    O17   1.758379 S    
O2    Ba2   2.833873 S    
P9    O29   1.787678 S    
N6    C142  1.478942 S    
C181  H25   1.109870 S    
C54   H118  1.085049 S    
P3    O19   1.765021 S    
O26   Ba2   2.833556 S    
P11   O43   1.764355 S    
C40   O60   1.217625 D    
C237  H255  1.108963 S    
C63   C75   1.413110 A    
C205  H121  1.105285 S    
C189  H61   1.110235 S    
C222  H192  1.107975 S    
C178  H16   1.102398 S    
C165  H181  1.080994 S    
C127  C143  1.355891 D    
C35   N3    1.392677 Am   
C238  H258  1.104641 S    
C1    H185  1.111470 S    
C128  H136  1.085467 S    
C217  H171  1.108617 S    
C99   C103  1.401506 A    
C195  H80   1.109352 S    
O22   P13   1.787216 S    
P11   C48   1.912180 S    
C82   H218  1.082546 S    
C76   C164  1.424167 A    
P9    O33   1.547692 D    
P9    C46   1.928994 S    
C153  C173  1.406428 A    
C224  H198  1.108388 S    
C212  H155  1.109764 S    
C237  H254  1.103637 S    
N1    C37   1.386114 Am   
C22   C26   1.565420 S    
C213  H158  1.108634 S    
C214  H161  1.106081 S    
C168  H184  1.080983 S    
C24   H8    1.108993 S    
C185  H46   1.099999 S    
C42   C214  1.505133 S    
C230  H224  1.100412 S    
N7    C143  1.474680 S    
C113  C117  1.413012 A    
O23   C31   1.425019 S    
O11   P16   1.775996 S    
C204  H115  1.111149 S    
C220  H178  1.101485 S    
C82   C130  1.522429 S    
C103  C107  1.406864 A    
N8    C124  1.397316 Am   
C200  H96   1.100632 S    
C210  H150  1.109043 S    
C50   C54   1.334668 D    
C81   C133  1.326261 D    
C27   H59   1.105024 S    
C191  H68   1.100128 S    
O19   C23   1.397621 S    
C2    C30   1.542348 S    
C157  C209  1.520012 S    
C145  C157  1.429233 A    
P2    O2    1.606404 D    
C55   C59   1.503698 S    
C84   C136  1.325952 D    
C44   C48   1.528411 S    
C179  H20   1.100760 S    
C202  H109  1.108345 S    
C188  H56   1.101335 S    
C100  C104  1.403076 A    
C234  H241  1.110963 S    
P5    O37   1.750003 S    
C7    H3    1.098507 S    
P10   O30   1.766666 S    
C158  C210  1.519722 S    
P7    O39   1.764774 S    
C236  H248  1.107535 S    
C216  H166  1.109550 S    
C217  H169  1.100718 S    
C97   C101  1.402014 A    
P5    Ba1   3.497974 S    
C91   C95   1.411238 A    
P6    C49   1.893765 S    
C177  H13   1.108032 S    
P4    C136  1.873165 S    
C119  N7    1.390953 Am   
C239  H259  1.101793 S    
O32   Ba4   2.755095 S    
C186  H50   1.098579 S    
C125  C129  1.501217 S    
O14   P13   1.535491 D    
C138  C222  1.507326 S    
C33   C65   1.437242 A    
C26   C194  1.532474 S    
C213  H157  1.108173 S    
C209  H146  1.108691 S    
C69   C157  1.428472 A    
C44   C60   1.384223 D    
C88   C100  1.412913 A    
C92   C96   1.409740 A    
N5    C121  1.396965 Am   
C160  C212  1.517797 S    
C168  C172  1.402156 A    
C183  H33   1.110096 S    
C83   C135  1.317624 D    
C214  H160  1.106127 S    
C61   C149  1.423100 A    
C19   H43   1.112463 S    
C231  H228  1.104584 S    
C20   H44   1.112777 S    
C198  H88   1.103045 S    
C173  H201  1.081285 S    
O39   C16   1.406167 S    
C210  H148  1.109034 S    
C226  H209  1.109873 S    
C66   C70   1.426919 A    
C181  H27   1.110963 S    
C226  H210  1.096689 S    
C16   C20   1.541322 S    
C22   C186  1.512047 S    
C9    C201  1.538455 S    
P2    O6    1.550314 S    
C7    C231  1.523708 S    
C240  H264  1.111367 S    
C1    H101  1.112346 S    
C179  H19   1.109474 S    
C196  H82   1.103982 S    
C225  H205  1.074786 S    
C184  H36   1.108184 S    
C5    C9    1.563214 S    
C86   C148  1.434854 A    
C222  H194  1.080609 S    
C89   C165  1.412955 A    
C84   H220  1.082988 S    
C7    C11   1.569364 S    
C2    H102  1.098503 S    
C2    H98   1.112265 S    
C35   C67   1.430294 A    
P7    C52   1.850430 S    
C166  C170  1.401491 A    
C35   O51   1.219387 D    
C70   C206  1.519822 S    
C4    H104  1.112544 S    
P10   O34   1.548656 D    
C155  C175  1.405911 A    
C33   O49   1.218810 D    
C225  H207  1.108441 S    
C17   H37   1.113598 S    
C194  H76   1.105314 S    
C146  C150  1.418486 A    
C161  C173  1.402668 A    
C214  H162  1.098315 S    
C18   H42   1.112743 S    
C224  H200  1.081650 S    
C215  H164  1.106376 S    
C12   H236  1.086536 S    
P15   C132  1.890435 S    
C219  H177  1.108942 S    
C219  H176  1.110953 S    
C197  H85   1.103429 S    
C4    H188  1.111607 S    
C10   H234  1.100034 S    
C89   C155  1.420596 A    
C235  H243  1.110261 S    
Ba1   O45   2.790695 S    
P8    Ba4   3.499953 S    
C109  C113  1.403684 A    
C207  H129  1.108925 S    
C184  H34   1.110299 S    
C8    C12   1.562223 S    
C236  H246  1.108947 S    
C220  H180  1.110526 S    
C121  O53   1.220998 D    
C106  C110  1.401213 A    
C50   C78   1.339224 D    
C81   H217  1.082872 S    
C229  H222  1.109614 S    
C31   C199  1.534554 S    
C206  H125  1.109762 S    
C118  N6    1.390734 Am   
P12   O44   1.759121 S    
C83   H219  1.080146 S    
C128  C144  1.354827 D    
C37   C73   1.417842 A    
C16   H252  1.104446 S    
C190  H64   1.109802 S    
C221  H189  1.108404 S    
C25   C189  1.533447 S    
C146  C158  1.431905 A    
N4    C40   1.388519 Am   
