data_mof_unit_23978.cif
_audit_creation_date              2012-12-11T15:22:20-0500
_audit_creation_method            fapswitch 2.2
_symmetry_space_group_name_H-M    P1
_symmetry_Int_Tables_number       1
_space_group_crystal_system       triclinic
_cell_length_a                    22.443918
_cell_length_b                    12.973023
_cell_length_c                    27.036518
_cell_angle_alpha                 89.955698
_cell_angle_beta                  90.205812
_cell_angle_gamma                 90.372073
_cell_volume                      7871.88133458

loop_
_atom_site_label
_atom_site_type_symbol
_atom_type_description
_atom_site_fract_x
_atom_site_fract_y
_atom_site_fract_z
_atom_type_partial_charge
C1    C     C_R   0.720849 0.345441 0.178250 0.542991
C2    C     C_R   0.279122 0.344724 0.822009 0.561008
C3    C     C_R   0.220904 0.844705 0.178033 0.547059
C4    C     C_R   0.779154 0.845442 0.821799 0.556271
C5    C     C_R   0.475761 0.167060 0.870683 -0.003977
C6    C     C_R   0.534274 0.159824 0.125143 -0.004578
C7    C     C_R   0.965819 0.660228 0.874835 -0.005289
C8    C     C_R   0.024261 0.666338 0.129314 -0.003663
C9    C     C_R   0.515220 0.251715 0.102860 -0.139871
C10   C     C_R   0.469660 0.258150 0.898452 -0.134259
C11   C     C_R   0.030002 0.757982 0.101737 -0.134059
C12   C     C_R   0.984514 0.752500 0.897301 -0.139534
C13   C     C_R   0.504475 0.254907 0.051686 0.015849
C14   C     C_R   0.483593 0.259098 0.948907 0.012934
C15   C     C_R   0.016091 0.759077 0.051279 0.012871
C16   C     C_R   0.995253 0.755435 0.948486 0.016160
C17   C     C_R   0.514533 0.165943 0.022750 0.062724
C18   C     C_R   0.504889 0.168419 0.971395 0.064006
C19   C     C_R   0.995174 0.667950 0.028599 0.064024
C20   C     C_R   0.985553 0.665776 0.977239 0.062853
C21   C     C_R   0.484582 0.345464 0.028734 -0.136768
C22   C     C_R   0.473864 0.347370 0.977739 -0.133984
C23   C     C_R   0.025470 0.848034 0.022633 -0.133983
C24   C     C_R   0.014775 0.846388 0.971630 -0.136540
C25   C     C_R   0.737024 0.972448 0.127333 0.035425
C26   C     C_R   0.258209 0.948491 0.868134 0.024522
C27   C     C_R   0.241494 0.448339 0.131911 0.024414
C28   C     C_R   0.762916 0.472848 0.872785 0.034206
C29   C     C_R   0.755535 0.050613 0.094844 -0.146460
C30   C     C_R   0.203979 0.964397 0.892636 -0.162890
C31   C     C_R   0.295872 0.464526 0.107482 -0.163832
C32   C     C_R   0.743446 0.550158 0.905060 -0.147615
C33   C     C_R   0.754842 0.035243 0.044439 -0.137542
C34   C     C_R   0.199048 0.945420 0.943091 -0.135667
C35   C     C_R   0.300845 0.445447 0.057059 -0.136077
C36   C     C_R   0.744478 0.535370 0.955501 -0.137421
C37   C     C_R   0.736522 0.940591 0.025007 0.006704
C38   C     C_R   0.248749 0.912641 0.970290 0.010750
C39   C     C_R   0.251054 0.412273 0.029790 0.010626
C40   C     C_R   0.763955 0.442004 0.975190 0.007755
C41   C     C_R   0.717160 0.861556 0.056822 -0.084646
C42   C     C_R   0.301530 0.889017 0.945176 -0.085285
C43   C     C_R   0.198073 0.388355 0.054849 -0.085286
C44   C     C_R   0.784276 0.363880 0.943619 -0.084559
C45   C     C_R   0.555579 0.156639 0.176584 0.543325
C46   C     C_R   0.446321 0.157853 0.822322 0.551451
C47   C     C_R   0.053689 0.657558 0.177676 0.549221
C48   C     C_R   0.944471 0.656884 0.823398 0.545702
C49   C     C_R   0.717426 0.875985 0.108700 0.139269
C50   C     C_R   0.306088 0.901024 0.893818 0.144726
C51   C     C_R   0.193423 0.400556 0.106198 0.144811
C52   C     C_R   0.783858 0.377859 0.891714 0.139453
C53   C     C_R   0.697784 0.876163 0.943652 -0.111924
C54   C     C_R   0.280452 0.827943 0.048931 -0.104885
C55   C     C_R   0.219136 0.327387 0.951087 -0.104633
C56   C     C_R   0.802841 0.379761 0.056797 -0.112538
C57   C     C_R   0.705871 0.857898 0.892903 0.124534
C58   C     C_R   0.279663 0.818199 0.100218 0.138959
C59   C     C_R   0.220102 0.317600 0.899794 0.137508
C60   C     C_R   0.794553 0.361167 0.107527 0.125703
C61   C     C_R   0.804773 0.935250 0.899112 -0.169368
C62   C     C_R   0.206567 0.955618 0.104138 -0.163329
C63   C     C_R   0.293999 0.455394 0.895971 -0.162730
C64   C     C_R   0.694951 0.433321 0.100659 -0.169198
C65   C     C_R   0.795937 0.954019 0.948790 -0.141463
C66   C     C_R   0.210890 0.969216 0.053162 -0.128937
C67   C     C_R   0.289566 0.468955 0.946934 -0.129000
C68   C     C_R   0.703971 0.452473 0.051046 -0.141966
C69   C     C_R   0.743038 0.923038 0.971686 0.012297
C70   C     C_R   0.246196 0.902849 0.024791 0.015607
C71   C     C_R   0.253737 0.402461 0.975276 0.015650
C72   C     C_R   0.757345 0.424300 0.028489 0.011704
C73   C     C_R   0.761130 0.884153 0.870761 0.040695
C74   C     C_R   0.239019 0.877745 0.128048 0.040844
C75   C     C_R   0.261150 0.377429 0.872013 0.039569
C76   C     C_R   0.738882 0.384575 0.129304 0.041625
C77   C     C_R   0.532611 0.163809 0.372754 0.022819
C78   C     C_R   0.474834 0.163138 0.629958 0.019320
C79   C     C_R   0.032264 0.663785 0.372624 0.023285
C80   C     C_R   0.974682 0.663072 0.629890 0.019321
C81   C     C_R   0.516514 0.257414 0.394986 -0.131527
C82   C     C_R   0.499317 0.253791 0.609958 -0.148981
C83   C     C_R   0.016431 0.757468 0.394906 -0.131544
C84   C     C_R   0.999078 0.753700 0.609795 -0.147801
C85   C     C_R   0.506814 0.261632 0.446135 -0.123933
C86   C     C_R   0.514041 0.258035 0.559630 -0.117605
C87   C     C_R   0.006585 0.761577 0.446032 -0.124180
C88   C     C_R   0.013667 0.757850 0.559446 -0.116900
C89   C     C_R   0.731178 0.002817 0.179158 0.525662
C90   C     C_R   0.268195 0.999881 0.820056 0.546744
C91   C     C_R   0.231712 0.499681 0.179946 0.545604
C92   C     C_R   0.768824 0.503257 0.820920 0.527423
C93   C     C_R   0.515455 0.173173 0.475445 0.034753
C94   C     C_R   0.503358 0.172004 0.529069 0.038481
C95   C     C_R   0.014834 0.672911 0.475280 0.034840
C96   C     C_R   0.002855 0.671801 0.528926 0.038487
C97   C     C_R   0.532851 0.081141 0.452694 -0.132946
C98   C     C_R   0.480733 0.081163 0.550134 -0.128117
C99   C     C_R   0.031876 0.580742 0.452461 -0.132800
C100  C     C_R   0.980242 0.581023 0.550066 -0.128529
C101  C     C_R   0.538601 0.075420 0.402133 -0.134740
C102  C     C_R   0.469217 0.075595 0.599954 -0.126690
C103  C     C_R   0.037728 0.575165 0.401910 -0.134989
C104  C     C_R   0.968949 0.575494 0.599920 -0.127113
C105  C     C_R   0.740239 0.950870 0.369645 0.037487
C106  C     C_R   0.259857 0.952638 0.629005 0.037926
C107  C     C_R   0.240276 0.450610 0.369611 0.037667
C108  C     C_R   0.760120 0.453344 0.628861 0.037880
C109  C     C_R   0.697084 0.972228 0.405394 -0.150852
C110  C     C_R   0.308763 0.957834 0.597014 -0.144720
C111  C     C_R   0.196443 0.470001 0.405064 -0.151423
C112  C     C_R   0.808684 0.461264 0.596632 -0.144216
C113  C     C_R   0.703510 0.936471 0.453138 -0.112485
C114  C     C_R   0.303537 0.927758 0.548304 -0.101564
C115  C     C_R   0.202848 0.434362 0.452826 -0.113133
C116  C     C_R   0.803637 0.431084 0.547921 -0.101682
C117  C     C_R   0.753147 0.877906 0.465806 0.029175
C118  C     C_R   0.249093 0.891316 0.530338 0.037257
C119  C     C_R   0.253034 0.377470 0.465785 0.028552
C120  C     C_R   0.749657 0.392189 0.530180 0.037362
C121  C     C_R   0.795825 0.853040 0.429970 -0.132383
C122  C     C_R   0.200204 0.880901 0.562294 -0.127822
C123  C     C_R   0.296321 0.354268 0.430193 -0.132726
C124  C     C_R   0.701099 0.379565 0.562303 -0.127697
C125  C     C_R   0.790007 0.889344 0.381391 -0.018541
C126  C     C_R   0.205027 0.910567 0.612179 -0.010691
C127  C     C_R   0.290703 0.390941 0.381673 -0.018218
C128  C     C_R   0.705819 0.409059 0.612216 -0.011356
C129  C     C_R   0.817227 0.889394 0.538933 -0.129682
C130  C     C_R   0.199184 0.936266 0.452376 -0.148281
C131  C     C_R   0.317092 0.389236 0.538951 -0.129777
C132  C     C_R   0.699205 0.436129 0.452394 -0.148504
C133  C     C_R   0.720522 0.346331 0.322410 0.545559
C134  C     C_R   0.294328 0.309350 0.672420 0.560765
C135  C     C_R   0.220517 0.846278 0.322429 0.546509
C136  C     C_R   0.794327 0.809367 0.672411 0.560178
C137  C     C_R   0.827980 0.879321 0.589665 0.134271
C138  C     C_R   0.197171 0.940718 0.400887 0.136597
C139  C     C_R   0.327911 0.379209 0.589664 0.134233
C140  C     C_R   0.696938 0.440436 0.400915 0.136773
C141  C     C_R   0.730937 0.794349 0.597695 -0.147546
C142  C     C_R   0.280583 0.821850 0.397906 -0.153650
C143  C     C_R   0.230843 0.294384 0.597789 -0.146734
C144  C     C_R   0.781075 0.323092 0.397720 -0.154288
C145  C     C_R   0.719991 0.808043 0.547461 0.133858
C146  C     C_R   0.283764 0.820854 0.449387 0.130612
C147  C     C_R   0.219830 0.308005 0.547570 0.133875
C148  C     C_R   0.784497 0.322308 0.449195 0.130782
C149  C     C_R   0.763953 0.854494 0.517875 0.023214
C150  C     C_R   0.242352 0.878038 0.476821 0.029868
C151  C     C_R   0.263773 0.354382 0.517920 0.023552
C152  C     C_R   0.742820 0.378711 0.476712 0.029650
C153  C     C_R   0.784285 0.829422 0.619377 0.002744
C154  C     C_R   0.235831 0.877278 0.373248 0.015706
C155  C     C_R   0.284234 0.329405 0.619410 0.003472
C156  C     C_R   0.735869 0.377630 0.373180 0.014898
C157  C     C_R   0.554804 0.158302 0.321906 0.533904
C158  C     C_R   0.446770 0.158543 0.678917 0.518531
C159  C     C_R   0.054735 0.658301 0.321866 0.532130
C160  C     C_R   0.946747 0.658537 0.678901 0.520846
C161  C     C_R   0.732016 0.000052 0.321960 0.534127
C162  C     C_R   0.268105 0.001173 0.677386 0.522029
C163  C     C_R   0.232011 0.500078 0.321980 0.532491
C164  C     C_R   0.768114 0.501167 0.677399 0.523347
C165  C     C_R   0.542301 0.071089 0.096006 -0.129124
C166  C     C_R   0.500813 0.079468 0.892555 -0.136928
C167  C     C_R   0.999599 0.578149 0.107247 -0.137585
C168  C     C_R   0.958184 0.570861 0.903801 -0.128577
C169  C     C_R   0.533770 0.073972 0.045146 0.009330
C170  C     C_R   0.514905 0.079100 0.942798 0.010913
C171  C     C_R   0.985520 0.577934 0.057006 0.011262
C172  C     C_R   0.966699 0.573422 0.954658 0.009709
C173  C     C_R   0.535928 0.989156 0.965383 -0.145222
C174  C     C_R   0.545138 0.986492 0.016318 -0.134890
C175  C     C_R   0.955685 0.485195 0.983298 -0.135244
C176  C     C_R   0.964873 0.487553 0.034236 -0.145577
Cr1   Cr    Cr6+3 0.756570 0.170940 0.251190 1.014605
Cr2   Cr    Cr6+3 0.243430 0.170940 0.748810 1.011551
Cr3   Cr    Cr6+3 0.256570 0.670940 0.251190 1.012146
Cr4   Cr    Cr6+3 0.743430 0.670940 0.748810 1.012977
Cr5   Cr    Cr6+3 0.623740 0.299110 0.249580 1.015262
Cr6   Cr    Cr6+3 0.376260 0.299110 0.750420 1.005413
Cr7   Cr    Cr6+3 0.123740 0.799110 0.249580 1.018575
Cr8   Cr    Cr6+3 0.876260 0.799110 0.750420 1.001916
Cr9   Cr    Cr6+3 0.625990 0.036240 0.250480 1.012155
Cr10  Cr    Cr6+3 0.374010 0.036240 0.749520 1.011605
Cr11  Cr    Cr6+3 0.125990 0.536240 0.250480 1.011628
Cr12  Cr    Cr6+3 0.874010 0.536240 0.749520 1.013274
H1    H     H_    0.505701 0.009377 0.871198 0.118572
H2    H     H_    0.558319 0.000166 0.112465 0.143902
H3    H     H_    0.942477 0.499554 0.887218 0.144899
H4    H     H_    0.995003 0.507606 0.128441 0.119230
H5    H     H_    0.847597 0.956466 0.883666 0.134942
H6    H     H_    0.175871 0.003423 0.124581 0.124725
H7    H     H_    0.325053 0.503347 0.875571 0.126402
H8    H     H_    0.651794 0.452381 0.115810 0.136467
H9    H     H_    0.703710 0.788723 0.040761 0.098471
H10   H     H_    0.339769 0.863555 0.965942 0.100799
H11   H     H_    0.159768 0.362544 0.034040 0.100844
H12   H     H_    0.798513 0.291967 0.959901 0.097706
H13   H     H_    0.512386 0.326957 0.373088 0.117151
H14   H     H_    0.505516 0.321580 0.632747 0.099265
H15   H     H_    0.012672 0.827168 0.373076 0.117847
H16   H     H_    0.005259 0.821593 0.632500 0.098411
H17   H     H_    0.469973 0.013999 0.528052 0.098815
H18   H     H_    0.542802 0.012557 0.473915 0.103018
H19   H     H_    0.969310 0.513872 0.528036 0.098938
H20   H     H_    0.041557 0.511950 0.473608 0.102735
H21   H     H_    0.452102 0.003261 0.614117 0.127952
H22   H     H_    0.551910 0.002166 0.386625 0.133227
H23   H     H_    0.951835 0.503186 0.614129 0.129082
H24   H     H_    0.050747 0.501796 0.386356 0.132414
H25   H     H_    0.492752 0.333493 0.462578 0.091659
H26   H     H_    0.532854 0.328420 0.544654 0.088462
H27   H     H_    0.992776 0.833555 0.462507 0.091842
H28   H     H_    0.032454 0.828211 0.544426 0.088199
H29   H     H_    0.659709 0.021459 0.396837 0.127290
H30   H     H_    0.350488 0.991483 0.609007 0.125365
H31   H     H_    0.158539 0.517863 0.396320 0.128290
H32   H     H_    0.849909 0.496920 0.608498 0.124653
H33   H     H_    0.849769 0.926256 0.515293 0.105547
H34   H     H_    0.167622 0.980344 0.473503 0.089636
H35   H     H_    0.349664 0.425969 0.515304 0.105193
H36   H     H_    0.667482 0.479703 0.473613 0.089831
H37   H     H_    0.543997 0.920281 0.943815 0.095119
H38   H     H_    0.560804 0.915836 0.033218 0.106035
H39   H     H_    0.940308 0.414211 0.966249 0.105528
H40   H     H_    0.957074 0.418152 0.055667 0.094173
H41   H     H_    0.671284 0.959072 0.480766 0.138545
H42   H     H_    0.341229 0.938841 0.523880 0.131021
H43   H     H_    0.170132 0.455927 0.480244 0.139931
H44   H     H_    0.840996 0.443888 0.523329 0.130252
H45   H     H_    0.697244 0.755748 0.619682 0.139049
H46   H     H_    0.310563 0.772559 0.377516 0.135249
H47   H     H_    0.197167 0.255825 0.619811 0.139063
H48   H     H_    0.811273 0.274338 0.377253 0.134976
H49   H     H_    0.834117 0.807210 0.440348 0.107711
H50   H     H_    0.158227 0.851723 0.547915 0.102734
H51   H     H_    0.335034 0.309693 0.440763 0.107629
H52   H     H_    0.659471 0.348635 0.548059 0.103196
H53   H     H_    0.450227 0.326167 0.881749 0.130915
H54   H     H_    0.509824 0.320552 0.125065 0.111701
H55   H     H_    0.989621 0.821791 0.875238 0.112322
H56   H     H_    0.049134 0.826471 0.118590 0.130825
H57   H     H_    0.457293 0.417482 0.960942 0.101353
H58   H     H_    0.476656 0.414384 0.050285 0.097166
H59   H     H_    0.022424 0.915842 0.950224 0.097092
H60   H     H_    0.041749 0.918508 0.039580 0.101092
H61   H     H_    0.768789 0.125952 0.108441 0.154438
H62   H     H_    0.166082 0.996612 0.873277 0.126066
H63   H     H_    0.333885 0.497067 0.126867 0.125583
H64   H     H_    0.729271 0.624567 0.891287 0.155286
H65   H     H_    0.656154 0.854587 0.961118 0.093206
H66   H     H_    0.307531 0.774704 0.028170 0.087718
H67   H     H_    0.191649 0.274043 0.971817 0.087446
H68   H     H_    0.844782 0.360284 0.039559 0.094151
H69   H     H_    0.768843 0.097777 0.020442 0.110512
H70   H     H_    0.156828 0.959755 0.960975 0.106548
H71   H     H_    0.343198 0.460015 0.039249 0.106264
H72   H     H_    0.729742 0.597287 0.979323 0.109785
H73   H     H_    0.831702 0.989685 0.969825 0.112633
H74   H     H_    0.185492 0.030267 0.035971 0.103529
H75   H     H_    0.315270 0.530124 0.964139 0.103517
H76   H     H_    0.667987 0.486147 0.029790 0.113138
O1    O     O_R   0.769900 0.064540 0.196060 -0.517723
O2    O     O_R   0.230100 0.064540 0.803940 -0.508998
O3    O     O_R   0.269900 0.564540 0.196060 -0.509700
O4    O     O_R   0.730100 0.564540 0.803940 -0.516942
O5    O     O_R   0.574760 0.239320 0.300850 -0.496664
O6    O     O_R   0.425240 0.239320 0.699150 -0.533663
O7    O     O_R   0.074760 0.739320 0.300850 -0.497411
O8    O     O_R   0.925240 0.739320 0.699150 -0.533442
O9    O     O_R   0.566290 0.069580 0.305400 -0.526482
O10   O     O_R   0.433710 0.069580 0.694600 -0.523724
O11   O     O_R   0.066290 0.569580 0.305400 -0.530399
O12   O     O_R   0.933710 0.569580 0.694600 -0.519875
O13   O     O_R   0.680760 0.993330 0.302620 -0.509540
O14   O     O_R   0.319240 0.993330 0.697380 -0.511583
O15   O     O_R   0.180760 0.493330 0.302620 -0.512649
O16   O     O_R   0.819240 0.493330 0.697380 -0.508454
O17   O     O_3   0.668770 0.168760 0.250420 -0.243651
O18   O     O_3   0.331230 0.168760 0.749580 -0.258269
O19   O     O_3   0.168770 0.668760 0.250420 -0.240957
O20   O     O_3   0.831230 0.668760 0.749580 -0.260806
O21   O     O_R   0.750800 0.274080 0.199250 -0.467983
O22   O     O_R   0.249200 0.274080 0.800750 -0.456889
O23   O     O_R   0.250800 0.774080 0.199250 -0.462824
O24   O     O_R   0.749200 0.774080 0.800750 -0.462517
O25   O     O_R   0.669990 0.371670 0.194150 -0.538083
O26   O     O_R   0.330010 0.371670 0.805850 -0.526987
O27   O     O_R   0.169990 0.871670 0.194150 -0.534075
O28   O     O_R   0.830010 0.871670 0.805850 -0.530403
O29   O     O_R   0.574600 0.238480 0.197800 -0.502212
O30   O     O_R   0.425400 0.238480 0.802200 -0.506012
O31   O     O_R   0.074600 0.738480 0.197800 -0.507360
O32   O     O_R   0.925400 0.738480 0.802200 -0.500731
O33   O     O_R   0.566130 0.068680 0.194240 -0.520502
O34   O     O_R   0.433870 0.068680 0.805760 -0.500625
O35   O     O_R   0.066130 0.568680 0.194240 -0.503662
O36   O     O_R   0.933870 0.568680 0.805760 -0.516882
O37   O     O_R   0.680610 0.992490 0.199570 -0.492435
O38   O     O_R   0.319390 0.992490 0.800430 -0.477440
O39   O     O_R   0.180610 0.492490 0.199570 -0.481279
O40   O     O_R   0.819390 0.492490 0.800430 -0.487406
O41   O     O_R   0.770060 0.065440 0.307230 -0.523444
O42   O     O_R   0.229940 0.065440 0.692770 -0.535817
O43   O     O_R   0.270060 0.565440 0.307230 -0.526449
O44   O     O_R   0.729940 0.565440 0.692770 -0.533087
O45   O     O_R   0.750960 0.274920 0.302300 -0.518352
O46   O     O_R   0.249040 0.274920 0.697700 -0.512664
O47   O     O_R   0.250960 0.774920 0.302300 -0.520321
O48   O     O_R   0.749040 0.774920 0.697700 -0.511372
O49   O     O_R   0.670160 0.372580 0.305320 -0.473930
O50   O     O_R   0.329840 0.372580 0.694680 -0.491175
O51   O     O_R   0.170160 0.872580 0.305320 -0.474098
O52   O     O_R   0.829840 0.872580 0.694680 -0.491351
N1    N     N_2   0.698580 0.796312 0.142124 -0.516011
H77   H     H_    0.714150 0.803239 0.177902 0.247594
C177  C     C_3   0.696085 0.690618 0.125026 -0.318640
H78   H     H_    0.684525 0.638953 0.156391 0.143049
H79   H     H_    0.740048 0.667085 0.110159 0.153733
H80   H     H_    0.660799 0.681196 0.096481 0.142711
N2    N     N_2   0.358061 0.867882 0.867654 -0.479407
H81   H     H_    0.348827 0.824319 0.836619 0.249715
C178  C     C_3   0.410810 0.835307 0.894242 -0.313524
H82   H     H_    0.447575 0.822465 0.867617 0.134401
H83   H     H_    0.401890 0.761927 0.914178 0.119023
H84   H     H_    0.425455 0.896142 0.920530 0.160524
N3    N     N_2   0.141170 0.367362 0.132326 -0.480133
H85   H     H_    0.150050 0.324247 0.163542 0.246707
C179  C     C_3   0.088400 0.333989 0.105686 -0.314678
H86   H     H_    0.051474 0.320998 0.132244 0.133277
H87   H     H_    0.097108 0.260526 0.085979 0.118824
H88   H     H_    0.074106 0.394441 0.079192 0.160788
N4    N     N_2   0.803794 0.299187 0.858490 -0.512877
H89   H     H_    0.786678 0.303158 0.823100 0.250397
C180  C     C_3   0.810455 0.194625 0.876334 -0.317979
H90   H     H_    0.823234 0.143646 0.845188 0.147162
H91   H     H_    0.767729 0.165952 0.891992 0.153737
H92   H     H_    0.846539 0.190727 0.904454 0.140434
N5    N     N_2   0.882274 0.916827 0.611146 -0.485211
H93   H     H_    0.905216 0.863179 0.631288 0.278822
C181  C     C_3   0.919612 0.990266 0.585214 -0.316920
H94   H     H_    0.955907 0.016894 0.610226 0.134931
H95   H     H_    0.893228 0.058563 0.574327 0.157490
H96   H     H_    0.940300 0.953846 0.552393 0.123302
N6    N     N_2   0.155067 0.006739 0.377483 -0.484609
H97   H     H_    0.119037 0.025692 0.399189 0.234316
C182  C     C_3   0.181219 0.096047 0.353631 -0.295659
H98   H     H_    0.145798 0.140737 0.334699 0.138928
H99   H     H_    0.214331 0.072322 0.325479 0.150473
H100  H     H_    0.203327 0.146501 0.381484 0.131897
N7    N     N_2   0.382270 0.416601 0.611083 -0.485162
H101  H     H_    0.405188 0.362882 0.631203 0.278950
C183  C     C_3   0.419680 0.489800 0.585059 -0.316945
H102  H     H_    0.456016 0.516416 0.610032 0.134971
H103  H     H_    0.393381 0.558147 0.574087 0.157322
H104  H     H_    0.440313 0.453152 0.552272 0.123500
N8    N     N_2   0.654275 0.505576 0.377636 -0.484279
H105  H     H_    0.618258 0.523962 0.399472 0.234141
C184  C     C_3   0.679709 0.595227 0.353558 -0.295341
H106  H     H_    0.643887 0.639143 0.334728 0.140372
H107  H     H_    0.712776 0.571966 0.325279 0.150160
H108  H     H_    0.701683 0.646226 0.381252 0.131310
N9    N     N_2   0.664557 0.775455 0.526979 -0.524454
H109  H     H_    0.629244 0.781148 0.551140 0.241426
C185  C     C_3   0.666709 0.675767 0.503522 -0.309332
H110  H     H_    0.622908 0.658288 0.486129 0.128796
H111  H     H_    0.676772 0.615542 0.531569 0.143510
H112  H     H_    0.701296 0.674865 0.474243 0.168980
N10   N     N_2   0.326383 0.757222 0.473374 -0.526120
H113  H     H_    0.365635 0.749734 0.453986 0.239249
C186  C     C_3   0.302609 0.658486 0.488714 -0.294996
H114  H     H_    0.337961 0.614116 0.507559 0.128697
H115  H     H_    0.287101 0.613861 0.455992 0.154384
H116  H     H_    0.265069 0.668817 0.514886 0.169917
N11   N     N_2   0.164363 0.275330 0.527184 -0.525287
H117  H     H_    0.129088 0.281103 0.551379 0.241633
C187  C     C_3   0.166471 0.175587 0.503792 -0.309794
H118  H     H_    0.122633 0.158056 0.486475 0.128618
H119  H     H_    0.176594 0.115445 0.531864 0.143654
H120  H     H_    0.200994 0.174624 0.474462 0.169185
N12   N     N_2   0.827635 0.259596 0.473099 -0.525177
H121  H     H_    0.866904 0.253078 0.453649 0.239300
C188  C     C_3   0.804633 0.160248 0.488348 -0.295177
H122  H     H_    0.840421 0.116391 0.506909 0.127898
H123  H     H_    0.789179 0.115577 0.455618 0.153968
H124  H     H_    0.767211 0.169619 0.514723 0.169666
C189  C     C_3   0.836720 0.861629 0.343490 -0.257426
C190  C     C_3   0.812882 0.780507 0.307089 -0.297447
C191  C     C_3   0.859946 0.752082 0.268934 -0.448811
H125  H     H_    0.873010 0.821069 0.247047 0.159043
H126  H     H_    0.900003 0.720062 0.287530 0.154152
H127  H     H_    0.841543 0.692960 0.243311 0.138422
H128  H     H_    0.799742 0.709894 0.327774 0.156072
H129  H     H_    0.772989 0.810109 0.287352 0.160434
H130  H     H_    0.851503 0.931843 0.323362 0.164207
H131  H     H_    0.876935 0.830211 0.362222 0.133685
C192  C     C_3   0.151934 0.896397 0.646014 -0.257088
C193  C     C_3   0.163925 0.813305 0.685239 -0.286417
C194  C     C_3   0.111927 0.802699 0.721147 -0.443255
H132  H     H_    0.103765 0.877159 0.740141 0.152248
H133  H     H_    0.070943 0.778170 0.701254 0.155400
H134  H     H_    0.122575 0.743579 0.749497 0.146192
H135  H     H_    0.171171 0.737974 0.666691 0.170185
H136  H     H_    0.204603 0.832714 0.706886 0.165700
H137  H     H_    0.140583 0.970754 0.663766 0.166519
H138  H     H_    0.112072 0.872817 0.624221 0.127372
C195  C     C_3   0.338485 0.365832 0.344270 -0.257563
C196  C     C_3   0.316440 0.284709 0.307136 -0.297044
C197  C     C_3   0.364852 0.258493 0.269780 -0.446996
H139  H     H_    0.377767 0.328271 0.248409 0.153844
H140  H     H_    0.404741 0.227439 0.289002 0.155245
H141  H     H_    0.347804 0.199258 0.243598 0.141991
H142  H     H_    0.303429 0.213317 0.327271 0.156672
H143  H     H_    0.276803 0.313523 0.286782 0.160596
H144  H     H_    0.352844 0.437002 0.324721 0.163655
H145  H     H_    0.378717 0.335488 0.363391 0.133104
C198  C     C_3   0.653244 0.392133 0.646303 -0.257725
C199  C     C_3   0.666622 0.308430 0.684897 -0.287526
C200  C     C_3   0.614430 0.292966 0.720221 -0.443045
H146  H     H_    0.604287 0.366100 0.739708 0.156974
H147  H     H_    0.574302 0.266362 0.699718 0.154886
H148  H     H_    0.626060 0.233626 0.748196 0.143943
H149  H     H_    0.675756 0.234357 0.665787 0.170096
H150  H     H_    0.706600 0.329784 0.707034 0.165311
H151  H     H_    0.641240 0.465547 0.664655 0.166510
H152  H     H_    0.613469 0.367762 0.624598 0.128756
N13   N     N_2   0.658915 0.811661 0.865000 -0.501805
H153  H     H_    0.630065 0.767207 0.885785 0.231484
C201  C     C_3   0.627637 0.882699 0.833016 -0.290630
H154  H     H_    0.606132 0.943752 0.855380 0.127013
H155  H     H_    0.592719 0.840474 0.811866 0.133559
H156  H     H_    0.658750 0.919061 0.806229 0.161057
N14   N     N_2   0.317707 0.744317 0.122846 -0.475132
H157  H     H_    0.327306 0.681984 0.100675 0.237202
C202  C     C_3   0.370910 0.788432 0.144807 -0.285796
H158  H     H_    0.396190 0.727141 0.164230 0.132294
H159  H     H_    0.359233 0.848780 0.172191 0.155122
H160  H     H_    0.399705 0.822751 0.115664 0.123677
N15   N     N_2   0.181812 0.243382 0.877114 -0.476978
H161  H     H_    0.171831 0.180995 0.899321 0.236815
C203  C     C_3   0.128891 0.287018 0.854982 -0.284417
H162  H     H_    0.100148 0.321113 0.884021 0.123613
H163  H     H_    0.103397 0.225492 0.835553 0.132695
H164  H     H_    0.140945 0.347444 0.827573 0.159399
N16   N     N_2   0.841788 0.317781 0.135807 -0.500281
H165  H     H_    0.871554 0.275460 0.115239 0.231547
C204  C     C_3   0.871574 0.390532 0.168193 -0.294519
H166  H     H_    0.907017 0.350549 0.189424 0.132487
H167  H     H_    0.839651 0.424140 0.194910 0.153043
H168  H     H_    0.892199 0.453536 0.146151 0.129155

loop_
_geom_bond_atom_site_label_1
_geom_bond_atom_site_label_2
_ccdc_geom_bond_type
C191  H127  S    
C99   C103  A    
C7    C168  A    
C55   C59   A    
C197  H140  S    
N3    C179  S    
C142  C146  A    
C77   C101  A    
C19   C20   A    
C53   C69   A    
C165  C169  A    
C88   C96   A    
C180  H90   S    
C202  H158  S    
C108  C164  S    
Cr9   O37   S    
C199  C200  S    
Cr10  O34   S    
C37   C69   S    
C26   C50   A    
C190  H129  S    
C95   C99   A    
C29   C33   A    
C100  C104  A    
C23   H60   S    
C3    C74   S    
C9    C13   A    
C146  C150  A    
C131  C151  A    
C12   C16   A    
C56   C72   A    
C169  C174  A    
C59   N15   S    
C133  O49   A    
C198  H151  S    
Cr8   O28   S    
C123  H51   S    
C172  C175  A    
C141  C145  A    
C84   H16   S    
C6    C165  A    
C21   C22   A    
C92   O40   A    
C91   O3    A    
C41   C49   A    
N7    C183  S    
C18   C170  A    
C25   C29   A    
C184  H108  S    
C160  O8    A    
Cr1   O41   S    
C27   C31   A    
N2    H81   S    
C46   O34   A    
C28   C32   A    
C186  H116  S    
N4    C180  S    
C62   C66   A    
C167  C171  A    
C98   C102  A    
C60   C76   A    
C196  C197  S    
C15   C19   A    
N16   C204  S    
C196  H143  S    
C193  H135  S    
Cr1   O1    S    
C78   C82   A    
C134  C155  S    
C54   C70   A    
C16   C20   A    
C127  C195  S    
C165  H2    S    
C31   H63   S    
C140  C156  A    
C135  O51   A    
C20   C172  A    
Cr11  O15   S    
C189  C190  S    
C132  C152  A    
C62   H6    S    
N12   H121  S    
C130  C138  A    
C180  H92   S    
C148  N12   S    
Cr12  O16   S    
C202  H160  S    
C84   C88   A    
Cr9   O13   S    
Cr6   O18   S    
C67   H75   S    
Cr10  O10   S    
C58   N14   S    
C119  C123  A    
C26   C90   S    
C5    C46   S    
C99   H20   S    
C189  H130  S    
C105  C125  A    
C137  N5    S    
C7    C48   S    
C8    C47   S    
C107  C127  A    
C175  C176  A    
C173  H37   S    
N9    H109  S    
C79   C159  S    
C136  C153  S    
Cr1   O21   S    
C66   C70   A    
C163  O15   A    
Cr2   O18   S    
Cr3   O23   S    
C55   H67   S    
C185  H112  S    
C203  H163  S    
C80   C160  S    
Cr7   O27   S    
N4    H89   S    
C92   O4    A    
C61   C65   A    
C129  C137  A    
C141  H45   S    
C33   H69   S    
N8    H105  S    
C39   C71   S    
C147  N11   S    
C117  C149  S    
C195  C196  S    
C48   O36   A    
C128  C198  S    
C55   C71   A    
C2    C75   S    
N14   C202  S    
C145  N9    S    
C146  N10   S    
C177  H79   S    
C122  C126  A    
C182  H98   S    
C198  C199  S    
C139  N7    S    
C6    C9    A    
C194  H132  S    
C201  H155  S    
N13   H153  S    
Cr7   O19   S    
Cr1   O45   S    
C64   C68   A    
Cr5   O29   S    
Cr2   O42   S    
Cr3   O47   S    
C192  C193  S    
C118  C150  S    
C118  C122  A    
C125  C189  S    
C178  H83   S    
C85   C93   A    
C78   C158  S    
C51   N3    S    
C87   C95   A    
C130  C150  A    
C23   C24   A    
C27   C91   S    
C2    O26   A    
C97   H18   S    
C47   O31   A    
C110  C114  A    
C67   C71   A    
C1    O25   A    
C48   O32   A    
C89   O37   A    
C44   C52   A    
C192  H137  S    
C91   O39   A    
C173  C174  A    
C116  H44   S    
C54   H66   S    
C79   C103  A    
C199  H149  S    
Cr10  O38   S    
C10   H53   S    
C111  H31   S    
C60   N16   S    
Cr11  O35   S    
C5    C10   A    
Cr4   O4    S    
C27   C51   A    
Cr5   O5    S    
N5    C181  S    
C7    C12   A    
C176  H40   S    
Cr7   O7    S    
C30   C34   A    
C49   N1    S    
C41   H9    S    
C10   C14   A    
C129  C149  A    
C187  H120  S    
C204  H167  S    
C142  C154  A    
C116  C120  A    
C195  H144  S    
N2    C178  S    
C29   H61   S    
C144  C156  A    
C147  C151  A    
C86   H26   S    
C121  C125  A    
C123  C127  A    
C201  H154  S    
C139  C155  A    
C157  O5    A    
C54   C58   A    
C17   C18   A    
C112  H32   S    
C5    C166  A    
C108  C128  A    
C4    C73   S    
C42   C50   A    
C113  C117  A    
C183  H103  S    
C107  C163  S    
C44   H12   S    
C200  H148  S    
C115  C119  A    
C181  H95   S    
C105  C161  S    
C61   H5    S    
C126  C192  S    
C68   H76   S    
C194  H134  S    
C58   C74   A    
C140  N8    S    
C191  H126  S    
C105  C109  A    
C40   C72   S    
C1    C76   S    
C107  C111  A    
C65   H73   S    
C148  C152  A    
C193  C194  S    
Cr2   O2    S    
C102  H21   S    
C26   C30   A    
C21   H58   S    
C135  O47   A    
C182  H100  S    
C171  C176  A    
C13   C17   A    
C166  H1    S    
C14   C22   A    
C56   H68   S    
C161  O13   A    
C13   C21   A    
C138  C154  A    
C122  H50   S    
C63   C75   A    
C64   H8    S    
C89   O1    A    
C36   H72   S    
C37   C41   A    
C179  H88   S    
N11   C187  S    
C109  H29   S    
Cr12  O36   S    
C40   C44   A    
C204  H166  S    
C24   H59   S    
C131  H35   S    
C46   O30   A    
C188  H123  S    
Cr9   O17   S    
C81   C85   A    
Cr10  O14   S    
Cr11  O11   S    
C83   C87   A    
Cr4   O44   S    
C6    C45   S    
C93   C97   A    
C78   C102  A    
C133  C156  S    
N8    C184  S    
Cr7   O31   S    
C80   C84   A    
Cr12  O20   S    
N7    H101  S    
C187  H118  S    
Cr2   O22   S    
C3    O23   A    
C184  H107  S    
Cr3   O19   S    
C200  H146  S    
C135  C154  S    
C80   C104  A    
C186  H115  S    
C157  O9    A    
C124  H52   S    
N15   C203  S    
C112  C116  A    
C94   C98   A    
N10   H113  S    
C175  H39   S    
C34   H70   S    
N1    C177  S    
C193  H136  S    
C199  H150  S    
C185  H110  S    
C160  O12   A    
Cr4   O20   S    
C124  C128  A    
C11   C15   A    
C197  H141  S    
C159  O7    A    
Cr5   O25   S    
Cr2   O46   S    
C53   H65   S    
Cr6   O30   S    
Cr3   O43   S    
C133  O45   A    
C180  H91   S    
C100  H19   S    
C202  H159  S    
C144  H48   S    
C161  O41   A    
N16   H165  S    
Cr8   O8    S    
C130  H34   S    
C83   H15   S    
C190  H128  S    
C53   C57   A    
C81   H13   S    
C61   C73   A    
C136  O48   A    
C134  O50   A    
C33   C37   A    
C56   C60   A    
C68   C72   A    
C45   O33   A    
C35   C39   A    
C179  H86   S    
C4    O28   A    
C8    C167  A    
C90   O38   A    
C42   H10   S    
C204  H168  S    
C185  H111  S    
C113  H41   S    
C198  H152  S    
C38   C70   S    
Cr6   O6    S    
C31   C35   A    
C32   C36   A    
N6    H97   S    
C82   H14   S    
C188  H122  S    
Cr11  O19   S    
C132  H36   S    
Cr8   O52   S    
C190  C191  S    
C132  C140  A    
C52   N4    S    
C50   N2    S    
C106  C126  A    
C25   C89   S    
C158  O6    A    
C143  C155  A    
C174  H38   S    
C196  H142  S    
C82   C86   A    
C79   C83   A    
C43   C51   A    
Cr11  O39   S    
C65   C69   A    
Cr9   O33   S    
C106  C162  S    
C178  H82   S    
C25   C49   A    
C177  H78   S    
C108  C112  A    
C168  C172  A    
Cr6   O50   S    
C197  H139  S    
C87   H27   S    
C62   C74   A    
C66   H74   S    
Cr5   O49   S    
C145  C149  A    
C170  C173  A    
Cr3   O3    S    
C181  H94   S    
C93   C94   S    
N3    H85   S    
C14   C18   A    
C47   O35   A    
C95   C96   S    
C3    O27   A    
C144  C148  A    
C141  C153  A    
Cr8   O32   S    
C162  O14   A    
C191  H125  S    
N5    H93   S    
C136  O52   A    
C143  C147  A    
C167  H4    S    
C35   H71   S    
C189  H131  S    
C4    O24   A    
C168  H3    S    
C57   N13   S    
C90   O2    A    
C19   C171  A    
C38   C42   A    
N9    C185  S    
Cr12  O40   S    
C17   C169  A    
C187  H119  S    
C57   C73   A    
C96   C100  A    
C143  H47   S    
C117  C121  A    
C203  H164  S    
C86   C94   A    
C183  H102  S    
N10   C186  S    
C164  O44   A    
C98   H17   S    
C77   C81   A    
Cr10  O18   S    
C115  H43   S    
Cr8   O20   S    
C2    O22   A    
C188  H124  S    
C15   C23   A    
C177  H80   S    
C182  H99   S    
C11   H56   S    
C9    H54   S    
C194  H133  S    
C158  O10   A    
C201  H156  S    
N13   C201  S    
C119  C151  S    
Cr9   O9    S    
C63   C67   A    
C120  C152  S    
C137  C153  A    
Cr4   O48   S    
C36   C40   A    
C131  C139  A    
C129  H33   S    
C39   C43   A    
Cr12  O12   S    
C30   H62   S    
Cr4   O24   S    
C178  H84   S    
N12   C188  S    
Cr5   O17   S    
C85   H25   S    
N6    C182  S    
C12   H55   S    
C64   C76   A    
C28   C92   S    
Cr6   O26   S    
C179  H87   S    
N11   H117  S    
C114  C118  A    
Cr1   O17   S    
C192  H138  S    
C134  O46   A    
Cr7   O51   S    
C162  O42   A    
C59   C75   A    
C106  C110  A    
C88   H28   S    
C34   C38   A    
C45   O29   A    
C103  H24   S    
C114  H42   S    
C22   H57   S    
C43   H11   S    
C109  C113  A    
C101  H22   S    
C184  H106  S    
C32   H64   S    
C195  H145  S    
C159  O11   A    
C1    O21   A    
C203  H162  S    
C186  H114  S    
C28   C52   A    
N15   H161  S    
C8    C11   A    
C121  H49   S    
C166  C170  A    
C138  N6    S    
C63   H7    S    
C163  O43   A    
N1    H77   S    
C110  H30   S    
C16   C24   A    
N14   H157  S    
C142  H46   S    
C183  H104  S    
C200  H147  S    
C181  H96   S    
C164  O16   A    
C111  C115  A    
C104  H23   S    
C97   C101  A    
C120  C124  A    
C77   C157  S    
