data_mof_unit_31339.cif
_audit_creation_date              2012-12-10T20:32:47-0500
_audit_creation_method            fapswitch 2.2
_symmetry_space_group_name_H-M    P1
_symmetry_Int_Tables_number       1
_space_group_crystal_system       triclinic
_cell_length_a                    11.525084
_cell_length_b                    10.71743
_cell_length_c                    9.876764
_cell_angle_alpha                 89.204646
_cell_angle_beta                  90.225847
_cell_angle_gamma                 90.552866
_cell_volume                      1219.78761199

loop_
_atom_site_label
_atom_site_type_symbol
_atom_type_description
_atom_site_fract_x
_atom_site_fract_y
_atom_site_fract_z
_atom_type_partial_charge
C1    C     C_R   0.493481 0.260686 0.500910 0.901742
C2    C     C_R   0.576833 0.571236 0.071771 -0.230550
C3    C     C_R   0.576780 0.572657 0.926566 0.570308
C4    C     C_R   0.281936 0.500082 0.500061 0.894286
C5    C     C_R   0.437621 0.412426 0.929446 0.041999
C6    C     C_3   0.311043 0.386607 0.919072 -0.531785
C7    C     C_3   0.306715 0.391917 0.073160 0.329278
C8    C     C_R   0.499045 0.740429 0.498685 0.888650
C9    C     C_R   0.718056 0.499957 0.500282 0.894926
C10   C     C_1   0.161509 0.500162 0.501194 -0.211940
C11   C     C_1   0.059288 0.500031 0.502321 -0.035775
C12   C     C_R   0.474162 0.130112 0.502419 -0.174507
C13   C     C_1   0.940669 0.499853 0.502008 -0.015993
C14   C     C_1   0.838473 0.499834 0.501131 -0.201788
C15   C     C_R   0.482126 0.061516 0.621878 0.000407
C16   C     C_3   0.134219 0.463940 0.164930 0.148439
C17   C     C_3   0.048989 0.431356 0.050568 -0.418291
C18   C     C_3   0.927478 0.406038 0.106439 -0.942831
C19   C     C_3   0.574151 0.886137 0.191213 0.115081
C20   C     C_3   0.615165 0.014771 0.138279 -0.440727
C21   C     C_3   0.726984 0.004294 0.056999 -0.893864
C22   C     C_3   0.730371 0.101285 0.606974 -0.258623
C23   C     C_R   0.449641 0.069250 0.381533 -0.322570
C24   C     C_3   0.763892 0.634191 0.882648 -0.351002
C25   C     C_R   0.465053 0.941380 0.374565 0.497949
C26   C     C_R   0.485131 0.872755 0.496474 -0.221675
C27   C     C_R   0.482587 0.934341 0.619978 -0.014966
C28   C     C_3   0.559446 0.924367 0.742761 -0.474286
C29   C     C_3   0.560077 0.066736 0.743968 0.397399
C30   C     C_R   0.435247 0.414517 0.071203 0.115488
H1    H     H_    0.432418 0.121297 0.288862 0.177864
H2    H     H_    0.138850 0.386103 0.240647 0.122671
H3    H     H_    0.045417 0.509815 0.975924 0.232890
H4    H     H_    0.078333 0.346469 0.997894 0.221519
H5    H     H_    0.929779 0.330387 0.184432 0.268039
H6    H     H_    0.868893 0.376083 0.023319 0.264930
H7    H     H_    0.892071 0.491767 0.152124 0.264329
H8    H     H_    0.569261 0.824343 0.102518 0.182481
H9    H     H_    0.639435 0.846051 0.262713 0.115750
H10   H     H_    0.546572 0.056606 0.073244 0.227242
H11   H     H_    0.633335 0.077879 0.224095 0.221273
H12   H     H_    0.292751 0.291849 0.879432 0.154966
H13   H     H_    0.797810 0.967765 0.122567 0.248396
H14   H     H_    0.753058 0.097899 0.017475 0.287707
H15   H     H_    0.714422 0.940837 0.970224 0.282218
H16   H     H_    0.717951 0.181018 0.535847 0.160514
H17   H     H_    0.704908 0.013449 0.556263 0.135977
H18   H     H_    0.824644 0.095607 0.628831 0.176049
H19   H     H_    0.816848 0.686513 0.806997 0.196535
H20   H     H_    0.788475 0.669699 0.983993 0.152128
H21   H     H_    0.786038 0.533802 0.873455 0.183254
H22   H     H_    0.284640 0.301148 0.123924 0.043306
H23   H     H_    0.512661 0.882328 0.830694 0.198989
H24   H     H_    0.644604 0.881033 0.722019 0.228970
H25   H     H_    0.513277 0.104071 0.832579 0.086921
H26   H     H_    0.636551 0.629483 0.127455 0.134425
H27   H     H_    0.263298 0.463169 0.866903 0.240795
H28   H     H_    0.099605 0.545836 0.218667 0.176539
N1    N     N_R   0.499240 0.499140 0.142800 -0.095200
N2    N     N_R   0.499240 0.499180 0.857150 -0.122965
O1    O     O_R   0.500010 0.316790 0.614690 -0.597742
O2    O     O_3   0.461236 0.887207 0.248215 -0.616877
O3    O     O_3   0.671839 0.124293 0.729989 -0.585218
O4    O     O_3   0.645778 0.655831 0.854040 -0.603794
O5    O     O_R   0.500000 0.316760 0.385350 -0.644871
O6    O     O_R   0.334450 0.500030 0.614670 -0.624316
O7    O     O_R   0.334440 0.500000 0.385330 -0.578315
O8    O     O_R   0.500000 0.683240 0.614650 -0.570667
O9    O     O_R   0.499990 0.683210 0.385310 -0.585223
O10   O     O_R   0.665560 0.500000 0.614670 -0.571909
O11   O     O_R   0.665550 0.499970 0.385330 -0.630594
O12   O     O_3   0.245501 0.498195 0.115882 -0.591767
Zn1   Zn    Zn3+2 0.500010 0.500020 0.653130 1.002118
Zn2   Zn    Zn3+2 0.499990 0.499980 0.346870 0.975881

loop_
_geom_bond_atom_site_label_1
_geom_bond_atom_site_label_2
_ccdc_geom_bond_type
C4    O7    A    
C22   H18   S    
C9    C14   S    
C29   O3    S    
C15   C29   S    
C6    C7    S    
C19   H8    S    
O11   Zn2   S    
C21   H14   S    
C8    C26   S    
C18   H5    S    
C1    O5    A    
C19   C20   S    
N1    Zn2   S    
C12   C15   A    
C22   O3    S    
C28   H23   S    
C25   C26   A    
C3    N2    A    
O10   Zn1   S    
C2    C3    A    
C8    O9    A    
O9    Zn2   S    
C24   O4    S    
O7    Zn2   S    
C16   H28   S    
C13   C14   T    
C30   N1    A    
C4    O6    A    
C11   C13   S    
C6    H27   S    
C18   H6    S    
C26   C27   A    
C1    C12   S    
C17   H3    S    
C24   H21   S    
C20   H11   S    
C19   H9    S    
C16   O12   S    
C28   C29   S    
C22   H16   S    
C18   H7    S    
C7    H22   S    
C8    O8    A    
C21   H15   S    
C25   O2    S    
C23   C25   A    
C24   H20   S    
C5    C6    S    
C20   H10   S    
C22   H17   S    
C7    O12   S    
C16   H2    S    
C17   H4    S    
C19   O2    S    
C4    C10   S    
C9    O10   A    
N2    Zn1   S    
C27   C28   S    
C20   C21   S    
C17   C18   S    
C5    C30   A    
C10   C11   T    
C24   H19   S    
C7    C30   S    
C28   H24   S    
C2    N1    A    
C12   C23   A    
C29   H25   S    
C5    N2    A    
O1    Zn1   S    
O8    Zn1   S    
C3    O4    S    
O6    Zn1   S    
C6    H12   S    
C2    H26   S    
C21   H13   S    
O5    Zn2   S    
C9    O11   A    
C1    O1    A    
C16   C17   S    
C15   C27   A    
C23   H1    S    
