data_mof_unit_63013.cif
_audit_creation_date              2012-12-10T17:25:19-0500
_audit_creation_method            fapswitch 2.2
_symmetry_space_group_name_H-M    P1
_symmetry_Int_Tables_number       1
_space_group_crystal_system       triclinic
_cell_length_a                    18.711789
_cell_length_b                    18.856622
_cell_length_c                    18.93289
_cell_angle_alpha                 109.804429
_cell_angle_beta                  109.455793
_cell_angle_gamma                 109.407179
_cell_volume                      5126.27728739

loop_
_atom_site_label
_atom_site_type_symbol
_atom_type_description
_atom_site_fract_x
_atom_site_fract_y
_atom_site_fract_z
_atom_type_partial_charge
C1    C     C_R   0.618609 0.618757 0.499869 0.859032
C2    C     C_R   0.156727 0.180118 0.254617 0.077441
C3    C     C_R   0.171592 0.420872 0.183709 0.151396
C4    C     C_R   0.187932 0.499897 0.184717 -0.117173
C5    C     C_R   0.268651 0.577603 0.249302 -0.056814
C6    C     C_R   0.330680 0.576220 0.314693 0.094050
C7    C     C_R   0.312740 0.497936 0.314688 -0.108610
C8    C     C_R   0.233108 0.420105 0.250086 -0.006706
C9    C     C_R   0.335851 0.686055 0.208722 0.185980
C10   C     C_R   0.362202 0.768523 0.217295 -0.262784
C11   C     C_R   0.344395 0.827071 0.267115 0.077635
C12   C     C_R   0.379444 0.498061 0.381441 0.847308
C13   C     C_R   0.296430 0.801399 0.306403 0.565778
C14   C     C_R   0.270877 0.719114 0.298544 -0.300580
C15   C     C_R   0.290364 0.661280 0.250359 0.018606
C16   C     C_R   0.760279 0.752243 0.575718 -0.236277
C17   C     C_R   0.824723 0.814879 0.575104 -0.233400
C18   C     C_R   0.811313 0.813526 0.497288 -0.141135
C19   C     C_R   0.731567 0.749057 0.418975 0.440395
C20   C     C_R   0.669081 0.682217 0.419002 0.067196
C21   C     C_R   0.683528 0.685356 0.497992 -0.067736
C22   C     C_R   0.686877 0.512673 0.761682 -0.228968
C23   C     C_R   0.382395 0.380910 0.501202 0.812366
C24   C     C_R   0.749243 0.510100 0.824361 -0.211757
C25   C     C_R   0.814120 0.496736 0.811627 -0.064721
C26   C     C_R   0.815810 0.483879 0.734445 0.105677
C27   C     C_R   0.752301 0.485649 0.670834 0.167444
C28   C     C_R   0.687700 0.500209 0.684797 -0.064531
C29   C     C_R   0.257068 0.330116 0.523195 -0.205663
C30   C     C_R   0.190628 0.266410 0.520672 0.126644
C31   C     C_R   0.186742 0.185812 0.501620 -0.069469
C32   C     C_R   0.248536 0.169057 0.484026 0.062550
C33   C     C_R   0.313669 0.232899 0.483427 0.123331
C34   C     C_R   0.619723 0.500489 0.618742 0.817844
C35   C     C_R   0.317095 0.313452 0.502712 -0.092431
C36   C     C_R   0.000581 0.618835 0.119272 0.850929
C37   C     C_R   0.119547 0.500183 0.118681 0.870612
C38   C     C_R   0.000593 0.381143 0.881557 0.906504
C39   C     C_R   0.881004 0.498780 0.880248 0.783781
C40   C     C_R   0.001027 0.881945 0.381052 0.845496
C41   C     C_R   0.880395 0.880492 0.498912 0.860711
C42   C     C_R   0.001737 0.120485 0.618503 0.866410
C43   C     C_R   0.119017 0.119139 0.500779 0.814536
C44   C     C_R   0.992901 0.752470 0.174511 -0.328488
C45   C     C_R   0.216082 0.204458 0.225378 0.184209
C46   C     C_R   0.993149 0.817955 0.237864 0.175448
C47   C     C_R   0.002049 0.815820 0.313971 -0.103019
C48   C     C_R   0.011998 0.749772 0.326310 -0.294647
C49   C     C_R   0.009106 0.682937 0.261665 0.502002
C50   C     C_R   0.000911 0.685660 0.186333 -0.139621
C51   C     C_R   0.081116 0.329972 0.816338 0.454280
C52   C     C_R   0.082740 0.267136 0.751931 0.020391
C53   C     C_R   0.003099 0.189375 0.684730 -0.255244
C54   C     C_R   0.922761 0.176518 0.680346 0.425470
C55   C     C_R   0.922119 0.238645 0.746328 0.001004
C56   C     C_R   0.239950 0.281519 0.221377 0.103690
C57   C     C_R   0.001196 0.314901 0.814155 -0.243814
C58   C     C_R   0.210500 0.338421 0.254061 -0.133468
C59   C     C_R   0.153733 0.315491 0.286314 0.400340
C60   C     C_R   0.124015 0.234617 0.283418 0.058956
Cu1   Cu    Cu3+1 0.500020 0.438210 0.438220 0.999494
Cu2   Cu    Cu3+1 0.499980 0.561790 0.561780 0.953818
Cu3   Cu    Cu3+1 0.938210 0.438200 0.999980 0.993840
Cu4   Cu    Cu3+1 0.061840 0.561770 0.999960 0.934645
Cu5   Cu    Cu3+1 0.061800 0.999890 0.561700 0.973626
Cu6   Cu    Cu3+1 0.938200 0.999930 0.438120 0.956406
H1    H     H_    0.236947 0.700749 0.331444 0.188183
H2    H     H_    0.771254 0.754465 0.636553 0.159469
H3    H     H_    0.884770 0.865185 0.635702 0.177784
H4    H     H_    0.637149 0.523256 0.772717 0.165549
H5    H     H_    0.747884 0.520075 0.883634 0.153569
H6    H     H_    0.260742 0.392566 0.539635 0.162459
H7    H     H_    0.986790 0.753554 0.115951 0.160223
H8    H     H_    0.021427 0.749854 0.385985 0.166919
H9    H     H_    0.398474 0.788076 0.186662 0.163686
O1    O     O_R   0.590200 0.537990 0.447840 -0.559100
O2    O     O_R   0.052220 0.642350 0.090110 -0.604361
O3    O     O_R   0.038000 0.447810 0.090170 -0.548693
O4    O     O_R   0.142390 0.552170 0.090150 -0.597850
O5    O     O_R   0.947830 0.357620 0.909840 -0.554881
O6    O     O_R   0.052230 0.461980 0.909820 -0.590062
O7    O     O_R   0.857660 0.447800 0.909790 -0.583793
O8    O     O_R   0.962050 0.552160 0.909780 -0.602303
O9    O     O_R   0.052180 0.909730 0.461910 -0.588148
O10   O     O_R   0.947800 0.909770 0.357550 -0.549985
O11   O     O_R   0.962000 0.909720 0.552080 -0.597717
O12   O     O_R   0.590170 0.642360 0.552180 -0.587624
O13   O     O_R   0.857620 0.909750 0.447720 -0.561086
O14   O     O_R   0.052200 0.090060 0.642270 -0.589950
O15   O     O_R   0.947820 0.090090 0.537910 -0.586238
O16   O     O_R   0.142380 0.090070 0.552100 -0.570869
O17   O     O_R   0.038000 0.090100 0.447740 -0.601420
O18   O     O_R   0.409840 0.447810 0.357640 -0.572433
O19   O     O_R   0.409810 0.552180 0.461990 -0.576557
O20   O     O_R   0.409830 0.357640 0.447820 -0.558640
O21   O     O_R   0.409800 0.462010 0.552160 -0.612243
O22   O     O_R   0.590190 0.447820 0.538010 -0.557064
O23   O     O_R   0.590160 0.552190 0.642360 -0.600838
O24   O     O_R   0.947830 0.537990 0.090130 -0.570255
N1    N     N_3   0.127501 0.098277 0.252211 -0.616917
H10   H     H_    0.060118 0.058998 0.208485 0.228374
H11   H     H_    0.138146 0.109515 0.313660 0.248144
N2    N     N_3   0.377323 0.913310 0.280059 -0.588643
H12   H     H_    0.445461 0.942920 0.308449 0.220322
H13   H     H_    0.352237 0.908198 0.219155 0.209332
O25   O     O_3   0.280832 0.858097 0.359637 -0.566349
C61   C     C_3   0.223390 0.877882 0.310556 -0.270837
H14   H     H_    0.175530 0.823600 0.242345 0.157664
H15   H     H_    0.261160 0.937741 0.311105 0.183357
H16   H     H_    0.185287 0.891642 0.341919 0.189608
O26   O     O_3   0.719171 0.746115 0.341498 -0.580321
C62   C     C_3   0.669766 0.786441 0.321893 -0.264949
H17   H     H_    0.684836 0.810138 0.279573 0.189485
H18   H     H_    0.685364 0.843918 0.380292 0.150508
H19   H     H_    0.598618 0.738811 0.284887 0.149044
N3    N     N_3   0.591181 0.610926 0.339613 -0.566785
H20   H     H_    0.551208 0.634116 0.315248 0.207438
H21   H     H_    0.608827 0.584615 0.294544 0.252736
N4    N     N_3   0.879803 0.466804 0.718400 -0.618890
H22   H     H_    0.878380 0.414217 0.726398 0.209853
H23   H     H_    0.941847 0.521738 0.763453 0.240611
N5    N     N_3   0.251191 0.150507 0.196360 -0.567705
H24   H     H_    0.224742 0.092386 0.196526 0.240886
H25   H     H_    0.318328 0.184530 0.240947 0.232946
N6    N     N_3   0.754698 0.475132 0.593095 -0.570850
H26   H     H_    0.815400 0.523861 0.610616 0.226707
H27   H     H_    0.749480 0.414699 0.561196 0.238733
N7    N     N_3   0.128431 0.285496 0.538473 -0.604597
H28   H     H_    0.066621 0.243475 0.482665 0.245786
H29   H     H_    0.126283 0.273745 0.588007 0.191289
N8    N     N_3   0.242078 0.085724 0.463319 -0.591495
H30   H     H_    0.232764 0.055895 0.400874 0.199901
H31   H     H_    0.300668 0.095138 0.507461 0.239328
N9    N     N_3   0.377105 0.217108 0.464956 -0.568766
H32   H     H_    0.411162 0.203790 0.510220 0.216839
H33   H     H_    0.344287 0.162841 0.402867 0.221232
N10   N     N_3   0.987642 0.888104 0.226817 -0.557522
H34   H     H_    0.978523 0.878141 0.165949 0.212899
H35   H     H_    0.048195 0.944853 0.272927 0.206490
O27   O     O_3   0.023440 0.619971 0.275157 -0.582368
C63   C     C_3   0.951596 0.565144 0.276367 -0.277894
H36   H     H_    0.958373 0.508696 0.275680 0.196497
H37   H     H_    0.888180 0.538965 0.217940 0.161743
H38   H     H_    0.950801 0.599288 0.336585 0.151443
O28   O     O_3   0.159259 0.401798 0.887722 -0.552499
C64   C     C_3   0.190122 0.467760 0.867944 -0.238818
H39   H     H_    0.139392 0.461072 0.810234 0.124574
H40   H     H_    0.246195 0.470170 0.858693 0.167547
H41   H     H_    0.215292 0.531585 0.924519 0.185912
N11   N     N_3   0.292494 0.298790 0.181765 -0.537960
H42   H     H_    0.307640 0.357810 0.183016 0.229523
H43   H     H_    0.254869 0.250392 0.116180 0.226968
N12   N     N_3   0.166031 0.285460 0.756755 -0.529474
H44   H     H_    0.163047 0.233641 0.710327 0.225624
H45   H     H_    0.184406 0.334798 0.742001 0.199583
O29   O     O_3   0.846237 0.098111 0.616923 -0.572301
C65   C     C_3   0.798833 0.107324 0.548117 -0.275543
H46   H     H_    0.765399 0.044933 0.486495 0.184023
H47   H     H_    0.840277 0.159409 0.540674 0.145066
H48   H     H_    0.747060 0.119174 0.556020 0.152106
N13   N     N_3   0.841318 0.224866 0.744858 -0.548241
H49   H     H_    0.802446 0.227348 0.692440 0.210551
H50   H     H_    0.808633 0.163299 0.736923 0.260378
O30   O     O_3   0.118728 0.367569 0.309878 -0.580097
C66   C     C_3   0.170632 0.426956 0.400049 -0.304237
H51   H     H_    0.242217 0.455068 0.424413 0.154438
H52   H     H_    0.151921 0.395471 0.435899 0.170660
H53   H     H_    0.157583 0.481945 0.414503 0.197525
N14   N     N_3   0.059856 0.205773 0.308275 -0.579983
H54   H     H_    0.002754 0.151594 0.252506 0.215444
H55   H     H_    0.042296 0.252342 0.330230 0.256269
N15   N     N_3   0.093560 0.340821 0.112854 -0.562838
H56   H     H_    0.111663 0.297301 0.083831 0.210765
H57   H     H_    0.056071 0.313808 0.136897 0.255695
N16   N     N_3   0.412945 0.654141 0.381691 -0.570441
H58   H     H_    0.400492 0.700900 0.415345 0.237410
H59   H     H_    0.446416 0.678169 0.353187 0.207399
N17   N     N_3   0.357000 0.629089 0.158540 -0.596329
H60   H     H_    0.395643 0.614092 0.198503 0.208428
H61   H     H_    0.298864 0.571230 0.108911 0.252613

loop_
_geom_bond_atom_site_label_1
_geom_bond_atom_site_label_2
_ccdc_geom_bond_type
C1    O12   A    
C40   C47   S    
C1    C21   S    
C66   H51   S    
Cu2   O21   S    
N14   H55   S    
N14   H54   S    
C40   O9    A    
C19   C20   A    
N7    H28   S    
Cu6   O10   S    
C62   H18   S    
N13   H49   S    
Cu5   O11   S    
N16   H59   S    
C53   C54   A    
C23   O21   A    
Cu5   O14   S    
C41   O11   A    
N10   H35   S    
C26   C27   A    
C16   C21   A    
C31   C43   S    
C60   N14   S    
O29   C65   S    
C36   O2    A    
C63   H37   S    
C42   C53   S    
Cu6   O13   S    
C5    C6    A    
C33   C35   A    
Cu1   O18   S    
C3    N15   S    
C6    N16   S    
C51   O28   S    
C54   C55   A    
C38   C57   S    
C34   O22   A    
N3    H20   S    
C18   C19   A    
Cu4   O2    S    
Cu3   O24   S    
C59   O30   S    
C8    C58   S    
Cu2   O23   S    
C33   N9    S    
C65   H46   S    
N16   H58   S    
C45   C56   A    
C44   C46   A    
C16   C17   A    
C14   H1    S    
C51   C57   A    
C56   C58   A    
N12   H45   S    
C9    C10   A    
C29   H6    S    
C2    N1    S    
C59   C60   A    
C66   H52   S    
C22   C28   A    
C13   C14   A    
C61   H15   S    
C12   O19   A    
Cu1   Cu2   S    
C2    C60   A    
C62   H17   S    
N13   H50   S    
N15   H57   S    
N17   H60   S    
C64   H40   S    
Cu3   O5    S    
N4    H23   S    
Cu1   O1    S    
O27   C63   S    
C7    C12   S    
C30   N7    S    
Cu3   O7    S    
C51   C52   A    
C48   H8    S    
C7    C8    A    
C24   C25   A    
C55   N13   S    
Cu6   O15   S    
C3    C8    A    
C10   C11   A    
C18   C41   S    
C20   N3    S    
C13   O25   S    
Cu5   O9    S    
Cu6   O17   S    
C52   N12   S    
C43   O16   A    
C42   O15   A    
C40   O10   A    
Cu4   O8    S    
N9    H33   S    
C29   C30   A    
C64   H41   S    
C37   O4    A    
C10   H9    S    
C47   C48   A    
C61   H14   S    
C20   C21   A    
N1    H11   S    
C17   C18   A    
N2    H13   S    
C46   C47   A    
C52   C53   A    
C26   N4    S    
N9    H32   S    
N3    H21   S    
C46   N10   S    
C16   H2    S    
C48   C49   A    
Cu5   Cu6   S    
C66   H53   S    
C23   C35   S    
Cu2   O19   S    
C38   O6    A    
N6    H26   S    
Cu4   O4    S    
N11   H43   S    
C12   O18   A    
C58   C59   A    
C56   N11   S    
N8    H30   S    
O28   C64   S    
N2    H12   S    
C36   C50   S    
N15   H56   S    
C64   H39   S    
Cu2   O12   S    
C44   C50   A    
Cu5   O16   S    
C41   O13   A    
C17   H3    S    
O30   C66   S    
O26   C62   S    
C14   C15   A    
C1    O1    A    
C31   C32   A    
Cu1   O22   S    
C39   O7    A    
C4    C5    A    
N8    H31   S    
N7    H29   S    
N17   H61   S    
N4    H22   S    
Cu1   O20   S    
C6    C7    A    
C63   H38   S    
C19   O26   S    
C45   N5    S    
C65   H48   S    
N10   H34   S    
C29   C35   A    
C43   O17   A    
C61   H16   S    
C42   O14   A    
C32   C33   A    
C55   C57   A    
C25   C26   A    
C39   O8    A    
C63   H36   S    
C25   C39   S    
C54   O29   S    
C11   C13   A    
C30   C31   A    
C38   O5    A    
C27   N6    S    
N1    H10   S    
C34   O23   A    
C23   O20   A    
C36   O24   A    
C22   C24   A    
C62   H19   S    
C9    C15   A    
C44   H7    S    
Cu4   O6    S    
C5    C15   S    
C2    C45   A    
C28   C34   S    
Cu3   Cu4   S    
C4    C37   S    
C65   H47   S    
C49   C50   A    
O25   C61   S    
C49   O27   S    
C27   C28   A    
N6    H27   S    
N11   H42   S    
C11   N2    S    
N5    H24   S    
C37   O3    A    
N5    H25   S    
C22   H4    S    
C32   N8    S    
C9    N17   S    
C3    C4    A    
C24   H5    S    
N12   H44   S    
Cu3   O3    S    
