data_mof_unit_23345.cif
_audit_creation_date              2012-12-10T20:45:33-0500
_audit_creation_method            fapswitch 2.2
_symmetry_space_group_name_H-M    P1
_symmetry_Int_Tables_number       1
_space_group_crystal_system       triclinic
_cell_length_a                    10.665531
_cell_length_b                    10.669057
_cell_length_c                    9.859883
_cell_angle_alpha                 89.701863
_cell_angle_beta                  90.170045
_cell_angle_gamma                 90.099066
_cell_volume                      1121.94572838

loop_
_atom_site_label
_atom_site_type_symbol
_atom_type_description
_atom_site_fract_x
_atom_site_fract_y
_atom_site_fract_z
_atom_type_partial_charge
C1    C     C_R   0.499522 0.260349 0.500097 0.902549
C2    C     C_R   0.828845 0.272926 0.922503 -0.133543
C3    C     C_R   0.762346 0.169325 0.873944 -0.132910
C4    C     C_R   0.260266 0.505130 0.499733 0.871439
C5    C     C_R   0.754455 0.147724 0.734463 -0.135431
C6    C     C_R   0.811526 0.230574 0.643185 -0.128477
C7    C     C_R   0.878243 0.334982 0.691296 0.135652
C8    C     C_R   0.420980 0.061690 0.584843 0.112210
C9    C     C_R   0.498081 0.128644 0.497300 -0.143312
C10   C     C_R   0.566606 0.067389 0.396572 -0.298825
C11   C     C_R   0.571332 0.937607 0.396250 0.078266
C12   C     C_R   0.220999 0.852018 0.130955 -0.113384
C13   C     C_R   0.505464 0.871482 0.497359 -0.102701
C14   C     C_R   0.426514 0.933952 0.586011 0.013778
C15   C     C_3   0.413634 0.924692 0.736619 -0.516235
C16   C     C_R   0.505049 0.739528 0.499621 0.904447
C17   C     C_3   0.405068 0.067275 0.735570 -0.091266
C18   C     C_R   0.426330 0.417326 0.071554 0.214189
C19   C     C_R   0.581581 0.572612 0.071853 -0.129305
C20   C     C_R   0.581853 0.572318 0.927830 -0.131130
C21   C     C_R   0.424709 0.419011 0.928854 0.241151
C22   C     C_3   0.284844 0.416005 0.925392 -0.527435
C23   C     C_R   0.931455 0.573989 0.407211 -0.251083
C24   C     C_3   0.287310 0.409143 0.078864 -0.514219
C25   C     C_R   0.739660 0.496626 0.500250 0.867399
C26   C     C_R   0.250645 0.856524 0.268906 -0.113962
C27   C     C_R   0.200285 0.767892 0.358708 -0.115038
C28   C     C_R   0.118904 0.674208 0.310859 0.127130
C29   C     C_R   0.086259 0.673233 0.172398 -0.193107
C30   C     C_R   0.138620 0.760578 0.082745 -0.146373
C31   C     C_R   0.872057 0.495462 0.500336 -0.072169
C32   C     C_R   0.939083 0.422905 0.594963 -0.010374
C33   C     C_R   0.067715 0.431033 0.594097 -0.256141
C34   C     C_R   0.127635 0.508884 0.500144 -0.077383
C35   C     C_R   0.060286 0.582980 0.406185 -0.002698
C36   C     C_R   0.887510 0.355112 0.831651 -0.139450
H1    H     H_    0.260915 0.920126 0.061684 0.117736
H2    H     H_    0.311892 0.929519 0.306120 0.138308
H3    H     H_    0.646136 0.632626 0.873305 0.142933
H4    H     H_    0.243644 0.504747 0.885924 0.217502
H5    H     H_    0.247021 0.330003 0.878136 0.218624
H6    H     H_    0.245563 0.491927 0.127998 0.240940
H7    H     H_    0.255318 0.317285 0.119858 0.198763
H8    H     H_    0.222961 0.773477 0.465615 0.098296
H9    H     H_    0.022190 0.603140 0.133382 0.128519
H10   H     H_    0.114887 0.757656 0.975988 0.126505
H11   H     H_    0.876636 0.632036 0.338461 0.155761
H12   H     H_    0.717243 0.105595 0.944369 0.113443
H13   H     H_    0.121510 0.372982 0.663667 0.162512
H14   H     H_    0.938865 0.435051 0.870394 0.120933
H15   H     H_    0.835077 0.289464 0.030539 0.129308
H16   H     H_    0.617177 0.898945 0.202328 0.180001
H17   H     H_    0.740321 0.906507 0.310428 0.173532
H18   H     H_    0.267704 0.094346 0.876035 0.179722
H19   H     H_    0.210926 0.065361 0.719758 0.199981
H20   H     H_    0.703944 0.066858 0.697049 0.132566
H21   H     H_    0.804215 0.213254 0.535296 0.104286
H22   H     H_    0.621550 0.119825 0.323234 0.163006
H23   H     H_    0.325960 0.875644 0.767115 0.199539
H24   H     H_    0.500269 0.889420 0.786838 0.195883
H25   H     H_    0.482641 0.115750 0.789731 0.176942
H26   H     H_    0.645531 0.633280 0.126104 0.151316
N1    N     N_R   0.499160 0.499140 0.142800 -0.104411
N2    N     N_R   0.499160 0.499180 0.857150 -0.105126
N3    N     N_3   0.648275 0.874111 0.299476 -0.452261
N4    N     N_3   0.280899 0.113603 0.772980 -0.462796
O1    O     O_R   0.500020 0.316790 0.614690 -0.607120
O2    O     O_R   0.500000 0.316760 0.385350 -0.624961
O3    O     O_R   0.316770 0.500030 0.614670 -0.623779
O4    O     O_R   0.316750 0.499990 0.385330 -0.614297
O5    O     O_R   0.500000 0.683240 0.614650 -0.630063
O6    O     O_R   0.499980 0.683210 0.385310 -0.593154
O7    O     O_R   0.683250 0.500010 0.614670 -0.613303
O8    O     O_R   0.683230 0.499970 0.385330 -0.630030
Zn1   Zn    Zn3+2 0.500010 0.500020 0.653130 0.950669
Zn2   Zn    Zn3+2 0.499990 0.499980 0.346870 0.951516

loop_
_geom_bond_atom_site_label_1
_geom_bond_atom_site_label_2
_ccdc_geom_bond_type
C25   C31   S    
C18   C21   A    
C24   H6    S    
C7    C36   A    
C5    H20   S    
C19   C20   A    
C16   O6    A    
O6    Zn2   S    
C4    O4    A    
C26   C27   A    
O8    Zn2   S    
C18   C24   S    
C28   C29   A    
C10   H22   S    
C34   C35   A    
C5    C6    A    
C18   N1    A    
C22   H5    S    
N1    Zn2   S    
C19   H26   S    
C33   H13   S    
C3    H12   S    
C1    O2    A    
C25   O8    A    
C15   H24   S    
C12   H1    S    
C21   N2    A    
C17   H25   S    
C27   H8    S    
C28   C35   S    
C19   N1    A    
C8    C9    A    
H17   N3    S    
C9    C10   A    
C13   C14   A    
O7    Zn1   S    
C6    H21   S    
C16   O5    A    
C4    O3    A    
C4    C34   S    
C23   H11   S    
C1    C9    S    
C2    H15   S    
C20   H3    S    
C26   H2    S    
C12   C26   A    
C23   C31   A    
C20   N2    A    
C29   C30   A    
C31   C32   A    
C22   H4    S    
C33   C34   A    
C17   N4    S    
C23   C35   A    
O4    Zn2   S    
C22   C24   S    
O1    Zn1   S    
H19   N4    S    
C36   H14   S    
C2    C36   A    
C15   C17   S    
C8    C14   A    
C7    C32   S    
C12   C30   A    
C15   H23   S    
C30   H10   S    
C3    C5    A    
C6    C7    A    
H18   N4    S    
O2    Zn2   S    
C8    C17   S    
C32   C33   A    
C2    C3    A    
O5    Zn1   S    
C11   C13   A    
C1    O1    A    
N2    Zn1   S    
O3    Zn1   S    
C25   O7    A    
C10   C11   A    
C13   C16   S    
C29   H9    S    
C27   C28   A    
C24   H7    S    
C14   C15   S    
C21   C22   S    
H16   N3    S    
C11   N3    S    
