data_mof_unit_45215.cif
_audit_creation_date              2012-12-10T20:31:08-0500
_audit_creation_method            fapswitch 2.2
_symmetry_space_group_name_H-M    P1
_symmetry_Int_Tables_number       1
_space_group_crystal_system       triclinic
_cell_length_a                    14.962063
_cell_length_b                    10.669736
_cell_length_c                    9.864204
_cell_angle_alpha                 90.071052
_cell_angle_beta                  90.228331
_cell_angle_gamma                 89.624989
_cell_volume                      1574.6865827

loop_
_atom_site_label
_atom_site_type_symbol
_atom_type_description
_atom_site_fract_x
_atom_site_fract_y
_atom_site_fract_z
_atom_type_partial_charge
C1    C     C_R   0.496245 0.259988 0.499819 0.923988
C2    C     C_R   0.188041 0.422454 0.592544 -0.270996
C3    C     C_R   0.231717 0.497965 0.499144 -0.054297
C4    C     C_R   0.326974 0.500060 0.499713 0.878645
C5    C     C_R   0.184846 0.570688 0.405183 -0.271119
C6    C     C_R   0.457272 0.064362 0.615007 0.108065
C7    C     C_R   0.479896 0.128983 0.497289 -0.094350
C8    C     C_R   0.483256 0.064765 0.373166 -0.213617
C9    C     C_R   0.483906 0.935538 0.373115 -0.223737
C10   C     C_R   0.481344 0.871550 0.497188 -0.098196
C11   C     C_R   0.458812 0.936340 0.614955 0.132293
C12   C     C_R   0.906319 0.568146 0.408825 0.128338
C13   C     C_3   0.494889 0.929207 0.756151 -0.473816
C14   C     C_3   0.491754 0.071533 0.757336 -0.467124
C15   C     C_R   0.421475 0.501629 0.070844 0.208221
C16   C     C_R   0.496954 0.740142 0.499789 0.877236
C17   C     C_R   0.577633 0.508936 0.072309 -0.123673
C18   C     C_R   0.577623 0.508963 0.928531 -0.109474
C19   C     C_R   0.421433 0.502035 0.928340 0.220411
C20   C     C_3   0.349243 0.406534 0.922108 -0.515639
C21   C     C_3   0.349767 0.405508 0.076046 -0.494901
C22   C     C_R   0.673160 0.496984 0.500220 0.933148
C23   C     C_R   0.958733 0.337479 0.683713 -0.182557
C24   C     C_R   0.814094 0.567081 0.409861 -0.267891
C25   C     C_R   0.769059 0.490488 0.500703 -0.142962
C26   C     C_R   0.815065 0.410883 0.591447 -0.067904
C27   C     C_R   0.908799 0.413464 0.594014 0.034169
C28   C     C_R   0.954004 0.492361 0.501721 0.047306
C29   C     C_2   0.765285 0.317861 0.672667 0.900657
C30   C     C_R   0.051339 0.341402 0.683968 -0.225243
C31   C     C_R   0.095671 0.419156 0.593154 0.126628
C32   C     C_R   0.047236 0.494168 0.500551 0.072108
C33   C     C_R   0.092265 0.570409 0.406086 0.119790
C34   C     C_R   0.044202 0.644902 0.314489 -0.216886
C35   C     C_R   0.951419 0.644119 0.316193 -0.201443
H1    H     H_    0.776869 0.627007 0.340610 0.153563
H2    H     H_    0.371941 0.316779 0.876069 0.206912
H3    H     H_    0.287053 0.443326 0.120787 0.208649
H4    H     H_    0.373465 0.315254 0.120099 0.211822
H5    H     H_    0.927207 0.274593 0.754504 0.180418
H6    H     H_    0.088339 0.282884 0.754611 0.149841
H7    H     H_    0.226163 0.364570 0.662562 0.144143
H8    H     H_    0.220543 0.628753 0.333462 0.148154
H9    H     H_    0.078327 0.703698 0.241931 0.149090
H10   H     H_    0.914902 0.702405 0.244793 0.150837
H11   H     H_    0.493047 0.112908 0.277772 0.175449
H12   H     H_    0.493916 0.887194 0.277665 0.175090
H13   H     H_    0.692244 0.160205 0.671112 0.331406
H14   H     H_    0.446685 0.886024 0.827414 0.201993
H15   H     H_    0.563995 0.890320 0.760570 0.211466
H16   H     H_    0.440902 0.109835 0.828231 0.193934
H17   H     H_    0.558554 0.115122 0.765788 0.217399
H18   H     H_    0.640481 0.514347 0.126277 0.166092
H19   H     H_    0.640404 0.514550 0.875229 0.185208
H20   H     H_    0.286352 0.445750 0.878885 0.205828
N1    N     N_R   0.499390 0.499140 0.142800 -0.114530
N2    N     N_R   0.499390 0.499180 0.857150 -0.116290
O1    O     O_R   0.500010 0.316790 0.614690 -0.611891
O2    O     O_R   0.718485 0.223060 0.605979 -0.809316
O3    O     O_R   0.500000 0.316760 0.385350 -0.621822
O4    O     O_R   0.367850 0.499990 0.614680 -0.626019
O5    O     O_R   0.367840 0.499950 0.385340 -0.627226
O6    O     O_R   0.500000 0.683240 0.614650 -0.619547
O7    O     O_R   0.499990 0.683210 0.385310 -0.628372
O8    O     O_R   0.632160 0.500050 0.614660 -0.623459
O9    O     O_R   0.632150 0.500010 0.385320 -0.621555
O10   O     O_2   0.765539 0.323966 0.796461 -0.651846
Zn1   Zn    Zn3+2 0.500010 0.500020 0.653130 0.958450
Zn2   Zn    Zn3+2 0.499990 0.499980 0.346870 0.950952

loop_
_geom_bond_atom_site_label_1
_geom_bond_atom_site_label_2
_ccdc_geom_bond_type
C23   H5    S    
C2    C31   A    
C24   C25   A    
C30   H6    S    
C9    H12   S    
C6    C7    A    
C16   O6    A    
C23   C27   A    
C26   C29   S    
C6    C14   S    
C14   H17   S    
C9    C10   A    
C12   C24   A    
C18   N2    A    
C19   C20   S    
O4    Zn1   S    
C28   C32   A    
C4    O5    A    
C32   C33   A    
O8    Zn1   S    
C17   C18   A    
C5    H8    S    
C7    C8    A    
C22   O8    A    
C10   C16   S    
O7    Zn2   S    
C15   N1    A    
C12   C35   A    
C15   C19   A    
C20   H2    S    
C11   C13   S    
C17   N1    A    
C26   C27   A    
C24   H1    S    
C1    O1    A    
O3    Zn2   S    
C2    H7    S    
C20   H20   S    
C13   H14   S    
O1    Zn1   S    
C12   C28   A    
C33   C34   A    
C2    C3    A    
C6    C11   A    
C14   H16   S    
C30   C31   A    
C8    H11   S    
O9    Zn2   S    
C10   C11   A    
C18   H19   S    
N2    Zn1   S    
C13   H15   S    
C35   H10   S    
C23   C30   A    
C17   H18   S    
C21   H3    S    
C15   C21   S    
C34   H9    S    
C20   C21   S    
H13   O2    S    
C34   C35   A    
C1    O3    A    
C27   C28   A    
N1    Zn2   S    
C29   O2    S    
O6    Zn1   S    
C22   O9    A    
C29   O10   D    
C16   O7    A    
C13   C14   S    
C25   C26   A    
C1    C7    S    
C4    O4    A    
C19   N2    A    
C3    C4    S    
C31   C32   A    
O5    Zn2   S    
C5    C33   A    
C8    C9    A    
C3    C5    A    
C22   C25   S    
C21   H4    S    
