data_mof_unit_18848.cif
_audit_creation_date              2012-12-10T18:05:44-0500
_audit_creation_method            fapswitch 2.2
_symmetry_space_group_name_H-M    P1
_symmetry_Int_Tables_number       1
_space_group_crystal_system       triclinic
_cell_length_a                    10.971908
_cell_length_b                    10.926849
_cell_length_c                    9.599725
_cell_angle_alpha                 89.319903
_cell_angle_beta                  91.521886
_cell_angle_gamma                 92.084243
_cell_volume                      1149.65990968

loop_
_atom_site_label
_atom_site_type_symbol
_atom_type_description
_atom_site_fract_x
_atom_site_fract_y
_atom_site_fract_z
_atom_type_partial_charge
C1    C     C_R   0.506341 0.262640 0.501954 0.867405
C2    C     C_R   0.493204 0.737308 0.498029 0.865580
C3    C     C_R   0.871537 0.494278 0.505955 -0.059063
C4    C     C_R   0.128517 0.506358 0.493998 -0.058781
C5    C     C_R   0.943831 0.450246 0.619001 -0.015507
C6    C     C_R   0.056248 0.550407 0.380903 -0.010926
C7    C     C_R   0.477813 0.068782 0.380888 -0.288911
C8    C     C_R   0.520286 0.931177 0.619300 -0.222823
C9    C     C_R   0.463000 0.942422 0.373246 0.364844
C10   C     C_R   0.535110 0.057480 0.626792 0.452207
C11   C     C_R   0.489070 0.871332 0.494660 -0.233747
C12   C     C_R   0.509502 0.128569 0.505359 -0.233519
C13   C     C_R   0.424790 0.420290 0.072798 0.274691
C14   C     C_R   0.575168 0.579740 0.927212 0.289450
C15   C     C_R   0.424271 0.420805 0.924764 0.325593
C16   C     C_R   0.575761 0.579147 0.075249 0.338201
C17   C     C_R   0.262551 0.505359 0.497522 0.805819
C18   C     C_R   0.737477 0.494853 0.502456 0.806101
C19   C     C_R   0.096642 0.792011 0.103081 0.020042
C20   C     C_R   0.906874 0.207479 0.895521 -0.016960
C21   C     C_R   0.085869 0.737536 0.235093 -0.090955
C22   C     C_R   0.916164 0.262431 0.763684 -0.057162
C23   C     C_R   0.101969 0.611170 0.253525 0.111278
C24   C     C_R   0.898253 0.388537 0.745853 0.109232
C25   C     C_R   0.123852 0.540407 0.136629 -0.087753
C26   C     C_R   0.875374 0.458474 0.863103 -0.086005
C27   C     C_R   0.140403 0.595747 0.006138 -0.157932
C28   C     C_R   0.859711 0.402427 0.993375 -0.139652
C29   C     C_R   0.126587 0.721589 0.989239 -0.049485
C30   C     C_R   0.875787 0.276879 0.009729 -0.093297
C31   C     C_R   0.929932 0.542110 0.388863 -0.230607
C32   C     C_R   0.070129 0.458689 0.611117 -0.230514
Cu1   Cu    Cu3+1 0.500000 0.500020 0.640660 1.075643
Cu2   Cu    Cu3+1 0.500000 0.499980 0.359340 1.070887
H1    H     H_    0.136055 0.763923 0.887417 0.143482
H2    H     H_    0.867374 0.234068 0.111432 0.131023
H3    H     H_    0.081621 0.888768 0.089091 0.156373
H4    H     H_    0.924369 0.111201 0.909135 0.146931
H5    H     H_    0.059885 0.792671 0.321760 0.136323
H6    H     H_    0.943091 0.208077 0.676787 0.135023
H7    H     H_    0.119270 0.441895 0.144826 0.179215
H8    H     H_    0.878801 0.556987 0.855429 0.176761
H9    H     H_    0.158290 0.540299 0.916938 0.154567
H10   H     H_    0.841085 0.457228 0.082885 0.152562
H11   H     H_    0.876809 0.575935 0.301534 0.194154
H12   H     H_    0.123275 0.424667 0.698352 0.192424
H13   H     H_    0.461358 0.121338 0.286861 0.247774
H14   H     H_    0.536666 0.878718 0.713443 0.260701
N1    N     N_R   0.500030 0.500030 0.852070 -0.245999
N2    N     N_R   0.499970 0.499970 0.147930 -0.244135
O1    O     O_R   0.499990 0.319660 0.618740 -0.491435
O2    O     O_R   0.500010 0.680340 0.381260 -0.490924
O3    O     O_R   0.499990 0.319630 0.381170 -0.570636
O4    O     O_R   0.500010 0.680370 0.618830 -0.566921
O5    O     O_R   0.319650 0.500020 0.618780 -0.579426
O6    O     O_R   0.680350 0.499980 0.381220 -0.579177
O7    O     O_R   0.319640 0.500000 0.381210 -0.539501
O8    O     O_R   0.680360 0.500000 0.618790 -0.539915
Br1   Br    Br    0.313094 0.308005 0.829177 -0.412324
Br2   Br    Br    0.687084 0.691677 0.170946 -0.460498
S1    S     S_3+6 0.404546 0.888852 0.209041 0.042940
O9    O     O_2   0.348741 0.761816 0.214772 -0.265568
O10   O     O_2   0.308511 0.974201 0.157416 -0.262461
O11   O     O_3   0.516328 0.893778 0.092908 -0.424224
H15   H     H_    0.570272 0.964287 0.120937 0.346895
S2    S     S_3+6 0.593814 0.111067 0.790356 0.015352
O12   O     O_2   0.652481 0.236920 0.784355 -0.295438
O13   O     O_2   0.492270 0.108633 0.892219 -0.217353
O14   O     O_3   0.698940 0.012897 0.847939 -0.529350
H16   H     H_    0.711243 0.030611 0.948328 0.364416
Br3   Br    Br    0.318564 0.303043 0.165047 -0.436290
Br4   Br    Br    0.681169 0.697156 0.834960 -0.438719

loop_
_geom_bond_atom_site_label_1
_geom_bond_atom_site_label_2
_ccdc_geom_bond_type
C17   O7    A    
Cu1   O5    S    
S1    O11   S    
S2    O13   D    
C8    H14   S    
Cu2   O6    S    
Cu1   O8    S    
C1    O3    A    
C30   H2    S    
Cu2   O7    S    
C20   H4    S    
C29   H1    S    
C17   O5    A    
C26   C28   A    
C21   H5    S    
C18   O6    A    
C1    O1    A    
C5    C32   A    
C22   H6    S    
O11   H15   S    
C10   S2    S    
Cu1   Cu2   S    
C20   C22   A    
C19   H3    S    
C20   C30   A    
C15   N1    A    
C3    C31   A    
C9    C11   A    
O14   H16   S    
C1    C12   S    
C2    O2    A    
Cu2   O3    S    
C8    C11   A    
C9    S1    S    
C2    C11   S    
C10   C12   A    
C28   C30   A    
C19   C21   A    
C24   C26   A    
C6    C31   A    
C22   C24   A    
C13   C15   A    
C21   C23   A    
C16   Br2   S    
S1    O9    D    
C14   C16   A    
C7    C12   A    
Cu2   N2    S    
C14   N1    A    
C25   C27   A    
C32   H12   S    
C4    C17   S    
Cu1   N1    S    
C4    C32   A    
S2    O14   S    
C27   H9    S    
C23   C25   A    
S2    O12   D    
C27   C29   A    
C26   H8    S    
C3    C18   S    
C8    C10   A    
C4    C6    A    
C31   H11   S    
C7    H13   S    
C25   H7    S    
Cu1   O4    S    
S1    O10   D    
C7    C9    A    
C5    C24   S    
C15   Br1   S    
Cu2   O2    S    
C13   Br3   S    
C6    C23   S    
C2    O4    A    
C14   Br4   S    
C28   H10   S    
Cu1   O1    S    
C13   N2    A    
C16   N2    A    
C18   O8    A    
C3    C5    A    
C19   C29   A    
