data_mof_unit_50704.cif
_audit_creation_date              2012-12-11T15:35:33-0500
_audit_creation_method            fapswitch 2.2
_symmetry_space_group_name_H-M    P1
_symmetry_Int_Tables_number       1
_space_group_crystal_system       triclinic
_cell_length_a                    17.447715
_cell_length_b                    24.51401
_cell_length_c                    14.886982
_cell_angle_alpha                 89.999135
_cell_angle_beta                  125.545221
_cell_angle_gamma                 90.001815
_cell_volume                      5180.84876234

loop_
_atom_site_label
_atom_site_type_symbol
_atom_type_description
_atom_site_fract_x
_atom_site_fract_y
_atom_site_fract_z
_atom_type_partial_charge
C1    C     C_R   0.357685 0.152141 0.906420 -0.066537
C2    C     C_R   0.596386 0.124388 0.907350 -0.125040
C3    C     C_R   0.256146 0.545680 0.304267 -0.144416
C4    C     C_2   0.323896 0.172559 0.795775 0.459081
C5    C     C_2   0.323906 0.827441 0.795774 0.459080
C6    C     C_2   0.839454 0.672801 0.801873 0.433698
C7    C     C_2   0.839602 0.327201 0.801925 0.433489
C8    C     C_R   0.081531 0.358602 0.910625 -0.116381
C9    C     C_R   0.081549 0.641387 0.910624 -0.116745
C10   C     C_R   0.433681 0.999999 0.631135 0.056208
C11   C     C_R   0.042109 0.500001 0.716661 0.047828
C12   C     C_R   0.802404 0.999999 0.367881 -0.000512
C13   C     C_R   0.303124 0.499999 0.367060 -0.002434
C14   C     C_R   0.684487 0.139085 0.998548 0.047190
C15   C     C_R   0.684454 0.860899 0.998543 0.047218
C16   C     C_R   0.163379 0.660366 0.004317 0.055093
C17   C     C_R   0.357692 0.847857 0.906419 -0.066527
C18   C     C_R   0.163350 0.339612 0.004319 0.055025
C19   C     C_3   0.022955 0.948841 0.643259 -0.397053
C20   C     C_3   0.022961 0.051152 0.643263 -0.397039
C21   C     C_3   0.522959 0.448847 0.643036 -0.395745
C22   C     C_3   0.522961 0.551141 0.643051 -0.395744
C23   C     C_3   0.919391 0.948737 0.542025 -0.393024
C24   C     C_3   0.919395 0.051256 0.542034 -0.393026
C25   C     C_3   0.419536 0.448742 0.541427 -0.396253
C26   C     C_3   0.419538 0.551247 0.541442 -0.396247
C27   C     C_3   0.067012 0.999999 0.531413 -0.383756
C28   C     C_R   0.857962 0.652506 0.906513 -0.064826
C29   C     C_3   0.567663 0.500003 0.531806 -0.386419
C30   C     C_3   0.074123 0.999997 0.640336 0.378505
C31   C     C_3   0.574306 0.499997 0.640446 0.379976
C32   C     C_3   0.898858 0.999999 0.469697 0.381843
C33   C     C_3   0.399325 0.499998 0.469190 0.386301
C34   C     C_R   0.444603 0.847247 0.089960 -0.186175
C35   C     C_R   0.444596 0.152750 0.089961 -0.186168
C36   C     C_R   0.942094 0.347728 0.090541 -0.153540
C37   C     C_R   0.942080 0.652264 0.090546 -0.153656
C38   C     C_3   0.964594 0.000002 0.431824 -0.393074
C39   C     C_R   0.857990 0.347484 0.906512 -0.064789
C40   C     C_3   0.465427 0.500004 0.431880 -0.394121
C41   C     C_R   0.234840 0.778527 0.923444 -0.103190
C42   C     C_R   0.234821 0.221471 0.923415 -0.103223
C43   C     C_R   0.763618 0.245750 0.896855 -0.078172
C44   C     C_R   0.763312 0.754038 0.896962 -0.077984
C45   C     C_R   0.717130 0.200614 0.895667 -0.190671
C46   C     C_R   0.716793 0.799151 0.895762 -0.190619
C47   C     C_R   0.179507 0.742037 0.929534 -0.201421
C48   C     C_R   0.179482 0.257954 0.929506 -0.201377
C49   C     C_R   0.750752 0.172686 0.993958 0.139867
C50   C     C_R   0.688252 0.125430 0.091833 -0.124264
C51   C     C_R   0.750602 0.827222 0.993924 0.139850
C52   C     C_R   0.222191 0.699656 0.005119 0.142164
C53   C     C_R   0.222162 0.300325 0.005122 0.142139
C54   C     C_R   0.839934 0.185156 0.089707 -0.173161
C55   C     C_R   0.839887 0.814856 0.089558 -0.173242
C56   C     C_R   0.319946 0.693294 0.075843 -0.180080
C57   C     C_R   0.319917 0.306681 0.075874 -0.180081
C58   C     C_R   0.376105 0.730426 0.070082 -0.193878
C59   C     C_R   0.376080 0.269556 0.070112 -0.193886
C60   C     C_R   0.889576 0.229533 0.089385 -0.185054
C61   C     C_R   0.688237 0.874555 0.091834 -0.124299
C62   C     C_R   0.889531 0.770482 0.089245 -0.185128
C63   C     C_R   0.332782 0.772571 0.993403 0.205618
C64   C     C_R   0.332763 0.227421 0.993404 0.205615
C65   C     C_R   0.848728 0.261696 0.993993 0.170529
C66   C     C_R   0.848584 0.738233 0.993974 0.170674
C67   C     C_R   0.391431 0.950604 0.462716 -0.170909
C68   C     C_R   0.391430 0.049390 0.462711 -0.170928
C69   C     C_R   0.101700 0.450609 0.624283 -0.158067
C70   C     C_R   0.101702 0.549395 0.624280 -0.158071
C71   C     C_R   0.392946 0.950629 0.370783 -0.165428
C72   C     C_R   0.176764 0.636729 0.095601 -0.140811
C73   C     C_R   0.392943 0.049364 0.370776 -0.165431
C74   C     C_R   0.106699 0.450587 0.535064 -0.169775
C75   C     C_R   0.106704 0.549415 0.535062 -0.169776
C76   C     C_R   0.404576 0.999997 0.332511 0.141929
C77   C     C_R   0.097881 0.500001 0.482504 0.128133
C78   C     C_R   0.479350 0.045554 0.247642 -0.120472
C79   C     C_R   0.479349 0.954443 0.247642 -0.120460
C80   C     C_R   0.046525 0.545347 0.302845 -0.119647
C81   C     C_R   0.046525 0.454653 0.302847 -0.119656
C82   C     C_R   0.400413 0.999998 0.515561 0.136279
C83   C     C_R   0.176745 0.363257 0.095602 -0.140801
C84   C     C_R   0.087210 0.500001 0.659641 0.133423
C85   C     C_R   0.231893 0.954206 0.755770 -0.151200
C86   C     C_R   0.231895 0.045791 0.755772 -0.151185
C87   C     C_R   0.732037 0.454141 0.756105 -0.150911
C88   C     C_R   0.732038 0.545855 0.756105 -0.150920
C89   C     C_R   0.386646 0.183542 0.996925 0.041947
C90   C     C_R   0.386663 0.816453 0.996924 0.041904
C91   C     C_R   0.883837 0.683941 0.997538 0.041542
C92   C     C_R   0.883871 0.316038 0.997536 0.041645
C93   C     C_R   0.448028 0.999998 0.273098 0.034125
C94   C     C_R   0.596382 0.875621 0.907348 -0.125142
C95   C     C_R   0.063111 0.500000 0.366914 0.039523
C96   C     C_R   0.175756 0.999997 0.730283 0.014734
C97   C     C_R   0.675871 0.499997 0.730665 0.017414
C98   C     C_R   0.449853 0.045162 0.695382 -0.143918
C99   C     C_R   0.449853 0.954838 0.695384 -0.143866
C100  C     C_R   0.012137 0.545378 0.743456 -0.128525
C101  C     C_R   0.012141 0.454623 0.743463 -0.128564
C102  C     C_R   0.755561 0.954379 0.304891 -0.147614
C103  C     C_R   0.755562 0.045620 0.304895 -0.147638
C104  C     C_R   0.256144 0.454319 0.304264 -0.144418
H1    H     H_    0.026758 0.948558 0.720503 0.161709
H2    H     H_    0.906995 0.089294 0.494792 0.149839
H3    H     H_    0.407346 0.410696 0.494298 0.148102
H4    H     H_    0.407348 0.589298 0.494324 0.148109
H5    H     H_    0.201028 0.812700 0.867289 0.110122
H6    H     H_    0.201010 0.187306 0.867234 0.110126
H7    H     H_    0.727038 0.270639 0.823256 0.117954
H8    H     H_    0.726685 0.729062 0.823498 0.117858
H9    H     H_    0.649309 0.192525 0.819604 0.112554
H10   H     H_    0.648848 0.807129 0.819839 0.112601
H11   H     H_    0.103713 0.747362 0.876564 0.141013
H12   H     H_    0.026769 0.051435 0.720510 0.161709
H13   H     H_    0.103688 0.252634 0.876510 0.141156
H14   H     H_    0.868311 0.163154 0.165973 0.112024
H15   H     H_    0.868363 0.836954 0.165727 0.112107
H16   H     H_    0.351996 0.659683 0.133756 0.120012
H17   H     H_    0.351965 0.340284 0.133808 0.120001
H18   H     H_    0.452116 0.727111 0.125631 0.120659
H19   H     H_    0.452091 0.272868 0.125682 0.120648
H20   H     H_    0.955971 0.240709 0.165198 0.114783
H21   H     H_    0.956036 0.759389 0.164964 0.114842
H22   H     H_    0.392495 0.911661 0.497401 0.109526
H23   H     H_    0.526373 0.448582 0.720031 0.162143
H24   H     H_    0.392495 0.088334 0.497393 0.109518
H25   H     H_    0.099171 0.411723 0.656675 0.118102
H26   H     H_    0.099174 0.588280 0.656669 0.118107
H27   H     H_    0.395093 0.911730 0.338156 0.109815
H28   H     H_    0.395086 0.088263 0.338143 0.109809
H29   H     H_    0.107192 0.411652 0.501416 0.113825
H30   H     H_    0.107201 0.588350 0.501414 0.113826
H31   H     H_    0.469142 0.087920 0.257483 0.094982
H32   H     H_    0.469137 0.912076 0.257480 0.094989
H33   H     H_    0.063194 0.587329 0.329407 0.086265
H34   H     H_    0.526376 0.551397 0.720046 0.162135
H35   H     H_    0.063195 0.412672 0.329411 0.086265
H36   H     H_    0.210182 0.912175 0.742527 0.080625
H37   H     H_    0.210185 0.087820 0.742532 0.080606
H38   H     H_    0.710704 0.411972 0.743062 0.078509
H39   H     H_    0.710702 0.588022 0.743054 0.078509
H40   H     H_    0.431314 0.086910 0.667781 0.084708
H41   H     H_    0.431315 0.913088 0.667787 0.084698
H42   H     H_    0.015776 0.587138 0.724760 0.091609
H43   H     H_    0.015787 0.412863 0.724780 0.091611
H44   H     H_    0.768682 0.912300 0.331174 0.089317
H45   H     H_    0.871970 0.948012 0.569216 0.162320
H46   H     H_    0.768685 0.087698 0.331185 0.089314
H47   H     H_    0.269563 0.412227 0.330353 0.086319
H48   H     H_    0.269570 0.587772 0.330361 0.086320
H49   H     H_    0.745681 0.132373 0.177072 0.091207
H50   H     H_    0.745649 0.867584 0.177069 0.091237
H51   H     H_    0.230088 0.645795 0.181543 0.094258
H52   H     H_    0.230062 0.354190 0.181545 0.094255
H53   H     H_    0.568133 0.872103 0.821208 0.097138
H54   H     H_    0.568119 0.127904 0.821207 0.097092
H55   H     H_    0.046313 0.343611 0.827335 0.101590
H56   H     H_    0.871978 0.051974 0.569230 0.162316
H57   H     H_    0.046335 0.656380 0.827336 0.101502
H58   H     H_    0.055996 0.910585 0.641351 0.151754
H59   H     H_    0.056003 0.089409 0.641351 0.151751
H60   H     H_    0.556166 0.410599 0.641410 0.148197
H61   H     H_    0.556170 0.589393 0.641436 0.148210
H62   H     H_    0.318032 0.144841 0.735252 0.002676
H63   H     H_    0.318074 0.855155 0.735271 0.002698
H64   H     H_    0.818250 0.644448 0.735327 0.011548
H65   H     H_    0.818170 0.355541 0.735278 0.011467
H66   H     H_    0.102761 0.963415 0.527347 0.158368
H67   H     H_    0.371780 0.448038 0.568160 0.162723
H68   H     H_    0.102772 0.036581 0.527353 0.158366
H69   H     H_    0.603532 0.463420 0.527961 0.157260
H70   H     H_    0.603536 0.536589 0.527972 0.157269
H71   H     H_    0.951121 0.963388 0.380188 0.157471
H72   H     H_    0.951129 0.036621 0.380201 0.157475
H73   H     H_    0.452163 0.463388 0.380331 0.157019
H74   H     H_    0.452166 0.536626 0.380345 0.157023
H75   H     H_    0.484044 0.833577 0.174788 0.104772
H76   H     H_    0.484034 0.166419 0.174790 0.104752
H77   H     H_    0.983424 0.334430 0.175622 0.097093
H78   H     H_    0.371783 0.551942 0.568177 0.162723
H79   H     H_    0.983385 0.665563 0.175627 0.097150
H80   H     H_    0.906993 0.910701 0.494778 0.149844
N1    N     N_R   0.392140 0.102630 0.941800 -0.070372
N2    N     N_R   0.525160 0.972040 0.206160 -0.038450
N3    N     N_R   0.025160 0.527960 0.206160 -0.038118
N4    N     N_R   0.025160 0.472040 0.206160 -0.038122
N5    N     N_R   0.317870 0.971120 0.792790 -0.042816
N6    N     N_R   0.317870 0.028880 0.792790 -0.042815
N7    N     N_R   0.817870 0.471120 0.792790 -0.045328
N8    N     N_R   0.817870 0.528880 0.792790 -0.045338
N9    N     N_R   0.473480 0.027920 0.793480 -0.039411
N10   N     N_R   0.473480 0.972080 0.793480 -0.039411
N11   N     N_R   0.973480 0.527920 0.793480 -0.045239
N12   N     N_R   0.392140 0.897370 0.941800 -0.070375
N13   N     N_R   0.973480 0.472080 0.793480 -0.045241
N14   N     N_R   0.681610 0.971120 0.207570 -0.033391
N15   N     N_R   0.681610 0.028880 0.207570 -0.033395
N16   N     N_R   0.181610 0.471120 0.207570 -0.033232
N17   N     N_R   0.181610 0.528880 0.207570 -0.033229
N18   N     N_R   0.605410 0.102620 0.056870 -0.037628
N19   N     N_R   0.605410 0.897380 0.056870 -0.037620
N20   N     N_R   0.105410 0.602620 0.056870 -0.036875
N21   N     N_R   0.105410 0.397380 0.056870 -0.036891
N22   N     N_R   0.549680 0.896430 0.944180 -0.046541
N23   N     N_R   0.892140 0.602630 0.941800 -0.068338
N24   N     N_R   0.549680 0.103570 0.944180 -0.046544
N25   N     N_R   0.049680 0.396430 0.944180 -0.044846
N26   N     N_R   0.049680 0.603570 0.944180 -0.044836
N27   N     N_R   0.892140 0.397370 0.941800 -0.068310
N28   N     N_R   0.450890 0.896450 0.057150 -0.038545
N29   N     N_R   0.450890 0.103550 0.057150 -0.038544
N30   N     N_R   0.950890 0.396450 0.057150 -0.040619
N31   N     N_R   0.950890 0.603550 0.057150 -0.040598
N32   N     N_R   0.525160 0.027960 0.206160 -0.038452
Ni1   Ni    Ni4+2 0.433410 0.064680 0.868830 0.206020
Ni2   Ni    Ni4+2 0.433410 0.935320 0.868830 0.206010
Ni3   Ni    Ni4+2 0.933410 0.564680 0.868830 0.212218
Ni4   Ni    Ni4+2 0.933410 0.435320 0.868830 0.212316
Ni5   Ni    Ni4+2 0.565650 0.934380 0.131170 0.214089
Ni6   Ni    Ni4+2 0.565650 0.065620 0.131170 0.214084
Ni7   Ni    Ni4+2 0.065650 0.434380 0.131170 0.210403
Ni8   Ni    Ni4+2 0.065650 0.565620 0.131170 0.210390
O1    O     O_2   0.304170 0.220600 0.771772 -0.582852
O2    O     O_2   0.304147 0.779407 0.771749 -0.582874
O3    O     O_2   0.853390 0.720387 0.791187 -0.588359
O4    O     O_2   0.853924 0.279654 0.791411 -0.588365

loop_
_geom_bond_atom_site_label_1
_geom_bond_atom_site_label_2
_ccdc_geom_bond_type
C65   C92   S    
C55   C62   A    
C79   N2    A    
C56   H16   S    
N18   Ni6   S    
C44   C66   A    
C16   C72   A    
C29   H70   S    
N31   Ni8   S    
C15   C94   A    
N11   Ni3   S    
C75   H30   S    
N10   Ni2   S    
C54   C60   A    
N22   Ni2   S    
N9    Ni1   S    
C79   H32   S    
C21   C31   S    
C99   N10   A    
C59   C64   A    
C42   C48   A    
N1    Ni1   S    
C35   H76   S    
C104  H47   S    
C9    C16   A    
C55   H15   S    
C79   C93   A    
C32   C38   S    
C102  N14   A    
C71   C76   A    
C81   C95   A    
C85   C96   A    
C101  N13   A    
C57   C59   A    
C14   C49   S    
C5    C17   S    
N3    Ni8   S    
C78   C93   A    
C85   N5    A    
C80   H33   S    
C37   H79   S    
C74   H29   S    
C70   H26   S    
C5    O2    D    
N19   Ni5   S    
C81   H35   S    
C24   C32   S    
C10   C98   A    
C28   N23   A    
C30   C96   S    
C18   C53   S    
C102  H44   S    
C22   H61   S    
C6    C28   S    
C20   C24   S    
C56   C58   A    
N16   N17   A    
C74   C77   A    
C94   N22   A    
N14   N15   A    
C15   C51   S    
C21   H23   S    
N13   Ni4   S    
C70   C84   A    
C78   H31   S    
C68   H24   S    
C88   H39   S    
C51   C55   A    
C88   C97   A    
C3    C13   A    
C43   C65   A    
C72   N20   A    
C36   N30   A    
C36   C92   A    
C5    H63   S    
C99   H41   S    
C73   H28   S    
C13   C33   S    
C72   H51   S    
N18   N24   A    
C12   C32   S    
C27   C30   S    
C29   C31   S    
C104  N16   A    
C34   H75   S    
N5    N6    A    
C43   H7    S    
C64   C89   S    
C2    C14   A    
C103  H46   S    
C44   C46   A    
N28   Ni5   S    
C50   N18   A    
C59   H19   S    
C48   C53   A    
N19   N22   A    
C6    H64   S    
C86   N6    A    
C33   C40   S    
C58   H18   S    
C22   C31   S    
C46   H10   S    
C48   H13   S    
N7    N8    A    
C16   C52   S    
C41   C47   A    
N14   Ni5   S    
C12   C103  A    
C67   H22   S    
C78   N32   A    
C20   H12   S    
C7    O4    D    
C62   C66   A    
C20   C30   S    
C83   H52   S    
C68   C73   A    
C20   H59   S    
C71   H27   S    
C46   C51   A    
C77   C95   S    
C8    C18   A    
N26   Ni3   S    
C98   N9    A    
N2    N32   A    
C11   C100  A    
C80   C95   A    
C19   H58   S    
C19   C23   S    
C34   C90   A    
C12   C102  A    
N27   Ni4   S    
C76   C93   S    
C43   C45   A    
N29   Ni6   S    
C26   C33   S    
C38   H72   S    
C85   H36   S    
C45   C49   A    
C9    N26   A    
C2    H54   S    
C6    O3    D    
N23   N31   A    
C18   C83   A    
C3    H48   S    
C39   N27   A    
C69   C74   A    
C11   C101  A    
N15   Ni6   S    
C103  N15   A    
C4    O1    D    
C13   C104  A    
C9    H57   S    
C35   N29   A    
C27   H66   S    
C47   H11   S    
C66   C91   S    
C86   C96   A    
C40   H74   S    
C19   H1    S    
C35   C89   A    
N2    Ni5   S    
C60   C65   A    
C94   H53   S    
N21   Ni7   S    
C54   H14   S    
C3    N17   A    
C73   C76   A    
N12   Ni2   S    
C24   H2    S    
C41   C63   A    
C26   H4    S    
C8    N25   A    
N6    Ni1   S    
C42   C64   A    
C39   C92   A    
N5    Ni2   S    
C25   H3    S    
C87   N7    A    
C100  N11   A    
N24   Ni1   S    
C88   N8    A    
C21   C25   S    
C101  H43   S    
C1    C89   A    
C81   N4    A    
C98   H40   S    
N16   Ni7   S    
N21   N25   A    
C17   C90   A    
C58   C63   A    
C29   H69   S    
C53   C57   A    
N7    Ni4   S    
C62   H21   S    
C10   C82   S    
C24   H56   S    
C60   H20   S    
C47   C52   A    
C1    N1    A    
C11   C84   S    
C22   H34   S    
C44   H8    S    
N23   Ni3   S    
N17   Ni8   S    
C1    C4    S    
C68   C82   A    
C23   C32   S    
N25   Ni4   S    
C7    H65   S    
C42   H6    S    
N3    N4    A    
C83   N21   A    
C69   C84   A    
C61   N19   A    
C19   C30   S    
C25   H67   S    
C38   H71   S    
C14   C50   A    
C52   C56   A    
C63   C90   S    
C26   H78   S    
C80   N3    A    
C4    H62   S    
C28   C91   A    
C67   C71   A    
C50   H49   S    
C31   C97   S    
C87   H38   S    
C23   H45   S    
C10   C99   A    
C34   N28   A    
N32   Ni6   S    
N20   N26   A    
N30   Ni7   S    
C57   H17   S    
C40   H73   S    
N12   N28   A    
N4    Ni7   S    
C45   H9    S    
C23   H80   S    
N27   N30   A    
C2    N24   A    
C86   H37   S    
C67   C82   A    
C69   H25   S    
N9    N10   A    
C22   C26   S    
C75   C77   A    
C100  H42   S    
C70   C75   A    
C21   H60   S    
C15   C61   A    
C7    C39   S    
N1    N29   A    
C17   N12   A    
C41   H5    S    
C36   H77   S    
C27   C38   S    
C61   H50   S    
C29   C40   S    
C87   C97   A    
C8    H55   S    
C27   H68   S    
C37   N31   A    
N20   Ni8   S    
N8    Ni3   S    
C49   C54   A    
C37   C91   A    
C25   C33   S    
N11   N13   A    
