data_mof_unit_21695.cif
_audit_creation_date              2012-12-10T19:09:31-0500
_audit_creation_method            fapswitch 2.2
_symmetry_space_group_name_H-M    P1
_symmetry_Int_Tables_number       1
_space_group_crystal_system       triclinic
_cell_length_a                    15.001721
_cell_length_b                    15.196089
_cell_length_c                    9.671466
_cell_angle_alpha                 91.135935
_cell_angle_beta                  89.998991
_cell_angle_gamma                 90.000071
_cell_volume                      2204.3465098

loop_
_atom_site_label
_atom_site_type_symbol
_atom_type_description
_atom_site_fract_x
_atom_site_fract_y
_atom_site_fract_z
_atom_type_partial_charge
C1    C     C_R   0.122372 0.380077 0.499444 0.878900
C2    C     C_R   0.879592 0.622477 0.501234 0.869101
C3    C     C_R   0.379565 0.877549 0.498767 0.869234
C4    C     C_R   0.379591 0.122476 0.501234 0.869123
C5    C     C_3   0.845151 0.228771 0.584639 0.377528
C6    C     C_3   0.793779 0.273358 0.344973 0.370715
C7    C     C_3   0.845130 0.771214 0.415184 0.377449
C8    C     C_3   0.793911 0.726774 0.655000 0.370762
C9    C     C_3   0.345166 0.728755 0.584577 0.377383
C10   C     C_3   0.293727 0.773410 0.344965 0.370773
C11   C     C_3   0.345130 0.271215 0.415193 0.377453
C12   C     C_R   0.122359 0.619936 0.500554 0.878846
C13   C     C_3   0.293901 0.226764 0.655001 0.370786
C14   C     C_3   0.272727 0.656553 0.584525 -0.472171
C15   C     C_3   0.221580 0.702617 0.350002 -0.465923
C16   C     C_3   0.272673 0.343399 0.415205 -0.472133
C17   C     C_3   0.221755 0.297561 0.649967 -0.465915
C18   C     C_3   0.772740 0.156539 0.584509 -0.472232
C19   C     C_3   0.721583 0.202612 0.349996 -0.465835
C20   C     C_3   0.772678 0.843405 0.415206 -0.472122
C21   C     C_3   0.721756 0.797561 0.649977 -0.465868
C22   C     C_3   0.724553 0.345810 0.559453 -0.356823
C23   C     C_R   0.622372 0.880078 0.499445 0.878919
C24   C     C_3   0.724549 0.654183 0.440726 -0.356722
C25   C     C_3   0.224562 0.845802 0.559543 -0.356724
C26   C     C_3   0.224550 0.154184 0.440715 -0.356683
C27   C     C_3   0.812052 0.308147 0.496605 -0.012537
C28   C     C_3   0.812086 0.691887 0.503389 -0.012575
C29   C     C_3   0.312045 0.808154 0.496610 -0.012528
C30   C     C_3   0.312084 0.191885 0.503389 -0.012589
C31   C     C_3   0.191329 0.686869 0.500408 0.066903
C32   C     C_3   0.191356 0.313159 0.499588 0.066893
C33   C     C_3   0.691337 0.186861 0.500406 0.066898
C34   C     C_R   0.622363 0.119932 0.500554 0.878851
C35   C     C_3   0.691357 0.813160 0.499589 0.066905
C36   C     C_3   0.153461 0.773411 0.563636 -0.425509
C37   C     C_3   0.153434 0.226560 0.436640 -0.425549
C38   C     C_3   0.653472 0.273402 0.563650 -0.425400
C39   C     C_3   0.653432 0.726559 0.436636 -0.425476
C40   C     C_3   0.041447 0.419509 0.078499 -0.239802
C41   C     C_3   0.048445 0.423504 0.916255 -0.230811
C42   C     C_3   0.041500 0.580463 0.921498 -0.239819
C43   C     C_3   0.048493 0.576466 0.083742 -0.230840
C44   C     C_3   0.541434 0.919503 0.078499 -0.239844
C45   C     C_3   0.907295 0.506230 0.081019 -0.260768
C46   C     C_3   0.548425 0.923491 0.916253 -0.230801
C47   C     C_3   0.541519 0.080452 0.921498 -0.239827
C48   C     C_3   0.548504 0.076458 0.083742 -0.230803
C49   C     C_3   0.929888 0.203874 0.781673 -0.369157
C50   C     C_3   0.773114 0.314882 0.116374 -0.350929
C51   C     C_3   0.929761 0.796075 0.218024 -0.369218
C52   C     C_3   0.773394 0.685368 0.883691 -0.350767
C53   C     C_3   0.429959 0.703770 0.781530 -0.369017
C54   C     C_3   0.272904 0.815029 0.116432 -0.351054
C55   C     C_3   0.429756 0.296118 0.218039 -0.369163
C56   C     C_3   0.907291 0.493823 0.918989 -0.260816
C57   C     C_3   0.273337 0.185349 0.883676 -0.350814
C58   C     C_3   0.407297 0.006241 0.081021 -0.260783
C59   C     C_3   0.407290 0.993846 0.918989 -0.260835
C60   C     C_R   0.879569 0.377545 0.498766 0.869168
H1    H     H_    0.906299 0.201906 0.532619 0.010080
H2    H     H_    0.247797 0.640642 0.301739 0.128507
H3    H     H_    0.300245 0.405588 0.460560 0.109302
H4    H     H_    0.248024 0.359584 0.698008 0.128408
H5    H     H_    0.800312 0.094437 0.538855 0.109258
H6    H     H_    0.747759 0.140626 0.301697 0.128508
H7    H     H_    0.800256 0.905594 0.460572 0.109288
H8    H     H_    0.748019 0.859591 0.698028 0.128395
H9    H     H_    0.252082 0.642213 0.692372 0.207536
H10   H     H_    0.162467 0.723333 0.288932 0.206820
H11   H     H_    0.251926 0.357613 0.307356 0.207532
H12   H     H_    0.857079 0.243130 0.305589 0.037380
H13   H     H_    0.162706 0.276909 0.711254 0.206898
H14   H     H_    0.752101 0.142139 0.692339 0.207518
H15   H     H_    0.662477 0.223378 0.288938 0.206859
H16   H     H_    0.751932 0.857627 0.307352 0.207538
H17   H     H_    0.662707 0.776896 0.711271 0.206913
H18   H     H_    0.736183 0.372181 0.666154 0.199139
H19   H     H_    0.699933 0.401425 0.496709 0.182681
H20   H     H_    0.736112 0.627802 0.334011 0.199153
H21   H     H_    0.699999 0.598567 0.503538 0.182669
H22   H     H_    0.236212 0.872097 0.666284 0.199137
H23   H     H_    0.906272 0.798148 0.467134 0.010136
H24   H     H_    0.199948 0.901471 0.496902 0.182672
H25   H     H_    0.236115 0.127812 0.333996 0.199157
H26   H     H_    0.199999 0.098561 0.503512 0.182685
H27   H     H_    0.132493 0.763353 0.672630 0.178548
H28   H     H_    0.093540 0.794505 0.504963 0.153703
H29   H     H_    0.132352 0.236521 0.327668 0.178487
H30   H     H_    0.093573 0.205510 0.495511 0.153741
H31   H     H_    0.632565 0.263346 0.672681 0.178638
H32   H     H_    0.593510 0.294476 0.505048 0.153581
H33   H     H_    0.632355 0.736519 0.327650 0.178481
H34   H     H_    0.857252 0.756988 0.694264 0.037278
H35   H     H_    0.593563 0.705508 0.495503 0.153698
H36   H     H_    0.002800 0.360356 0.108278 0.136206
H37   H     H_    0.022469 0.361524 0.868901 0.163791
H38   H     H_    0.002895 0.639640 0.891720 0.136158
H39   H     H_    0.022554 0.638463 0.131096 0.163774
H40   H     H_    0.502782 0.860358 0.108283 0.136227
H41   H     H_    0.522427 0.861518 0.868905 0.163878
H42   H     H_    0.502932 0.139638 0.891713 0.136171
H43   H     H_    0.522574 0.138458 0.131093 0.163797
H44   H     H_    0.109429 0.411627 0.122240 0.147264
H45   H     H_    0.406276 0.701873 0.532468 0.010125
H46   H     H_    0.119845 0.427571 0.885763 0.135564
H47   H     H_    0.109487 0.588301 0.877754 0.147287
H48   H     H_    0.119889 0.572356 0.114232 0.135579
H49   H     H_    0.609415 0.911612 0.122234 0.147269
H50   H     H_    0.619823 0.927537 0.885754 0.135564
H51   H     H_    0.609509 0.088271 0.877759 0.147292
H52   H     H_    0.619899 0.072338 0.114238 0.135574
H53   H     H_    0.864319 0.457422 0.130020 0.203618
H54   H     H_    0.877456 0.428797 0.891112 0.177983
H55   H     H_    0.864339 0.542650 0.869990 0.203636
H56   H     H_    0.357027 0.743229 0.305483 0.037390
H57   H     H_    0.877497 0.571272 0.108901 0.178118
H58   H     H_    0.364325 0.957429 0.130014 0.203552
H59   H     H_    0.377434 0.928834 0.891097 0.177940
H60   H     H_    0.364358 0.042692 0.870001 0.203638
H61   H     H_    0.377503 0.071280 0.108918 0.178138
H62   H     H_    0.995363 0.216780 0.732108 0.166895
H63   H     H_    0.913298 0.132598 0.773529 0.158657
H64   H     H_    0.935838 0.221394 0.893154 0.169035
H65   H     H_    0.734393 0.254354 0.091270 0.156912
H66   H     H_    0.844070 0.304371 0.087347 0.159373
H67   H     H_    0.406264 0.298153 0.467157 0.010143
H68   H     H_    0.745773 0.367495 0.050745 0.182318
H69   H     H_    0.995258 0.783398 0.267662 0.166864
H70   H     H_    0.912996 0.867320 0.225899 0.158714
H71   H     H_    0.935775 0.778402 0.106604 0.168946
H72   H     H_    0.734824 0.745994 0.908788 0.156877
H73   H     H_    0.844395 0.695743 0.912563 0.159299
H74   H     H_    0.745984 0.632845 0.949435 0.182387
H75   H     H_    0.495424 0.716559 0.731837 0.166860
H76   H     H_    0.413249 0.632511 0.773488 0.158649
H77   H     H_    0.436013 0.721330 0.892992 0.169048
H78   H     H_    0.357241 0.256967 0.694283 0.037291
H79   H     H_    0.234083 0.754579 0.091299 0.156932
H80   H     H_    0.343827 0.804428 0.087323 0.159425
H81   H     H_    0.245623 0.867714 0.050893 0.182255
H82   H     H_    0.495252 0.283553 0.267780 0.166804
H83   H     H_    0.412897 0.367351 0.225760 0.158701
H84   H     H_    0.435845 0.278372 0.106656 0.168958
H85   H     H_    0.234717 0.245942 0.908767 0.156889
H86   H     H_    0.344325 0.195772 0.912581 0.159307
H87   H     H_    0.245960 0.132804 0.949404 0.182372
H88   H     H_    0.300272 0.594422 0.538939 0.109279
N1    N     N_3   0.998760 0.500000 0.138610 -0.028973
N2    N     N_3   0.998760 0.500000 0.861390 -0.028964
N3    N     N_3   0.498760 1.000000 0.138610 -0.028984
N4    N     N_3   0.498760 1.000000 0.861390 -0.028974
O1    O     O_R   0.092530 0.407440 0.616040 -0.641283
O2    O     O_R   0.907330 0.407420 0.383960 -0.605073
O3    O     O_R   0.907330 0.592580 0.383960 -0.579714
O4    O     O_R   0.907330 0.592580 0.616040 -0.605052
O5    O     O_R   0.407330 0.907420 0.616040 -0.579768
O6    O     O_R   0.407330 0.907420 0.383960 -0.605165
O7    O     O_R   0.407330 0.092580 0.383960 -0.579694
O8    O     O_R   0.407330 0.092580 0.616040 -0.605078
O9    O     O_3   0.862704 0.256502 0.723213 -0.583058
O10   O     O_3   0.765264 0.341850 0.257203 -0.589470
O11   O     O_3   0.862687 0.743390 0.276653 -0.583082
O12   O     O_R   0.092530 0.407440 0.383960 -0.644835
O13   O     O_3   0.765392 0.658350 0.742902 -0.589465
O14   O     O_3   0.362810 0.756468 0.723133 -0.583090
O15   O     O_3   0.265135 0.841929 0.257298 -0.589427
O16   O     O_3   0.362708 0.243393 0.276667 -0.583082
O17   O     O_3   0.265370 0.158336 0.742884 -0.589463
O18   O     O_R   0.092530 0.592560 0.383960 -0.641270
O19   O     O_R   0.092530 0.592560 0.616040 -0.644842
O20   O     O_R   0.592530 0.907440 0.616040 -0.641256
O21   O     O_R   0.592530 0.907440 0.383960 -0.644843
O22   O     O_R   0.592530 0.092560 0.383960 -0.641254
O23   O     O_R   0.592530 0.092560 0.616040 -0.644847
O24   O     O_R   0.907330 0.407420 0.616040 -0.579805
Zn1   Zn    Zn3+2 0.999890 0.500000 0.654960 0.922315
Zn2   Zn    Zn3+2 0.999890 0.500000 0.345040 0.922352
Zn3   Zn    Zn3+2 0.499890 1.000000 0.654960 0.922338
Zn4   Zn    Zn3+2 0.499890 1.000000 0.345040 0.922351

loop_
_geom_bond_atom_site_label_1
_geom_bond_atom_site_label_2
_ccdc_geom_bond_type
C7    H23   S    
C59   H60   S    
C57   H85   S    
C50   O10   S    
C52   H74   S    
C20   H7    S    
C46   N4    S    
C53   H75   S    
C14   C31   S    
C24   H21   S    
C51   H69   S    
O12   Zn2   S    
C4    O8    A    
C59   N4    S    
C36   H28   S    
C18   H5    S    
C6    H12   S    
C6    C19   S    
C53   H76   S    
C2    O3    A    
C37   H30   S    
O18   Zn2   S    
C53   H77   S    
C9    O14   S    
C43   H39   S    
C22   H19   S    
C27   C60   S    
C42   H38   S    
C17   H4    S    
C4    O7    A    
C40   H44   S    
C9    H45   S    
C22   C38   S    
C38   H32   S    
C58   H58   S    
C24   C39   S    
C20   H16   S    
C19   H6    S    
O5    Zn3   S    
C3    C29   S    
O6    Zn4   S    
C39   H33   S    
C34   O23   A    
C5    C27   S    
C20   C35   S    
C24   H20   S    
C54   H80   S    
C23   O20   A    
C6    O10   S    
C1    O12   A    
C10   O15   S    
C3    O6    A    
C59   H59   S    
C51   O11   S    
C50   H66   S    
C16   H3    S    
C42   H47   S    
O7    Zn4   S    
C49   O9    S    
C43   N1    S    
O3    Zn2   S    
C9    C29   S    
C44   H49   S    
C13   O17   S    
C18   H14   S    
C47   H42   S    
C57   H86   S    
C17   H13   S    
C52   H73   S    
C16   H11   S    
C55   O16   S    
C40   H36   S    
C54   H79   S    
C51   H70   S    
C44   C46   S    
C8    C21   S    
C12   O19   A    
C57   O17   S    
C36   H27   S    
C25   C29   S    
C46   H41   S    
O1    Zn1   S    
C44   N3    S    
C55   H83   S    
C41   H46   S    
C52   H72   S    
C54   O15   S    
C13   C30   S    
C8    H34   S    
C45   C56   S    
C19   C33   S    
C51   H71   S    
C14   H88   S    
O23   Zn3   S    
C41   N2    S    
O21   Zn4   S    
C58   C59   S    
C48   H43   S    
C7    O11   S    
C38   H31   S    
C1    C32   S    
C7    C28   S    
C5    O9    S    
C35   C39   S    
C9    C14   S    
O8    Zn3   S    
C34   O22   A    
C52   O13   S    
C25   H24   S    
C11   C16   S    
C6    C27   S    
C26   H26   S    
C33   C34   S    
C5    H1    S    
C50   H65   S    
C32   C37   S    
C1    O1    A    
C39   H35   S    
N2    Zn1   S    
C21   C35   S    
C11   H67   S    
O20   Zn3   S    
C40   C41   S    
C48   H52   S    
C26   C30   S    
C23   C35   S    
C22   C27   S    
O2    Zn2   S    
C12   C31   S    
C25   H22   S    
C60   O24   A    
C14   H9    S    
C41   H37   S    
C50   H68   S    
C42   C43   S    
C56   N2    S    
O22   Zn4   S    
C10   H56   S    
C58   N3    S    
C3    O5    A    
C45   H57   S    
C15   H10   S    
O24   Zn1   S    
C58   H61   S    
C2    O4    A    
C55   H84   S    
C56   H55   S    
C24   C28   S    
C47   C48   S    
C12   O18   A    
C26   C37   S    
C15   C31   S    
C23   O21   A    
C37   H29   S    
C16   C32   S    
C49   H64   S    
C33   C38   S    
C13   C17   S    
C10   C15   S    
C13   H78   S    
N4    Zn3   S    
C57   H87   S    
C21   H8    S    
C46   H50   S    
C11   C30   S    
C44   H40   S    
C10   C29   S    
N3    Zn4   S    
C11   O16   S    
C22   H18   S    
C5    C18   S    
C26   H25   S    
C47   H51   S    
C49   H62   S    
C19   H15   S    
N1    Zn2   S    
C15   H2    S    
C40   N1    S    
C45   N1    S    
C43   H48   S    
C42   N2    S    
C18   C33   S    
C60   O2    A    
O4    Zn1   S    
C8    O13   S    
C25   C36   S    
C45   H53   S    
C53   O14   S    
C54   H81   S    
C47   N4    S    
C8    C28   S    
C7    C20   S    
C48   N3    S    
C21   H17   S    
C55   H82   S    
C17   C32   S    
C56   H54   S    
C31   C36   S    
O19   Zn1   S    
C2    C28   S    
C4    C30   S    
C49   H63   S    
