data_mof_unit_7314.cif
_audit_creation_date              2012-12-10T20:35:54-0500
_audit_creation_method            fapswitch 2.2
_symmetry_space_group_name_H-M    P1
_symmetry_Int_Tables_number       1
_space_group_crystal_system       triclinic
_cell_length_a                    15.708536
_cell_length_b                    10.70282
_cell_length_c                    9.887234
_cell_angle_alpha                 88.77618
_cell_angle_beta                  89.218852
_cell_angle_gamma                 90.449735
_cell_volume                      1661.70874314

loop_
_atom_site_label
_atom_site_type_symbol
_atom_type_description
_atom_site_fract_x
_atom_site_fract_y
_atom_site_fract_z
_atom_type_partial_charge
C1    C     C_R   0.506800 0.260876 0.500904 0.900510
C2    C     C_R   0.522883 0.130065 0.501891 -0.203653
C3    C     C_R   0.543928 0.069191 0.380631 0.121894
C4    C     C_R   0.338425 0.500045 0.500874 0.898535
C5    C     C_R   0.518828 0.943714 0.370012 0.140769
C6    C     C_R   0.499712 0.874407 0.491945 -0.161328
C7    C     C_R   0.500251 0.933993 0.615802 0.066721
C8    C     C_3   0.435800 0.931728 0.730088 0.002627
C9    C     C_3   0.445604 0.073257 0.733231 -0.444889
C10   C     C_R   0.433991 0.447600 0.073412 0.103521
C11   C     C_R   0.566607 0.550120 0.067276 0.217390
C12   C     C_3   0.949383 0.549547 0.638083 -0.479617
C13   C     C_R   0.565867 0.549550 0.923853 -0.144596
C14   C     C_R   0.436190 0.440811 0.931226 0.156295
C15   C     C_3   0.343457 0.468258 0.920348 -0.041518
C16   C     C_R   0.496649 0.740528 0.497623 0.894558
C17   C     C_3   0.342506 0.488694 0.072698 -0.047623
C18   C     C_R   0.661635 0.500358 0.499100 0.901440
C19   C     C_3   0.045931 0.524808 0.649861 0.028193
C20   C     C_3   0.049299 0.378348 0.457640 -0.477171
C21   C     C_3   0.950980 0.374375 0.473194 -0.456171
C22   C     C_1   0.750485 0.503141 0.497093 -0.208755
C23   C     C_3   0.917343 0.509605 0.494892 0.330112
C24   C     C_3   0.083061 0.507277 0.504071 0.297331
C25   C     C_3   0.094055 0.610853 0.748863 -0.403902
C26   C     C_3   0.115329 0.743377 0.699006 -0.872219
C27   C     C_3   0.941538 0.539711 0.235148 -1.004135
C28   C     C_3   0.602153 0.131289 0.273334 -0.337310
C29   C     C_3   0.556806 0.179055 0.146145 -0.803176
C30   C     C_3   0.502425 0.894860 0.229673 -0.851172
C31   C     C_3   0.346432 0.887915 0.690870 -0.899933
C32   C     C_3   0.641489 0.611397 0.131886 -0.857213
C33   C     C_3   0.291753 0.353511 0.879125 -0.948600
C34   C     C_3   0.953900 0.599076 0.377175 0.413977
C35   C     C_3   0.329530 0.627565 0.103941 -0.897388
C36   C     C_3   0.908957 0.729846 0.360300 -0.381578
C37   C     C_3   0.894310 0.810642 0.483363 -0.953670
C38   C     C_3   0.051577 0.612228 0.403291 -0.404034
C39   C     C_1   0.825814 0.506182 0.495797 -0.095898
C40   C     C_1   0.174444 0.504395 0.503686 -0.088495
C41   C     C_1   0.249701 0.502070 0.502661 -0.208642
C42   C     C_R   0.508779 0.060414 0.620103 0.038797
H1    H     H_    0.915080 0.494348 0.718950 0.153907
H2    H     H_    0.069727 0.360876 0.351813 0.186264
H3    H     H_    0.076723 0.301085 0.520032 0.172202
H4    H     H_    0.933015 0.313572 0.562039 0.176730
H5    H     H_    0.921989 0.329813 0.384120 0.189078
H6    H     H_    0.065602 0.705471 0.443906 0.175146
H7    H     H_    0.088422 0.608461 0.306387 0.160199
H8    H     H_    0.159144 0.743007 0.610194 0.261294
H9    H     H_    0.056823 0.795456 0.676064 0.249211
H10   H     H_    0.148416 0.793366 0.780620 0.243167
H11   H     H_    0.055890 0.616756 0.844048 0.201552
H12   H     H_    0.936390 0.647789 0.660013 0.206168
H13   H     H_    0.154965 0.565470 0.776869 0.211395
H14   H     H_    0.873879 0.512616 0.220672 0.242162
H15   H     H_    0.959808 0.607101 0.152386 0.231110
H16   H     H_    0.981090 0.456660 0.217636 0.245814
H17   H     H_    0.488451 0.197660 0.166485 0.263222
H18   H     H_    0.587862 0.266801 0.108320 0.242059
H19   H     H_    0.562255 0.110256 0.064101 0.223145
H20   H     H_    0.637254 0.210489 0.318422 0.193771
H21   H     H_    0.652355 0.064247 0.243400 0.183218
H22   H     H_    0.452813 0.821190 0.228322 0.253759
H23   H     H_    0.460064 0.883710 0.822583 0.165839
H24   H     H_    0.473185 0.968228 0.165616 0.230546
H25   H     H_    0.562499 0.864264 0.181166 0.235280
H26   H     H_    0.326107 0.933355 0.594581 0.247068
H27   H     H_    0.345577 0.785018 0.679027 0.250588
H28   H     H_    0.300267 0.911470 0.772234 0.240298
H29   H     H_    0.620915 0.668559 0.217821 0.277808
H30   H     H_    0.687668 0.539133 0.164077 0.245070
H31   H     H_    0.675432 0.675883 0.059576 0.190334
H32   H     H_    0.307706 0.269953 0.942300 0.238097
H33   H     H_    0.222780 0.372834 0.891269 0.236490
H34   H     H_    0.388145 0.126258 0.702259 0.207681
H35   H     H_    0.304996 0.332124 0.771663 0.268664
H36   H     H_    0.337356 0.645806 0.212547 0.275150
H37   H     H_    0.375520 0.687940 0.045644 0.233753
H38   H     H_    0.263968 0.655052 0.075899 0.230297
H39   H     H_    0.846233 0.767481 0.553398 0.264482
H40   H     H_    0.954675 0.830795 0.534212 0.257098
H41   H     H_    0.867976 0.901806 0.449104 0.252271
H42   H     H_    0.946424 0.787667 0.285500 0.202178
H43   H     H_    0.845100 0.716079 0.315069 0.220200
H44   H     H_    0.475924 0.106185 0.827097 0.177231
H45   H     H_    0.050431 0.432009 0.702971 0.122054
H46   H     H_    0.617788 0.591580 0.865456 0.160688
H47   H     H_    0.330189 0.553097 0.857253 0.200462
H48   H     H_    0.299611 0.424351 0.132104 0.181371
N1    N     N_R   0.499430 0.499140 0.142800 -0.100666
N2    N     N_R   0.499430 0.499180 0.857150 -0.133975
O1    O     O_R   0.500010 0.316790 0.614690 -0.610116
O2    O     O_R   0.500000 0.316760 0.385350 -0.603713
O3    O     O_R   0.377150 0.500020 0.614720 -0.624227
O4    O     O_R   0.377140 0.499990 0.385380 -0.618253
O5    O     O_R   0.500000 0.683240 0.614650 -0.618165
O6    O     O_R   0.499990 0.683210 0.385310 -0.623140
O7    O     O_R   0.622860 0.500010 0.614620 -0.617963
O8    O     O_R   0.622850 0.499980 0.385280 -0.622951
Zn1   Zn    Zn3+2 0.500010 0.500020 0.653130 0.932357
Zn2   Zn    Zn3+2 0.499990 0.499980 0.346870 0.925263

loop_
_geom_bond_atom_site_label_1
_geom_bond_atom_site_label_2
_ccdc_geom_bond_type
O4    Zn2   S    
C16   O6    A    
C7    C8    S    
C32   H30   S    
C38   H7    S    
C12   C23   S    
C9    C42   S    
C28   C29   S    
C25   H11   S    
C5    C30   S    
C12   H1    S    
C19   H45   S    
C26   H8    S    
C5    C6    A    
C16   O5    A    
C4    C41   S    
C10   C17   S    
C35   H38   S    
C12   C19   S    
C1    C2    S    
C7    C42   A    
C4    O4    A    
C33   H33   S    
C31   H28   S    
C20   C24   S    
C8    C9    S    
C24   C38   S    
C9    H34   S    
C38   H6    S    
C30   H25   S    
C8    H23   S    
C18   C22   S    
C37   H39   S    
C18   O8    A    
C20   H2    S    
C32   H29   S    
C27   C34   S    
C31   H26   S    
C29   H19   S    
C29   H17   S    
C27   H15   S    
C20   H3    S    
O1    Zn1   S    
C32   H31   S    
C27   H14   S    
C1    O2    A    
C25   C26   S    
O6    Zn2   S    
C26   H10   S    
C9    H44   S    
C15   H47   S    
C4    O3    A    
C29   H18   S    
C23   C34   S    
O8    Zn2   S    
C14   N2    A    
C30   H22   S    
C30   H24   S    
N2    Zn1   S    
C1    O1    A    
C40   C41   T    
O7    Zn1   S    
C10   N1    A    
C21   C23   S    
C13   N2    A    
C10   C14   A    
C37   H40   S    
C18   O7    A    
N1    Zn2   S    
C21   H4    S    
C15   C17   S    
C3    C28   S    
C34   C38   S    
C8    C31   S    
C17   H48   S    
C25   H13   S    
C3    C5    A    
C27   H16   S    
C11   C32   S    
C6    C7    A    
C36   H43   S    
C35   H36   S    
C36   H42   S    
C2    C3    A    
C26   H9    S    
C11   C13   A    
C33   H35   S    
C2    C42   A    
C23   C39   S    
C22   C39   T    
C13   H46   S    
C35   H37   S    
C24   C40   S    
C19   C24   S    
C34   C36   S    
C19   C25   S    
O5    Zn1   S    
C6    C16   S    
C28   H21   S    
C11   N1    A    
C33   H32   S    
C31   H27   S    
C20   C21   S    
O2    Zn2   S    
C36   C37   S    
C14   C15   S    
C37   H41   S    
C17   C35   S    
C15   C33   S    
C12   H12   S    
O3    Zn1   S    
C21   H5    S    
C28   H20   S    
