data_mof_unit_7766.cif
_audit_creation_date              2012-12-10T19:05:22-0500
_audit_creation_method            fapswitch 2.2
_symmetry_space_group_name_H-M    P1
_symmetry_Int_Tables_number       1
_space_group_crystal_system       triclinic
_cell_length_a                    9.540147
_cell_length_b                    10.840517
_cell_length_c                    17.281914
_cell_angle_alpha                 90.035257
_cell_angle_beta                  85.214858
_cell_angle_gamma                 90.308883
_cell_volume                      1781.04223135

loop_
_atom_site_label
_atom_site_type_symbol
_atom_type_description
_atom_site_fract_x
_atom_site_fract_y
_atom_site_fract_z
_atom_type_partial_charge
C1    C     C_R   0.500471 0.737823 0.502475 0.836875
C2    C     C_R   0.356476 0.415653 0.773002 0.240326
C3    C     C_R   0.460828 0.576784 0.143612 -0.166044
C4    C     C_R   0.453411 0.585428 0.224359 0.239505
C5    C     C_R   0.618959 0.414849 0.226434 -0.253666
C6    C     C_R   0.623556 0.406035 0.146005 -0.165155
C7    C     C_R   0.540765 0.484107 0.104780 0.114077
C8    C     C_2   0.424903 0.476584 0.982085 0.254179
C9    C     C_2   0.542292 0.471561 0.020426 -0.300430
C10   C     C_R   0.531849 0.502095 0.265941 -0.085641
C11   C     C_R   0.380311 0.936496 0.497906 0.075583
C12   C     C_R   0.480476 0.496036 0.649816 0.789069
C13   C     C_R   0.500833 0.871199 0.512127 -0.187179
C14   C     C_R   0.614200 0.936099 0.542555 0.172048
C15   C     C_R   0.610639 0.066708 0.545925 0.167646
C16   C     C_R   0.497502 0.129906 0.515569 -0.191233
C17   C     C_R   0.378650 0.062761 0.499572 0.076507
C18   C     C_3   0.286896 0.071114 0.433963 -0.450510
C19   C     C_3   0.289978 0.931091 0.431354 -0.447809
C20   C     C_R   0.936519 0.498454 0.431770 0.245029
C21   C     C_R   0.915994 0.511826 0.567240 -0.113199
C22   C     C_R   0.064340 0.511923 0.567208 -0.087117
C23   C     C_R   0.499349 0.262610 0.504205 0.836779
C24   C     C_R   0.083918 0.497824 0.431826 0.257725
C25   C     C_3   0.097697 0.399823 0.371079 -0.494173
C26   C     C_3   0.938812 0.401618 0.370384 -0.513084
C27   C     C_R   0.519289 0.501031 0.350280 0.778736
C28   C     C_R   0.465971 0.486680 0.734297 -0.088393
C29   C     C_R   0.560633 0.552199 0.776518 -0.235546
C30   C     C_R   0.546682 0.549933 0.856938 -0.212277
C31   C     C_R   0.439334 0.479974 0.896466 0.088591
C32   C     C_R   0.344506 0.413724 0.854571 -0.169314
Cu1   Cu    Cu3+1 0.359330 0.500020 0.500000 0.940129
Cu2   Cu    Cu3+1 0.640670 0.499980 0.500000 0.943700
H1    H     H_    0.643677 0.607634 0.747136 0.153678
H2    H     H_    0.688565 0.336298 0.116135 0.138654
H3    H     H_    0.181169 0.108200 0.452960 0.192174
H4    H     H_    0.340609 0.115491 0.381475 0.191335
H5    H     H_    0.185897 0.887690 0.447673 0.196528
H6    H     H_    0.346723 0.895023 0.377464 0.194761
H7    H     H_    0.854004 0.520253 0.622078 0.161103
H8    H     H_    0.110657 0.520232 0.621877 0.173831
H9    H     H_    0.153040 0.433347 0.315898 0.209058
H10   H     H_    0.138491 0.311950 0.393172 0.206818
H11   H     H_    0.903457 0.437887 0.315149 0.200761
H12   H     H_    0.886946 0.314317 0.391054 0.207376
H13   H     H_    0.679748 0.350916 0.258112 0.147728
H14   H     H_    0.644383 0.459329 0.988521 0.133639
H15   H     H_    0.264020 0.358617 0.886125 0.164948
H16   H     H_    0.404587 0.642852 0.111002 0.169538
H17   H     H_    0.618947 0.604240 0.888283 0.139605
N1    N     N_R   0.852130 0.499070 0.499500 -0.193449
N2    N     N_R   0.148040 0.499110 0.499500 -0.186244
O1    O     O_R   0.381190 0.680360 0.500000 -0.585704
O2    O     O_R   0.618770 0.680320 0.499990 -0.549269
O3    O     O_R   0.367430 0.500040 0.613600 -0.578609
O4    O     O_R   0.605020 0.500000 0.613590 -0.589612
O5    O     O_R   0.381230 0.319680 0.500010 -0.584836
O6    O     O_R   0.618810 0.319640 0.500000 -0.549937
O7    O     O_R   0.394980 0.500000 0.386410 -0.575071
O8    O     O_R   0.632570 0.499960 0.386400 -0.585517
N3    N     N_2   0.731319 0.871301 0.568553 -0.401535
H18   H     H_    0.760879 0.897368 0.622230 0.237502
C33   C     C_3   0.848927 0.851625 0.511019 -0.612020
H19   H     H_    0.942690 0.903930 0.526548 0.190827
H20   H     H_    0.823661 0.879070 0.451753 0.213529
H21   H     H_    0.877339 0.752817 0.509914 0.239970
N4    N     N_2   0.716267 0.133711 0.582282 -0.407370
H22   H     H_    0.726479 0.109633 0.639234 0.231451
C34   C     C_3   0.848979 0.154526 0.536862 -0.612220
H23   H     H_    0.874436 0.254215 0.536967 0.248337
H24   H     H_    0.845331 0.123553 0.475699 0.214387
H25   H     H_    0.934990 0.106020 0.563580 0.192452
N5    N     N_2   0.375551 0.683333 0.262256 -0.435092
H26   H     H_    0.403118 0.709743 0.316203 0.243742
C35   C     C_3   0.226721 0.690262 0.251605 -0.703864
H27   H     H_    0.203503 0.781846 0.227223 0.231833
H28   H     H_    0.164574 0.679621 0.308483 0.222033
H29   H     H_    0.192690 0.617331 0.211840 0.221443
N6    N     N_2   0.264635 0.344114 0.728881 -0.419222
H30   H     H_    0.314378 0.289952 0.685938 0.251140
C36   C     C_3   0.136015 0.292138 0.765886 -0.725201
H31   H     H_    0.160349 0.214827 0.804638 0.221407
H32   H     H_    0.070510 0.255808 0.720713 0.231033
H33   H     H_    0.074627 0.364296 0.799201 0.234005
N7    N     N_2   0.287609 0.467306 0.022140 -0.435795
H34   H     H_    0.277333 0.429262 0.077000 0.260757
C37   C     C_3   0.185235 0.560294 0.006414 -0.719478
H35   H     H_    0.158672 0.616024 0.059500 0.217655
H36   H     H_    0.088166 0.514293 0.989534 0.231531
H37   H     H_    0.224941 0.623689 0.958913 0.237735

loop_
_geom_bond_atom_site_label_1
_geom_bond_atom_site_label_2
_ccdc_geom_bond_type
C10   C27   S    
C23   O5    A    
C30   H17   S    
Cu1   O5    S    
C35   H29   S    
C25   H9    S    
C23   O6    A    
C5    H13   S    
C11   C19   S    
N3    H18   S    
N5    C35   S    
C12   C28   S    
C28   C29   A    
C18   H3    S    
C35   H28   S    
C3    C7    A    
C27   O7    A    
C5    C6    A    
N7    C37   S    
C15   C16   A    
C14   N3    S    
C2    C32   A    
C18   C19   S    
N3    C33   S    
C27   O8    A    
C26   H11   S    
N4    H22   S    
C20   C24   A    
C16   C17   A    
Cu2   O4    S    
C34   H23   S    
C4    N5    S    
Cu1   O3    S    
Cu2   O2    S    
C21   C22   A    
C25   H10   S    
C25   C26   S    
C3    H16   S    
C17   C18   S    
C22   N2    A    
Cu1   N2    S    
N5    H26   S    
C33   H21   S    
C35   H27   S    
N6    C36   S    
N7    H34   S    
C8    C9    D    
C24   N2    A    
Cu2   O8    S    
C33   H20   S    
C1    O1    A    
C29   C30   A    
C31   C32   A    
C37   H37   S    
C30   C31   A    
C34   H25   S    
Cu1   Cu2   S    
C24   C25   S    
C12   O3    A    
C19   H5    S    
C21   H7    S    
C12   O4    A    
C37   H36   S    
C16   C23   S    
C36   H32   S    
Cu2   O6    S    
C1    C13   S    
C4    C10   A    
C3    C4    A    
Cu1   O1    S    
C7    C9    S    
C11   C17   A    
C8    C31   S    
N6    H30   S    
C2    C28   A    
C6    C7    A    
Cu1   O7    S    
C36   H33   S    
C29   H1    S    
Cu2   N1    S    
C33   H19   S    
C1    O2    A    
C5    C10   A    
C20   N1    A    
C11   C13   A    
C22   H8    S    
C20   C26   S    
C15   N4    S    
C6    H2    S    
C8    N7    S    
C18   H4    S    
C32   H15   S    
C2    N6    S    
C19   H6    S    
C26   H12   S    
C37   H35   S    
C9    H14   S    
N4    C34   S    
C36   H31   S    
C14   C15   A    
C34   H24   S    
C13   C14   A    
C21   N1    A    
