data_mof_unit_58301.cif
_audit_creation_date              2012-12-11T14:44:10-0500
_audit_creation_method            fapswitch 2.2
_symmetry_space_group_name_H-M    P1
_symmetry_Int_Tables_number       1
_space_group_crystal_system       triclinic
_cell_length_a                    18.968342
_cell_length_b                    10.877807
_cell_length_c                    18.853012
_cell_angle_alpha                 89.85747
_cell_angle_beta                  89.738337
_cell_angle_gamma                 89.626057
_cell_volume                      3889.88152427

loop_
_atom_site_label
_atom_site_type_symbol
_atom_type_description
_atom_site_fract_x
_atom_site_fract_y
_atom_site_fract_z
_atom_type_partial_charge
C1    C     C_R   0.711466 0.329308 0.138736 0.566011
C2    C     C_R   0.970340 0.995570 0.042552 -0.137934
C3    C     C_R   0.991726 0.774274 0.038383 0.015333
C4    C     C_R   0.518166 0.054952 0.031902 -0.144115
C5    C     C_R   0.515255 0.058561 0.959219 -0.163586
C6    C     C_R   0.018168 0.554953 0.031902 -0.144115
C7    C     C_R   0.015256 0.558563 0.959219 -0.163587
C8    C     C_3   0.626461 0.820954 0.432123 -0.379504
C9    C     C_3   0.335222 0.753929 0.580993 -0.388060
C10   C     C_3   0.126460 0.320957 0.432123 -0.379506
C11   C     C_3   0.835221 0.253928 0.580994 -0.388059
C12   C     C_3   0.660321 0.756767 0.082938 -0.380429
C13   C     C_R   0.482095 0.503372 0.969893 -0.145952
C14   C     C_3   0.371525 0.816434 0.930157 -0.384816
C15   C     C_3   0.160314 0.256776 0.082936 -0.380427
C16   C     C_3   0.871525 0.316439 0.930158 -0.384816
C17   C     C_R   0.470343 0.495572 0.042551 -0.137937
C18   C     C_R   0.705438 0.844397 0.040665 -0.019349
C19   C     C_R   0.299755 0.846925 0.960090 -0.015861
C20   C     C_R   0.205435 0.344402 0.040664 -0.019347
C21   C     C_R   0.799755 0.346928 0.960090 -0.015862
C22   C     C_R   0.707437 0.833726 0.966843 -0.114079
C23   C     C_R   0.287938 0.821878 0.031704 -0.113048
C24   C     C_R   0.207433 0.333732 0.966842 -0.114079
C25   C     C_R   0.269914 0.375920 0.854388 0.551954
C26   C     C_R   0.787938 0.321881 0.031705 -0.113049
C27   C     C_R   0.751577 0.909952 0.926201 0.015054
C28   C     C_R   0.222846 0.848634 0.063182 0.013767
C29   C     C_R   0.251576 0.409954 0.926200 0.015054
C30   C     C_R   0.722847 0.348635 0.063182 0.013767
C31   C     C_R   0.792070 0.999344 0.958736 -0.126703
C32   C     C_R   0.167663 0.894431 0.022116 -0.144487
C33   C     C_R   0.292072 0.499342 0.958737 -0.126701
C34   C     C_R   0.667663 0.394431 0.022116 -0.144490
C35   C     C_R   0.792132 0.008424 0.031060 -0.129692
C36   C     C_R   0.211466 0.829307 0.138736 0.566012
C37   C     C_R   0.178625 0.922107 0.951468 -0.149055
C38   C     C_R   0.292135 0.508421 0.031060 -0.129693
C39   C     C_R   0.678626 0.422107 0.951468 -0.149056
C40   C     C_R   0.748529 0.933770 0.073010 0.045809
C41   C     C_R   0.245257 0.904843 0.920300 0.037877
C42   C     C_R   0.248528 0.433770 0.073010 0.045807
C43   C     C_R   0.745258 0.404844 0.920300 0.037877
C44   C     C_R   0.460743 0.062568 0.449320 -0.135466
C45   C     C_R   0.441081 0.060121 0.520210 -0.132843
C46   C     C_R   0.960743 0.562567 0.449320 -0.135466
C47   C     C_R   0.769914 0.875919 0.854388 0.551954
C48   C     C_R   0.941082 0.560120 0.520211 -0.132842
C49   C     C_R   0.452363 0.162537 0.563298 0.030607
C50   C     C_R   0.492962 0.167375 0.420635 0.025593
C51   C     C_R   0.952363 0.662537 0.563298 0.030607
C52   C     C_R   0.992962 0.667375 0.420635 0.025593
C53   C     C_R   0.531949 0.155206 0.146203 0.532637
C54   C     C_R   0.469265 0.156109 0.852909 0.552508
C55   C     C_R   0.031949 0.655206 0.146203 0.532637
C56   C     C_R   0.969265 0.656109 0.852909 0.552507
C57   C     C_R   0.478997 0.271188 0.533253 -0.133821
C58   C     C_R   0.493823 0.397039 0.930408 -0.086833
C59   C     C_R   0.499276 0.273545 0.462175 -0.139042
C60   C     C_R   0.978996 0.771188 0.533253 -0.133822
C61   C     C_R   0.999275 0.773545 0.462175 -0.139043
C62   C     C_R   0.814380 0.943950 0.458270 -0.149614
C63   C     C_R   0.212804 0.021544 0.527967 -0.138002
C64   C     C_R   0.314379 0.443952 0.458271 -0.149614
C65   C     C_R   0.712805 0.521545 0.527967 -0.138002
C66   C     C_R   0.819164 0.936824 0.530646 -0.144299
C67   C     C_R   0.211093 0.008504 0.455643 -0.143949
C68   C     C_R   0.319164 0.436825 0.530646 -0.144298
C69   C     C_R   0.474485 0.382041 0.076710 -0.096441
C70   C     C_R   0.711094 0.508505 0.455643 -0.143950
C71   C     C_R   0.761288 0.898916 0.571281 0.019847
C72   C     C_R   0.248304 0.913027 0.423834 0.014786
C73   C     C_R   0.261288 0.398915 0.571281 0.019847
C74   C     C_R   0.748304 0.413027 0.423834 0.014786
C75   C     C_R   0.699658 0.860763 0.538183 -0.117232
C76   C     C_R   0.290431 0.833453 0.464787 -0.116516
C77   C     C_R   0.199658 0.360762 0.538183 -0.117231
C78   C     C_R   0.790431 0.333452 0.464787 -0.116515
C79   C     C_R   0.693911 0.866501 0.464619 -0.013085
C80   C     C_R   0.993821 0.897039 0.930408 -0.086832
C81   C     C_R   0.292740 0.845431 0.538378 -0.029659
C82   C     C_R   0.193911 0.366502 0.464619 -0.013087
C83   C     C_R   0.792740 0.345431 0.538378 -0.029659
C84   C     C_R   0.750813 0.917052 0.424684 0.042939
C85   C     C_R   0.252856 0.940575 0.570226 0.045296
C86   C     C_R   0.250813 0.417053 0.424684 0.042939
C87   C     C_R   0.752856 0.440576 0.570226 0.045296
C88   C     C_R   0.741259 0.970087 0.146927 0.536306
C89   C     C_R   0.258331 0.966801 0.852268 0.551312
C90   C     C_R   0.241259 0.470087 0.146927 0.536307
C91   C     C_R   0.974484 0.882040 0.076710 -0.096441
C92   C     C_R   0.758331 0.466801 0.852268 0.551311
C93   C     C_R   0.729857 0.378198 0.352420 0.556967
C94   C     C_R   0.272336 0.374428 0.645762 0.538325
C95   C     C_R   0.229857 0.878198 0.352420 0.556967
C96   C     C_R   0.772335 0.874428 0.645762 0.538325
C97   C     C_R   0.530691 0.157484 0.353031 0.549632
C98   C     C_R   0.435851 0.153523 0.639013 0.562839
C99   C     C_R   0.030691 0.657485 0.353031 0.549631
C100  C     C_R   0.935851 0.653523 0.639013 0.562839
C101  C     C_R   0.741337 0.969106 0.354056 0.549674
C102  C     C_R   0.982091 0.003372 0.969894 -0.145949
C103  C     C_R   0.259252 0.973075 0.644565 0.541050
C104  C     C_R   0.241337 0.469107 0.354056 0.549674
C105  C     C_R   0.759252 0.473075 0.644565 0.541050
C106  C     C_R   0.499849 0.168148 0.923995 -0.000954
C107  C     C_R   0.507292 0.161481 0.072638 0.003665
C108  C     C_R   0.999849 0.668149 0.923995 -0.000955
C109  C     C_R   0.007292 0.661481 0.072638 0.003665
C110  C     C_R   0.494915 0.279893 0.963271 0.032510
C111  C     C_R   0.491726 0.274274 0.038382 0.015333
C112  C     C_R   0.994915 0.779893 0.963271 0.032510
Cr1   Cr    Cr6+3 0.772000 0.169640 0.250110 1.002362
Cr2   Cr    Cr6+3 0.383330 0.010620 0.749160 0.994386
Cr3   Cr    Cr6+3 0.116670 0.510620 0.250840 0.993415
Cr4   Cr    Cr6+3 0.883330 0.510620 0.749160 0.994386
Cr5   Cr    Cr6+3 0.228000 0.169640 0.749890 1.004854
Cr6   Cr    Cr6+3 0.272000 0.669640 0.250110 1.002362
Cr7   Cr    Cr6+3 0.728000 0.669640 0.749890 1.004854
Cr8   Cr    Cr6+3 0.614960 0.323350 0.249260 1.001421
Cr9   Cr    Cr6+3 0.385040 0.323350 0.750740 1.002429
Cr10  Cr    Cr6+3 0.114960 0.823350 0.249260 1.001421
Cr11  Cr    Cr6+3 0.885040 0.823350 0.750740 1.002429
Cr12  Cr    Cr6+3 0.616670 0.010620 0.250840 0.993417
H1    H     H_    0.531207 0.967230 0.055918 0.141577
H2    H     H_    0.177810 0.069347 0.424853 0.128753
H3    H     H_    0.369068 0.460173 0.554565 0.131293
H4    H     H_    0.677811 0.569348 0.424852 0.128754
H5    H     H_    0.656332 0.825346 0.569708 0.124915
H6    H     H_    0.318261 0.757493 0.439943 0.138738
H7    H     H_    0.156333 0.325344 0.569708 0.124914
H8    H     H_    0.818260 0.257491 0.439944 0.138739
H9    H     H_    0.505690 0.409087 0.874764 0.132757
H10   H     H_    0.464058 0.379769 0.133110 0.134807
H11   H     H_    0.005688 0.909088 0.874764 0.132758
H12   H     H_    0.522069 0.972988 0.930602 0.129649
H13   H     H_    0.964056 0.879767 0.133111 0.134807
H14   H     H_    0.981973 0.092015 0.943797 0.100330
H15   H     H_    0.959282 0.078023 0.072762 0.105526
H16   H     H_    0.481978 0.592016 0.943796 0.100331
H17   H     H_    0.459287 0.578025 0.072761 0.105525
H18   H     H_    0.677405 0.761804 0.941504 0.134758
H19   H     H_    0.330755 0.786197 0.063648 0.125400
H20   H     H_    0.177398 0.261813 0.941502 0.134755
H21   H     H_    0.830755 0.286201 0.063649 0.125400
H22   H     H_    0.827245 0.057625 0.928519 0.138025
H23   H     H_    0.031211 0.467232 0.055917 0.141576
H24   H     H_    0.116877 0.914319 0.045621 0.151869
H25   H     H_    0.327249 0.557621 0.928520 0.138027
H26   H     H_    0.616877 0.414317 0.045621 0.151870
H27   H     H_    0.826032 0.076845 0.053919 0.132906
H28   H     H_    0.135810 0.964502 0.922406 0.133734
H29   H     H_    0.326037 0.576839 0.053919 0.132905
H30   H     H_    0.635810 0.464500 0.922406 0.133734
H31   H     H_    0.454436 0.979913 0.418095 0.125552
H32   H     H_    0.419345 0.976631 0.542061 0.129721
H33   H     H_    0.954437 0.479912 0.418096 0.125552
H34   H     H_    0.022071 0.472989 0.930601 0.129650
H35   H     H_    0.919346 0.476630 0.542061 0.129721
H36   H     H_    0.487209 0.352381 0.565192 0.126460
H37   H     H_    0.523963 0.355547 0.441191 0.129453
H38   H     H_    0.987208 0.852382 0.565192 0.126460
H39   H     H_    0.023962 0.855547 0.441191 0.129453
H40   H     H_    0.637721 0.767648 0.383205 0.139126
H41   H     H_    0.597647 0.758859 0.468906 0.092915
H42   H     H_    0.591293 0.899791 0.420365 0.183437
H43   H     H_    0.379838 0.799472 0.607792 0.151494
H44   H     H_    0.300912 0.708681 0.621016 0.149582
H45   H     H_    0.859622 0.978066 0.429131 0.130148
H46   H     H_    0.358560 0.681786 0.546587 0.110995
H47   H     H_    0.137723 0.267636 0.383209 0.139117
H48   H     H_    0.097638 0.258878 0.468910 0.092919
H49   H     H_    0.091298 0.399799 0.420354 0.183453
H50   H     H_    0.879837 0.299471 0.607792 0.151493
H51   H     H_    0.800911 0.208682 0.621018 0.149581
H52   H     H_    0.858558 0.181783 0.546588 0.110996
H53   H     H_    0.692025 0.713734 0.125819 0.153407
H54   H     H_    0.614414 0.806078 0.106170 0.150709
H55   H     H_    0.639501 0.681672 0.049284 0.119715
H56   H     H_    0.182878 0.096989 0.550597 0.139668
H57   H     H_    0.366371 0.761884 0.880787 0.139047
H58   H     H_    0.400635 0.902234 0.919719 0.183696
H59   H     H_    0.403561 0.761352 0.967911 0.087241
H60   H     H_    0.192015 0.213738 0.125817 0.153408
H61   H     H_    0.114407 0.306091 0.106167 0.150710
H62   H     H_    0.139491 0.181682 0.049281 0.119710
H63   H     H_    0.866373 0.261888 0.880789 0.139047
H64   H     H_    0.900635 0.402239 0.919720 0.183698
H65   H     H_    0.903562 0.261360 0.967912 0.087241
H66   H     H_    0.359622 0.478068 0.429131 0.130148
H67   H     H_    0.682879 0.596991 0.550597 0.139668
H68   H     H_    0.869068 0.960171 0.554565 0.131293
O1    O     O_R   0.787540 0.042690 0.170470 -0.540481
O2    O     O_R   0.454130 0.051100 0.669160 -0.517157
O3    O     O_R   0.045870 0.551100 0.330840 -0.532970
O4    O     O_R   0.954130 0.551100 0.669160 -0.517158
O5    O     O_R   0.681340 0.959300 0.325510 -0.504714
O6    O     O_R   0.318660 0.959300 0.674490 -0.525987
O7    O     O_R   0.181340 0.459300 0.325510 -0.504718
O8    O     O_R   0.818660 0.459300 0.674490 -0.525986
O9    O     O_3   0.667880 0.167870 0.250070 -0.255967
O10   O     O_3   0.332120 0.167870 0.749930 -0.257967
O11   O     O_3   0.167880 0.667870 0.250070 -0.255967
O12   O     O_R   0.212460 0.042690 0.829530 -0.527201
O13   O     O_3   0.832120 0.667870 0.749930 -0.257967
O14   O     O_R   0.765660 0.292160 0.175050 -0.507679
O15   O     O_R   0.234340 0.292160 0.824950 -0.504268
O16   O     O_R   0.265660 0.792160 0.175050 -0.507678
O17   O     O_R   0.734340 0.792160 0.824950 -0.504268
O18   O     O_R   0.670190 0.408980 0.168550 -0.522141
O19   O     O_R   0.329810 0.408980 0.831450 -0.520077
O20   O     O_R   0.170190 0.908980 0.168550 -0.522141
O21   O     O_R   0.829810 0.908980 0.831450 -0.520077
O22   O     O_R   0.556580 0.251450 0.175160 -0.527491
O23   O     O_R   0.287540 0.542690 0.170470 -0.540480
O24   O     O_R   0.443420 0.251450 0.824840 -0.502115
O25   O     O_R   0.056580 0.751450 0.175160 -0.527491
O26   O     O_R   0.943420 0.751450 0.824840 -0.502115
O27   O     O_R   0.545920 0.049510 0.170320 -0.523977
O28   O     O_R   0.454080 0.049510 0.829680 -0.527745
O29   O     O_R   0.045920 0.549510 0.170320 -0.523978
O30   O     O_R   0.954080 0.549510 0.829680 -0.527746
O31   O     O_R   0.681390 0.957840 0.176710 -0.506227
O32   O     O_R   0.318610 0.957840 0.823290 -0.505348
O33   O     O_R   0.181390 0.457840 0.176710 -0.506227
O34   O     O_R   0.712460 0.542690 0.829530 -0.527202
O35   O     O_R   0.818610 0.457840 0.823290 -0.505348
O36   O     O_R   0.787500 0.044280 0.330990 -0.528515
O37   O     O_R   0.212500 0.044280 0.669010 -0.526799
O38   O     O_R   0.287500 0.544280 0.330990 -0.528515
O39   O     O_R   0.712500 0.544280 0.669010 -0.526798
O40   O     O_R   0.765610 0.293630 0.323860 -0.502853
O41   O     O_R   0.234390 0.293630 0.676140 -0.508518
O42   O     O_R   0.265610 0.793630 0.323860 -0.502853
O43   O     O_R   0.734390 0.793630 0.676140 -0.508517
O44   O     O_R   0.670140 0.410570 0.329080 -0.520647
O45   O     O_R   0.556540 0.252920 0.323970 -0.502025
O46   O     O_R   0.329860 0.410570 0.670920 -0.537765
O47   O     O_R   0.170140 0.910570 0.329080 -0.520647
O48   O     O_R   0.829860 0.910570 0.670920 -0.537765
O49   O     O_R   0.443460 0.252920 0.676030 -0.507511
O50   O     O_R   0.056540 0.752920 0.323970 -0.502024
O51   O     O_R   0.943460 0.752920 0.676030 -0.507511
O52   O     O_R   0.545870 0.051100 0.330840 -0.532964

loop_
_geom_bond_atom_site_label_1
_geom_bond_atom_site_label_2
_ccdc_geom_bond_type
C53   O27   A    
C5    H12   S    
C83   C87   A    
C21   C26   A    
C103  O37   A    
C16   C21   S    
C84   C101  S    
Cr10  O25   S    
C99   O3    A    
C58   C110  A    
C90   O33   A    
C19   C23   A    
Cr6   O11   S    
C72   C76   A    
C30   C34   A    
C86   C104  S    
C89   O32   A    
C56   O26   A    
C14   H59   S    
C34   H26   S    
C55   O25   A    
C7    H34   S    
C48   H35   S    
C1    C30   S    
Cr9   O49   S    
C15   H61   S    
C98   O2    A    
C11   H52   S    
C69   H10   S    
C80   H11   S    
C4    H1    S    
C101  O36   A    
C50   C59   A    
C105  O39   A    
C3    C91   A    
C24   H20   S    
Cr9   O10   S    
C38   C42   A    
C52   C61   A    
C102  H14   S    
C79   C84   A    
Cr4   O8    S    
C101  O5    A    
C57   C59   A    
Cr5   O41   S    
C2    C102  A    
C10   H48   S    
C65   C70   A    
C29   C33   A    
C49   C57   A    
Cr11  O13   S    
C17   H17   S    
C67   C72   A    
C77   H7    S    
C25   O19   A    
C78   H8    S    
C24   C29   A    
C56   C108  S    
C98   O49   A    
C18   C40   A    
Cr3   O33   S    
C49   C98   S    
C91   H13   S    
C31   H22   S    
C76   H6    S    
C78   C83   A    
C94   O46   A    
C48   C51   A    
C20   C24   A    
C92   O35   A    
C50   C97   S    
C66   H68   S    
C70   C74   A    
C8    C79   S    
C60   H38   S    
Cr2   O10   S    
Cr6   O23   S    
Cr7   O13   S    
C95   O42   A    
Cr1   O9    S    
Cr12  O52   S    
Cr5   O12   S    
Cr4   O13   S    
C85   C103  S    
Cr7   O39   S    
Cr8   O45   S    
C55   O29   A    
C107  C111  A    
C1    O14   A    
C10   H49   S    
C12   H53   S    
Cr12  O27   S    
C92   O34   A    
C93   O44   A    
C21   C43   A    
C63   C85   A    
Cr8   O18   S    
Cr8   O9    S    
C96   O48   A    
C74   C93   S    
C23   H19   S    
C9    H46   S    
C35   H27   S    
C73   C94   S    
C53   O22   A    
C14   C19   S    
C64   C86   A    
C90   O23   A    
C14   H58   S    
Cr4   O30   S    
C32   H24   S    
C65   C87   A    
C63   C67   A    
C5    C106  A    
C100  O4    A    
C58   H9    S    
C25   C29   S    
C15   C20   S    
C4    C107  A    
C46   C48   A    
Cr7   O17   S    
C75   H5    S    
C54   C106  S    
Cr4   O35   S    
C27   C31   A    
C34   C39   A    
C72   C95   S    
C13   H16   S    
C65   H67   S    
C28   C32   A    
Cr10  O50   S    
C16   H64   S    
C67   H2    S    
Cr8   O22   S    
C62   C66   A    
Cr1   O36   S    
C39   C43   A    
C71   C96   S    
C39   H30   S    
C11   C83   S    
C68   C73   A    
C82   C86   A    
C46   H33   S    
Cr3   O7    S    
Cr12  O5    S    
C10   C82   S    
C63   H56   S    
C110  C111  A    
Cr3   O11   S    
C60   C61   A    
C42   C90   S    
C103  O6    A    
Cr10  O11   S    
C26   H21   S    
Cr6   O16   S    
Cr9   O24   S    
C59   H37   S    
Cr6   O42   S    
C64   H66   S    
C66   C71   A    
C87   C105  S    
Cr12  O31   S    
C9    H43   S    
C3    C112  A    
C70   H4    S    
C15   H60   S    
C80   C112  A    
C45   C49   A    
C88   O31   A    
C19   C41   A    
C45   H32   S    
C95   O47   A    
C32   C37   A    
C53   C107  S    
C68   H3    S    
C89   O12   A    
C100  O51   A    
C8    H42   S    
C36   O20   A    
C36   O16   A    
C93   O40   A    
C27   C47   S    
C56   O30   A    
Cr11  O26   S    
C26   C30   A    
Cr10  O47   S    
Cr6   O38   S    
C22   C27   A    
Cr11  O21   S    
Cr2   O6    S    
C8    H40   S    
C104  O7    A    
Cr10  O20   S    
C23   C28   A    
C2    H15   S    
C37   H28   S    
C12   C18   S    
Cr5   O10   S    
C64   C68   A    
C41   C89   S    
C14   H57   S    
C44   C45   A    
Cr1   O40   S    
Cr11  O48   S    
C106  C110  A    
C44   C50   A    
C51   C100  S    
C62   H45   S    
C62   C84   A    
C17   C69   A    
C11   H50   S    
Cr2   O2    S    
C1    O18   A    
C61   H39   S    
C44   H31   S    
Cr1   O1    S    
C88   O1    A    
Cr3   O29   S    
C9    H44   S    
C33   C38   A    
Cr2   O28   S    
C4    C5    A    
Cr5   O15   S    
C16   H63   S    
C76   C81   A    
C20   C42   A    
C22   H18   S    
C94   O41   A    
C54   O28   A    
C6    C7    A    
C13   C58   A    
C97   O45   A    
Cr12  O9    S    
C52   C99   S    
C11   H51   S    
C43   C92   S    
C54   O24   A    
C13   C17   A    
C15   H62   S    
Cr3   O3    S    
Cr1   O14   S    
C40   C88   S    
C99   O50   A    
C18   C22   A    
C35   C40   A    
C10   H47   S    
C33   H25   S    
Cr8   O44   S    
C46   C52   A    
C71   C75   A    
C6    H23   S    
C69   C111  A    
C77   C82   A    
C3    C109  A    
Cr11  O51   S    
C47   O21   A    
Cr5   O37   S    
C57   H36   S    
C6    C109  A    
C96   O43   A    
Cr9   O46   S    
C31   C35   A    
Cr9   O19   S    
C37   C41   A    
C2    C91   A    
C81   C85   A    
C105  O8    A    
C8    H41   S    
Cr4   O4    S    
C108  C112  A    
C47   O17   A    
C12   H55   S    
C28   C36   S    
C104  O38   A    
C74   C78   A    
C80   C102  A    
C73   C77   A    
C7    C108  A    
C51   C60   A    
C38   H29   S    
Cr2   O32   S    
C12   H54   S    
C25   O15   A    
C75   C79   A    
C16   H65   S    
C55   C109  S    
Cr7   O43   S    
Cr7   O34   S    
C9    C81   S    
C97   O52   A    
