data_mof_unit_67675.cif
_audit_creation_date              2012-12-10T19:46:56-0500
_audit_creation_method            fapswitch 2.2
_symmetry_space_group_name_H-M    P1
_symmetry_Int_Tables_number       1
_space_group_crystal_system       triclinic
_cell_length_a                    10.97641
_cell_length_b                    11.000954
_cell_length_c                    13.120328
_cell_angle_alpha                 90.899531
_cell_angle_beta                  92.307005
_cell_angle_gamma                 87.489968
_cell_volume                      1581.33546725

loop_
_atom_site_label
_atom_site_type_symbol
_atom_type_description
_atom_site_fract_x
_atom_site_fract_y
_atom_site_fract_z
_atom_type_partial_charge
C1    C     C_R   0.507695 0.259298 0.499306 0.971008
C2    C     C_R   0.492823 0.740741 0.500763 0.973440
C3    C     C_R   0.873576 0.510323 0.506342 -0.182534
C4    C     C_R   0.126807 0.487440 0.493005 -0.168794
C5    C     C_R   0.944682 0.450366 0.584444 -0.022864
C6    C     C_R   0.055667 0.546076 0.414291 -0.019063
C7    C     C_R   0.599619 0.168795 0.146522 0.539052
C8    C     C_R   0.399550 0.833817 0.854351 0.524825
C9    C     C_R   0.534893 0.149574 0.235324 -0.280427
C10   C     C_R   0.465981 0.855206 0.767027 -0.317706
C11   C     C_R   0.601035 0.103837 0.322994 -0.105124
C12   C     C_R   0.400906 0.896015 0.677258 -0.096592
C13   C     C_R   0.727117 0.075587 0.318439 0.554047
C14   C     C_R   0.274108 0.920725 0.679139 0.556017
C15   C     C_R   0.789108 0.089971 0.228218 -0.392506
C16   C     C_R   0.210148 0.905660 0.768223 -0.389002
C17   C     C_R   0.724040 0.137536 0.142619 0.572799
C18   C     C_R   0.273889 0.859901 0.855186 0.560818
C19   C     C_R   0.531649 0.930248 0.414562 0.687249
C20   C     C_R   0.470530 0.069666 0.586005 0.667862
C21   C     C_R   0.494772 0.873178 0.502231 -0.233803
C22   C     C_R   0.506955 0.126800 0.498169 -0.223511
C23   C     C_R   0.259694 0.493776 0.497460 0.866194
C24   C     C_R   0.740461 0.505444 0.502428 0.862740
C25   C     C_R   0.462551 0.943995 0.588637 -0.019027
C26   C     C_R   0.540328 0.055876 0.412149 -0.012173
C27   C     C_1   0.499980 0.499947 0.173576 0.222386
C28   C     C_1   0.499295 0.500160 0.826401 0.215264
C29   C     C_1   0.499518 0.500025 0.050680 0.257497
C30   C     C_1   0.498925 0.500193 0.949277 0.257081
C31   C     C_R   0.218892 0.691927 0.198149 -0.213524
C32   C     C_R   0.779198 0.293955 0.793757 -0.197256
C33   C     C_R   0.165068 0.679118 0.293581 -0.135663
C34   C     C_R   0.836441 0.310912 0.700243 -0.144292
C35   C     C_R   0.107898 0.569509 0.313394 -0.002481
C36   C     C_R   0.891470 0.422652 0.683990 -0.004527
C37   C     C_R   0.097143 0.478620 0.236258 -0.083222
C38   C     C_R   0.895925 0.512578 0.762363 -0.081782
C39   C     C_R   0.144489 0.495555 0.139279 -0.191346
C40   C     C_R   0.842618 0.493149 0.856491 -0.208446
C41   C     C_R   0.207368 0.601282 0.122369 0.565400
C42   C     C_R   0.783041 0.384628 0.870225 0.564164
C43   C     C_R   0.929555 0.564594 0.424564 -0.028687
C44   C     C_R   0.070897 0.432374 0.574353 -0.011750
Cu1   Cu    Cu3+1 0.499990 0.499990 0.592680 1.057381
Cu2   Cu    Cu3+1 0.500010 0.500010 0.407320 1.056774
N1    N     N_1   0.500030 0.500030 0.268070 -0.150768
N2    N     N_1   0.499970 0.499970 0.731930 -0.149624
O1    O     O_R   0.499980 0.319630 0.578260 -0.513515
O2    O     O_R   0.500020 0.680370 0.421740 -0.512536
O3    O     O_R   0.500000 0.319650 0.421740 -0.607827
O4    O     O_R   0.500000 0.680350 0.578260 -0.601036
O5    O     O_R   0.319630 0.500000 0.578260 -0.573666
O6    O     O_R   0.680370 0.500000 0.421740 -0.575305
O7    O     O_R   0.319650 0.500020 0.421740 -0.595344
O8    O     O_R   0.680350 0.499980 0.578260 -0.593926
F1    F     F_    0.251000 0.620570 0.028787 -0.583133
F2    F     F_    0.735135 0.363215 0.961715 -0.576219
F3    F     F_    0.786324 0.022567 0.400274 -0.586945
F4    F     F_    0.215942 0.971930 0.596059 -0.592223
C45   C     C_2   0.921629 0.055951 0.224199 1.042491
O9    O     O_2   0.970904 0.046512 0.142318 -0.460017
O10   O     O_R   0.991240 0.036826 0.314554 -0.670922
H1    H     H_    0.081074 0.020856 0.302569 0.390214
C46   C     C_2   0.077126 0.937940 0.769685 1.033752
O11   O     O_2   0.026434 0.951460 0.850666 -0.456994
O12   O     O_R   0.008837 0.950926 0.677916 -0.676224
H2    H     H_    0.918658 0.966966 0.688230 0.394516
F5    F     F_    0.563473 0.863493 0.330697 -0.600119
F6    F     F_    0.437421 0.136450 0.669463 -0.619377
C47   C     C_2   0.281402 0.802575 0.171998 1.097488
O13   O     O_2   0.388498 0.795169 0.149541 -0.469632
O14   O     O_R   0.216518 0.914381 0.169170 -0.703895
H3    H     H_    0.266824 0.981498 0.143399 0.364761
C48   C     C_2   0.718105 0.180691 0.816353 1.082604
O15   O     O_2   0.771718 0.081944 0.805869 -0.556390
O16   O     O_R   0.599953 0.187478 0.852476 -0.630694
H4    H     H_    0.568018 0.104361 0.865877 0.373797
C49   C     C_2   0.166124 0.779247 0.371508 0.861023
O17   O     O_2   0.253483 0.844035 0.381596 -0.584442
O18   O     O_R   0.065366 0.801216 0.432011 -0.713604
H5    H     H_    0.073029 0.875371 0.477932 0.425603
C50   C     C_2   0.839258 0.213852 0.619676 0.865103
O19   O     O_2   0.751308 0.151201 0.603291 -0.585500
O20   O     O_R   0.943671 0.192912 0.563336 -0.710907
H6    H     H_    0.936991 0.122090 0.513619 0.424395
C51   C     C_2   0.033739 0.367216 0.259161 0.949575
O21   O     O_2   0.092780 0.274466 0.282269 -0.570100
O22   O     O_R   0.906566 0.371929 0.261299 -0.698232
H7    H     H_    0.874309 0.298589 0.295003 0.309679
C52   C     C_2   0.956743 0.626954 0.743624 0.974152
O23   O     O_2   0.896754 0.722839 0.738316 -0.569357
O24   O     O_R   0.082066 0.623440 0.728466 -0.709961
H8    H     H_    0.110426 0.702042 0.700728 0.317176
C53   C     C_2   0.125830 0.406565 0.053621 0.923750
O25   O     O_2   0.200054 0.395987 0.986633 -0.501281
O26   O     O_R   0.022922 0.335764 0.048323 -0.696453
H9    H     H_    0.020912 0.279521 0.986356 0.372888
C54   C     C_2   0.852398 0.582596 0.942822 0.941826
O27   O     O_2   0.771309 0.593578 0.003932 -0.520322
O28   O     O_R   0.955281 0.652764 0.955771 -0.694471
H10   H     H_    0.951338 0.708999 0.017642 0.369474
C55   C     C_2   0.857529 0.649213 0.354547 0.982899
O29   O     O_2   0.789909 0.728558 0.390645 -0.489846
O30   O     O_R   0.867052 0.639422 0.248772 -0.719007
H11   H     H_    0.814099 0.703066 0.210827 0.368310
C56   C     C_2   0.143403 0.348217 0.644423 0.980171
O31   O     O_2   0.212544 0.270121 0.608458 -0.490274
O32   O     O_R   0.132443 0.356886 0.750086 -0.711797
H12   H     H_    0.185579 0.293327 0.787959 0.370669
F7    F     F_    0.780589 0.152380 0.053927 -0.530914
F8    F     F_    0.214700 0.841659 0.942020 -0.535995
F9    F     F_    0.542054 0.213924 0.060966 -0.565706
F10   F     F_    0.456475 0.790226 0.940794 -0.561831
C57   C     C_2   0.399201 0.170749 0.232002 0.952375
O33   O     O_2   0.339789 0.152366 0.306620 -0.544145
O34   O     O_R   0.338145 0.209690 0.142021 -0.694155
H13   H     H_    0.246321 0.211808 0.146872 0.350325
C58   C     C_2   0.602061 0.842411 0.774108 0.981790
O35   O     O_2   0.661436 0.839560 0.697248 -0.537146
O36   O     O_R   0.663041 0.835909 0.869716 -0.658549
H14   H     H_    0.755040 0.832351 0.865452 0.383627

loop_
_geom_bond_atom_site_label_1
_geom_bond_atom_site_label_2
_ccdc_geom_bond_type
C51   O21   D    
O24   H8    S    
C27   C29   S    
O14   H3    S    
C53   O25   D    
C42   F2    S    
C40   C54   S    
O26   H9    S    
C39   C41   A    
O16   H4    S    
C3    C43   A    
O28   H10   S    
C35   C37   A    
C18   F8    S    
Cu1   N2    S    
C20   C25   A    
C24   O6    A    
C57   O33   D    
C5    C36   S    
C6    C35   S    
C45   O10   S    
C48   O16   S    
C19   C26   A    
C10   C58   S    
C2    O2    A    
C50   O19   D    
Cu1   O8    S    
C46   O12   S    
Cu2   O7    S    
C56   O31   D    
C31   C33   A    
C8    F10   S    
C40   C42   A    
Cu1   O5    S    
C1    C22   S    
C56   O32   S    
C20   F6    S    
C3    C24   S    
C32   C48   S    
C17   F7    S    
C23   O5    A    
C10   C12   A    
C58   O36   S    
O12   H2    S    
C9    C57   S    
C4    C6    A    
C52   O23   D    
C49   O18   S    
C4    C23   S    
C33   C49   S    
C4    C44   A    
C11   C26   S    
C57   O34   S    
O20   H6    S    
Cu2   O3    S    
O18   H5    S    
O10   H1    S    
C32   C34   A    
C48   O15   D    
C29   C30   T    
C52   O24   S    
C9    C11   A    
C54   O27   D    
Cu1   O1    S    
Cu2   O6    S    
C2    C21   S    
C15   C45   S    
C55   O30   S    
C23   O7    A    
C1    O3    A    
C39   C53   S    
O36   H14   S    
C2    O4    A    
C16   C18   A    
C54   O28   S    
C5    C44   A    
C12   C14   A    
C6    C43   A    
C13   C15   A    
C14   C16   A    
C19   F5    S    
C34   C50   S    
C47   O14   S    
C44   C56   S    
C27   N1    T    
C7    C9    A    
C21   C25   A    
Cu2   N1    S    
C28   N2    T    
C31   C41   A    
C50   O20   S    
C37   C51   S    
C20   C22   A    
C3    C5    A    
C43   C55   S    
C7    C17   A    
C58   O35   D    
C53   O26   S    
C15   C17   A    
C13   F3    S    
C24   O8    A    
C14   F4    S    
O30   H11   S    
Cu2   O2    S    
Cu1   O4    S    
C12   C25   S    
C7    F9    S    
C36   C38   A    
C41   F1    S    
C47   O13   D    
C37   C39   A    
O32   H12   S    
C38   C40   A    
C11   C13   A    
C38   C52   S    
C28   C30   S    
C33   C35   A    
C34   C36   A    
C45   O9    D    
C8    C18   A    
C49   O17   D    
Cu1   Cu2   S    
C8    C10   A    
C46   O11   D    
C22   C26   A    
C55   O29   D    
C51   O22   S    
C32   C42   A    
C16   C46   S    
O22   H7    S    
O34   H13   S    
C1    O1    A    
C31   C47   S    
C19   C21   A    
