data_mof_unit_52867.cif
_audit_creation_date              2012-12-10T16:48:08-0500
_audit_creation_method            fapswitch 2.2
_symmetry_space_group_name_H-M    P1
_symmetry_Int_Tables_number       1
_space_group_crystal_system       triclinic
_cell_length_a                    15.843942
_cell_length_b                    8.686138
_cell_length_c                    7.45324
_cell_angle_alpha                 103.01284
_cell_angle_beta                  94.238306
_cell_angle_gamma                 92.218407
_cell_volume                      995.04208332

loop_
_atom_site_label
_atom_site_type_symbol
_atom_type_description
_atom_site_fract_x
_atom_site_fract_y
_atom_site_fract_z
_atom_type_partial_charge
C1    C     C_R   0.497476 0.199719 0.453244 0.881262
C2    C     C_R   0.502524 0.800281 0.546756 0.881263
C3    C     C_R   0.339980 0.499764 0.502176 0.821711
C4    C     C_R   0.660020 0.500236 0.497824 0.821711
C5    C     C_2   0.496267 0.031795 0.426976 -0.366565
C6    C     C_2   0.503733 0.968204 0.573024 -0.366565
C7    C     C_3   0.973429 0.414448 0.610980 0.336397
C8    C     C_3   0.026571 0.585552 0.389021 0.336395
C9    C     C_3   0.022895 0.348972 0.442604 -0.211094
C10   C     C_3   0.977105 0.651028 0.557396 -0.211090
C11   C     C_1   0.250504 0.499798 0.506324 -0.167575
C12   C     C_1   0.749495 0.500202 0.493676 -0.167577
C13   C     C_3   0.034518 0.562093 0.674684 -0.251486
C14   C     C_3   0.965482 0.437907 0.325317 -0.251502
C15   C     C_3   0.083277 0.498846 0.503672 0.088020
C16   C     C_3   0.916722 0.501154 0.496328 0.088021
C17   C     C_1   0.174959 0.499441 0.506196 -0.047321
C18   C     C_1   0.825041 0.500559 0.493804 -0.047328
Cu1   Cu    Cu3+1 0.509330 0.517380 0.684380 0.957120
Cu2   Cu    Cu3+1 0.490670 0.482620 0.315620 0.957121
H1    H     H_    0.042385 0.225692 0.398270 0.147828
H2    H     H_    0.957615 0.774308 0.601731 0.147827
H3    H     H_    0.936114 0.390558 0.182732 0.152511
H4    H     H_    0.063885 0.609442 0.817269 0.152507
H5    H     H_    0.489230 0.960148 0.286254 0.180072
H6    H     H_    0.510770 0.039852 0.713746 0.180072
H7    H     H_    0.434390 0.377327 0.948609 0.226506
H8    H     H_    0.565610 0.622673 0.051391 0.226505
N1    N     N_2   0.476600 0.456420 0.038510 -0.215035
N2    N     N_2   0.523400 0.543580 0.961490 -0.215036
O1    O     O_R   0.506070 0.286130 0.619780 -0.584390
O2    O     O_R   0.493930 0.713870 0.380220 -0.584390
O3    O     O_R   0.490300 0.256770 0.308360 -0.586046
O4    O     O_R   0.509700 0.743230 0.691640 -0.586046
O5    O     O_R   0.386960 0.514660 0.655680 -0.583327
O6    O     O_R   0.613040 0.485340 0.344320 -0.583327
O7    O     O_R   0.371190 0.485310 0.344260 -0.575693
O8    O     O_R   0.628810 0.514690 0.655740 -0.575694
N3    N     N_2   0.941377 0.321759 0.732647 -0.425492
H9    H     H_    0.901419 0.382670 0.823011 0.245475
C19   C     C_3   0.004990 0.243001 0.822233 -0.711637
H10   H     H_    0.973798 0.167901 0.903410 0.225776
H11   H     H_    0.049748 0.331570 0.917375 0.222281
H12   H     H_    0.040499 0.165455 0.717855 0.240715
N4    N     N_2   0.058623 0.678237 0.267350 -0.425488
H13   H     H_    0.098570 0.617314 0.176968 0.245469
C20   C     C_3   0.995013 0.757020 0.177790 -0.711629
H14   H     H_    0.026204 0.832089 0.096576 0.225768
H15   H     H_    0.959530 0.834600 0.282190 0.240715
H16   H     H_    0.950232 0.668468 0.082687 0.222287

loop_
_geom_bond_atom_site_label_1
_geom_bond_atom_site_label_2
_ccdc_geom_bond_type
C14   H3    S    
C7    C13   S    
C9    C14   S    
C4    O6    A    
C15   C17   S    
N1    N2    D    
Cu1   O8    S    
H7    N1    S    
N3    C19   S    
C19   H10   S    
C20   H14   S    
C3    O5    A    
Cu1   O1    S    
C2    O4    A    
Cu1   Cu2   S    
H8    N2    S    
C9    C15   S    
C1    O3    A    
C10   C16   S    
C20   H15   S    
Cu1   O5    S    
N4    H13   S    
C10   H2    S    
Cu2   O7    S    
C19   H11   S    
C9    H1    S    
C6    H6    S    
C5    H5    S    
Cu2   O3    S    
C16   C18   S    
C7    C16   S    
C4    O8    A    
C20   H16   S    
C14   C16   S    
Cu2   N1    S    
C13   C15   S    
C5    C6    D    
C19   H12   S    
C1    C5    S    
C3    C11   S    
Cu2   O6    S    
C1    O1    A    
C3    O7    A    
C2    O2    A    
Cu2   O2    S    
N4    C20   S    
C12   C18   T    
N3    H9    S    
C7    C9    S    
C7    N3    S    
C8    N4    S    
C11   C17   T    
C8    C14   S    
C8    C15   S    
C4    C12   S    
Cu1   N2    S    
Cu1   O4    S    
C8    C10   S    
C2    C6    S    
C13   H4    S    
C10   C13   S    
