data_mof_unit_26275.cif
_audit_creation_date              2012-10-26T18:33:59-0400
_audit_creation_method            fapswitch 2.2
_symmetry_space_group_name_H-M    P1
_symmetry_Int_Tables_number       1
_space_group_crystal_system       triclinic
_cell_length_a                    11.250531
_cell_length_b                    10.757628
_cell_length_c                    9.621969
_cell_angle_alpha                 88.035971
_cell_angle_beta                  102.891515
_cell_angle_gamma                 92.299033
_cell_volume                      1133.88737314

loop_
_atom_site_label
_atom_site_type_symbol
_atom_type_description
_atom_site_fract_x
_atom_site_fract_y
_atom_site_fract_z
_atom_type_partial_charge
C1    C     C_R   0.502693 0.262782 0.502334 0.573611
C2    C     C_2   0.870847 0.515882 0.593266 -0.022463
C3    C     C_2   0.064689 0.479115 0.512026 0.026770
C4    C     C_2   0.935311 0.520886 0.487974 0.026770
C5    C     C_R   0.417046 0.067877 0.399618 -0.141721
C6    C     C_R   0.582954 0.932123 0.600382 -0.141721
C7    C     C_R   0.410129 0.938730 0.394672 0.049058
C8    C     C_R   0.589871 0.061270 0.605327 0.049058
C9    C     C_R   0.495760 0.871227 0.495665 -0.024602
C10   C     C_R   0.504240 0.128773 0.504335 -0.024601
C11   C     C_2   0.885917 0.593995 0.355326 0.603626
C12   C     C_R   0.497307 0.737218 0.497665 0.573611
C13   C     C_2   0.114083 0.406006 0.644674 0.603626
C14   C     C_3   0.931215 0.530493 0.749679 -0.372621
C15   C     C_3   0.068785 0.469508 0.250321 -0.372620
C16   C     C_2   0.441569 0.270760 0.861319 0.597884
C17   C     C_2   0.558432 0.729240 0.138681 0.597884
C18   C     C_2   0.309065 0.879280 0.288357 0.628464
C19   C     C_2   0.690935 0.120720 0.711642 0.628465
C20   C     C_R   0.263614 0.492223 0.442039 0.595054
C21   C     C_R   0.736386 0.507777 0.557961 0.595055
C22   C     C_R   0.472006 0.394605 0.072894 0.002608
C23   C     C_R   0.527994 0.605395 0.927106 0.002609
C24   C     C_R   0.472053 0.393164 0.926080 0.164869
C25   C     C_R   0.527947 0.606836 0.073919 0.164869
C26   C     C_2   0.129153 0.484119 0.406734 -0.022464
Cu1   Cu    Cu3+1 0.500000 0.500020 0.640660 1.069462
Cu2   Cu    Cu3+1 0.500000 0.499980 0.359340 1.069462
H1    H     H_    0.447568 0.310285 0.125777 0.147428
H2    H     H_    0.129321 0.423518 0.192560 0.142648
H3    H     H_    0.987116 0.406187 0.238371 0.175679
H4    H     H_    0.046872 0.561616 0.197356 0.183657
H5    H     H_    0.323105 0.162869 0.724178 0.350802
H6    H     H_    0.676895 0.837130 0.275823 0.350802
H7    H     H_    0.190225 0.894314 0.097924 0.355283
H8    H     H_    0.809776 0.105686 0.902074 0.355284
H9    H     H_    0.552431 0.689715 0.874223 0.147428
H10   H     H_    0.351364 0.122064 0.324309 0.161971
H11   H     H_    0.648635 0.877936 0.675691 0.161971
H12   H     H_    0.796810 0.592302 0.148406 0.340033
H13   H     H_    0.203191 0.407700 0.851594 0.340033
H14   H     H_    0.870679 0.576483 0.807439 0.142648
H15   H     H_    0.953128 0.438386 0.802644 0.183657
H16   H     H_    0.012883 0.593814 0.761629 0.175679
N1    N     N_R   0.500030 0.500030 0.852080 -0.259222
N2    N     N_R   0.499970 0.499970 0.147920 -0.259222
O1    O     O_R   0.499990 0.319660 0.618740 -0.457533
O2    O     O_R   0.813789 0.535508 0.236312 -0.673375
O3    O     O_2   0.085551 0.295467 0.651287 -0.471736
O4    O     O_R   0.186211 0.464493 0.763688 -0.673375
O5    O     O_2   0.506988 0.183336 0.905500 -0.481803
O6    O     O_R   0.334618 0.251860 0.757466 -0.647584
O7    O     O_2   0.493013 0.816664 0.094499 -0.481803
O8    O     O_R   0.665382 0.748139 0.242535 -0.647583
O9    O     O_2   0.267046 0.776352 0.312692 -0.496154
O10   O     O_R   0.258860 0.943565 0.161309 -0.658790
O11   O     O_2   0.732954 0.223648 0.687306 -0.496153
O12   O     O_R   0.500010 0.680340 0.381260 -0.457533
O13   O     O_R   0.741141 0.056435 0.838690 -0.658790
O14   O     O_R   0.499990 0.319630 0.381170 -0.527699
O15   O     O_R   0.500010 0.680370 0.618830 -0.527699
O16   O     O_R   0.320690 0.500020 0.575130 -0.434624
O17   O     O_R   0.679310 0.499980 0.424870 -0.434624
O18   O     O_R   0.320680 0.499990 0.337560 -0.498985
O19   O     O_R   0.679320 0.500010 0.662440 -0.498985
O20   O     O_2   0.914449 0.704535 0.348714 -0.471736

loop_
_geom_bond_atom_site_label_1
_geom_bond_atom_site_label_2
_ccdc_geom_bond_type
C20   O18   A    
C2    C4    D    
C16   O5    D    
C15   H3    S    
C23   N1    A    
Cu1   O16   S    
Cu2   O12   S    
C3    C13   S    
C11   O20   D    
C18   O10   S    
C14   H14   S    
C7    C18   S    
C12   O12   A    
Cu1   N1    S    
C2    C21   S    
Cu2   O14   S    
C17   C25   S    
C5    C10   A    
C16   C24   S    
C5    H10   S    
C19   O11   D    
H5    O6    S    
C12   O15   A    
C17   O8    S    
Cu2   N2    S    
C11   O2    S    
C16   O6    S    
C20   C26   S    
C18   O9    D    
C6    C9    A    
C13   O3    D    
C24   N1    A    
Cu2   O18   S    
C14   H16   S    
Cu1   O19   S    
C22   H1    S    
H6    O8    S    
C5    C7    A    
C23   C25   A    
C20   O16   A    
C2    C14   S    
C9    C12   S    
C22   C24   A    
C21   O17   A    
C8    C19   S    
C3    C4    S    
C22   N2    A    
Cu2   O17   S    
C17   O7    D    
H13   O4    S    
C15   H4    S    
C15   H2    S    
C8    C10   A    
C1    O14   A    
Cu1   O1    S    
Cu1   Cu2   S    
C7    C9    A    
H12   O2    S    
C6    H11   S    
C1    O1    A    
C15   C26   S    
C6    C8    A    
Cu1   O15   S    
C19   O13   S    
H7    O10   S    
C23   H9    S    
H8    O13   S    
C21   O19   A    
C25   N2    A    
C3    C26   D    
C1    C10   S    
C13   O4    S    
C14   H15   S    
C4    C11   S    
