data_mof_unit_17158.cif
_audit_creation_date              2012-12-10T20:31:55-0500
_audit_creation_method            fapswitch 2.2
_symmetry_space_group_name_H-M    P1
_symmetry_Int_Tables_number       1
_space_group_crystal_system       triclinic
_cell_length_a                    9.929402
_cell_length_b                    10.61118
_cell_length_c                    15.401109
_cell_angle_alpha                 90.384528
_cell_angle_beta                  67.635465
_cell_angle_gamma                 90.507023
_cell_volume                      1500.57659234

loop_
_atom_site_label
_atom_site_type_symbol
_atom_type_description
_atom_site_fract_x
_atom_site_fract_y
_atom_site_fract_z
_atom_type_partial_charge
C1    C     C_R   0.500059 0.739451 0.500438 0.988885
C2    C     C_R   0.431659 0.434186 0.905705 0.066906
C3    C     C_R   0.298021 0.371591 0.954114 0.146520
C4    C     C_R   0.541355 0.437164 0.943157 0.039106
C5    C     C_R   0.506042 0.399790 0.037187 0.057006
C6    C     C_R   0.374573 0.329847 0.083120 0.174272
C7    C     C_R   0.271941 0.318322 0.041405 -0.295540
C8    C     C_R   0.686552 0.472843 0.888549 -0.238196
C9    C     C_R   0.788686 0.489003 0.929009 -0.216589
C10   C     C_R   0.746622 0.478573 0.026010 0.040465
C11   C     C_R   0.603367 0.436023 0.081012 0.021257
C12   C     C_R   0.408679 0.498115 0.676196 0.878842
C13   C     C_R   0.842417 0.516756 0.069577 0.522094
C14   C     C_R   0.794374 0.515252 0.167490 -0.329745
C15   C     C_R   0.555615 0.446244 0.178503 -0.217939
C16   C     C_R   0.525377 0.937471 0.567370 -0.039304
C17   C     C_R   0.505471 0.871469 0.495103 -0.181745
C18   C     C_R   0.507332 0.933560 0.414039 0.073729
C19   C     C_R   0.514616 0.065354 0.412252 0.424124
C20   C     C_R   0.508559 0.129212 0.493841 -0.202167
C21   C     C_R   0.530226 0.066040 0.565825 -0.046289
C22   C     C_3   0.452148 0.080392 0.669553 -0.558509
C23   C     C_R   0.500592 0.260790 0.499352 0.953471
C24   C     C_3   0.439753 0.936113 0.671689 0.420538
C25   C     C_R   0.938035 0.609053 0.487001 0.116388
C26   C     C_R   0.920369 0.391412 0.509422 -0.209661
C27   C     C_R   0.063664 0.390278 0.509019 0.233810
C28   C     C_R   0.081081 0.608673 0.485777 0.132210
C29   C     C_3   0.056058 0.723533 0.545407 -0.534034
C30   C     C_3   0.900853 0.723869 0.548860 0.013130
C31   C     C_R   0.591286 0.497294 0.323839 0.914540
C32   C     C_R   0.354375 0.473685 0.776827 -0.054046
C33   C     C_R   0.649329 0.485624 0.221725 -0.166496
C34   C     C_R   0.194730 0.358906 0.912517 -0.085157
C35   C     C_R   0.223984 0.407924 0.823191 -0.196462
C36   C     C_R   0.451474 0.493543 0.821190 -0.239588
H1    H     H_    0.172829 0.264526 0.076578 0.142519
H2    H     H_    0.526916 0.116176 0.702670 0.175494
H3    H     H_    0.351455 0.136710 0.688645 0.192000
H4    H     H_    0.502543 0.893017 0.709651 0.099018
H5    H     H_    0.859600 0.304136 0.518503 0.166732
H6    H     H_    0.065935 0.703066 0.613407 0.221613
H7    H     H_    0.442322 0.431292 0.221815 0.201827
H8    H     H_    0.122197 0.804947 0.506344 0.188275
H9    H     H_    0.874210 0.806708 0.514567 0.150421
H10   H     H_    0.868237 0.544018 0.200761 0.180002
H11   H     H_    0.898212 0.517703 0.884645 0.189172
H12   H     H_    0.093629 0.307946 0.947804 0.131550
H13   H     H_    0.148303 0.389939 0.789107 0.139750
H14   H     H_    0.545530 0.552637 0.786590 0.157326
H15   H     H_    0.724883 0.485498 0.813543 0.142086
N1    N     N_R   0.856900 0.500860 0.500610 -0.114411
N2    N     N_R   0.142540 0.500820 0.500610 -0.115602
O1    O     O_R   0.385310 0.683210 0.499990 -0.592267
O2    O     O_R   0.614650 0.683240 0.500000 -0.625334
O3    O     O_R   0.319830 0.499970 0.632240 -0.615425
O4    O     O_R   0.549170 0.500000 0.632250 -0.607123
O5    O     O_R   0.385350 0.316760 0.500000 -0.572945
O6    O     O_R   0.614690 0.316790 0.500010 -0.640109
O7    O     O_R   0.450830 0.500000 0.367750 -0.598940
O8    O     O_R   0.680170 0.500030 0.367760 -0.629610
Zn1   Zn    Zn3+2 0.346870 0.499980 0.499990 0.973377
Zn2   Zn    Zn3+2 0.653130 0.500020 0.500010 0.935794
O9    O     O_3   0.983230 0.554893 0.016506 -0.617412
C37   C     C_3   0.990396 0.687593 0.018394 -0.322771
H16   H     H_    0.971810 0.723229 0.090118 0.158797
H17   H     H_    0.911637 0.730963 0.991937 0.159514
H18   H     H_    0.101296 0.717874 0.971312 0.209680
N3    N     N_2   0.491374 0.864762 0.338699 -0.285603
H19   H     H_    0.430448 0.910110 0.307276 0.247865
C38   C     C_3   0.624843 0.813881 0.270877 -0.790047
H20   H     H_    0.684319 0.759543 0.306209 0.237267
H21   H     H_    0.598495 0.750269 0.222000 0.239885
H22   H     H_    0.696080 0.890487 0.228927 0.231757
O10   O     O_3   0.519386 0.130256 0.333568 -0.625360
C39   C     C_3   0.664928 0.167331 0.281950 -0.323230
H23   H     H_    0.742774 0.088148 0.269571 0.147020
H24   H     H_    0.698675 0.245432 0.317609 0.174870
H25   H     H_    0.673393 0.202027 0.212355 0.200259
O11   O     O_3   0.299580 0.877686 0.698749 -0.598411
C40   C     C_3   0.194440 0.949063 0.679779 -0.280830
H26   H     H_    0.149172 0.023510 0.733849 0.157640
H27   H     H_    0.102131 0.886283 0.685607 0.175100
H28   H     H_    0.236499 0.988860 0.607758 0.165581
N4    N     N_2   0.121110 0.273269 0.521538 -0.266589
H29   H     H_    0.054377 0.227199 0.581446 0.189701
C41   C     C_3   0.163482 0.191681 0.439923 -0.728885
H30   H     H_    0.067505 0.165475 0.423087 0.195810
H31   H     H_    0.211228 0.103949 0.454352 0.229137
H32   H     H_    0.246324 0.239405 0.378505 0.284375
N5    N     N_2   0.792675 0.697965 0.642040 -0.245483
H33   H     H_    0.803030 0.611982 0.669714 0.233057
C42   C     C_3   0.766793 0.799973 0.709041 -0.836066
H34   H     H_    0.664417 0.781195 0.770283 0.237012
H35   H     H_    0.756686 0.891045 0.676919 0.237622
H36   H     H_    0.857178 0.806798 0.734489 0.234659
N6    N     N_2   0.352683 0.256342 0.164368 -0.314426
H37   H     H_    0.244804 0.247486 0.208714 0.218045
C43   C     C_3   0.425437 0.135971 0.143698 -0.745568
H38   H     H_    0.404476 0.084589 0.210025 0.266408
H39   H     H_    0.544811 0.149563 0.106898 0.245511
H40   H     H_    0.383221 0.077842 0.099135 0.223093

loop_
_geom_bond_atom_site_label_1
_geom_bond_atom_site_label_2
_ccdc_geom_bond_type
O5    Zn1   S    
C23   O5    A    
C41   H30   S    
C42   H34   S    
C29   H6    S    
C31   O8    A    
C30   H9    S    
C19   C20   A    
C39   H25   S    
C4    C8    A    
C14   C33   A    
N6    H37   S    
C14   H10   S    
N4    H29   S    
C25   C28   A    
C23   O6    A    
C26   C27   A    
C16   C21   A    
C32   C36   A    
O7    Zn1   S    
C28   C29   S    
C39   H24   S    
C5    C11   A    
C3    C7    A    
C5    C6    A    
O11   C40   S    
C22   H2    S    
N3    C38   S    
C34   C35   A    
O8    Zn2   S    
C40   H27   S    
C11   C15   A    
C24   O11   S    
C8    C9    A    
C37   H17   S    
O2    Zn2   S    
C35   H13   S    
C31   C33   S    
O4    Zn2   S    
C9    C10   A    
C18   N3    S    
C16   C24   S    
C21   C22   S    
C12   C32   S    
N6    C43   S    
C27   N4    S    
C40   H26   S    
N4    C41   S    
C6    N6    S    
C39   H23   S    
N5    H33   S    
C38   H21   S    
C18   C19   A    
O1    Zn1   S    
C3    C34   A    
N1    Zn2   S    
C31   O7    A    
C2    C4    A    
O10   C39   S    
C32   C35   A    
C29   C30   S    
C26   N1    A    
N5    C42   S    
N2    Zn1   S    
C43   H38   S    
C20   C23   S    
C37   H18   S    
C17   C18   A    
C7    H1    S    
C8    H15   S    
C12   O3    A    
C1    O1    A    
C12   O4    A    
C43   H39   S    
C9    H11   S    
C42   H36   S    
C41   H31   S    
C29   H8    S    
O3    Zn1   S    
C34   H12   S    
C40   H28   S    
C36   H14   S    
C2    C36   A    
C25   C30   S    
O6    Zn2   S    
C30   N5    S    
C10   C13   A    
C38   H22   S    
C28   N2    A    
C27   N2    A    
C6    C7    A    
C1    C17   S    
O9    C37   S    
C19   O10   S    
C2    C3    A    
C1    O2    A    
C25   N1    A    
C15   H7    S    
C38   H20   S    
C16   C17   A    
C13   O9    S    
C22   H3    S    
C24   H4    S    
C22   C24   S    
N3    H19   S    
C10   C11   A    
C4    C5    A    
C43   H40   S    
C20   C21   A    
C42   H35   S    
C37   H16   S    
C41   H32   S    
C13   C14   A    
C15   C33   A    
C26   H5    S    
