data_mof_unit_67976.cif
_audit_creation_date              2013-03-05T16:49:25-0500
_audit_creation_method            fapswitch 2.2
_symmetry_space_group_name_H-M    P1
_symmetry_Int_Tables_number       1
_space_group_crystal_system       triclinic
_cell_length_a                    11.13707
_cell_length_b                    9.478534
_cell_length_c                    8.383193
_cell_angle_alpha                 93.608006
_cell_angle_beta                  93.162
_cell_angle_gamma                 99.460812
_cell_volume                      869.258025143

loop_
_atom_site_label
_atom_site_type_symbol
_atom_site_description
_atom_site_fract_x
_atom_site_fract_y
_atom_site_fract_z
_atom_type_partial_charge
O1    O     O_R   0.499990 0.285340 0.636850 -0.590129
O2    O     O_R   0.500010 0.714660 0.363150 -0.590135
O3    O     O_R   0.500010 0.285350 0.363100 -0.640288
O4    O     O_R   0.499990 0.714650 0.636900 -0.640282
C1    C     C_R   0.501514 0.218293 0.497055 0.879335
C2    C     C_R   0.498486 0.781707 0.502945 0.879334
O5    O     O_R   0.316750 0.500000 0.636870 -0.672217
O6    O     O_R   0.683250 0.500000 0.363130 -0.672216
O7    O     O_R   0.316770 0.500020 0.363120 -0.605954
O8    O     O_R   0.683230 0.499980 0.636880 -0.605948
C3    C     C_R   0.257935 0.489195 0.494593 0.843906
C4    C     C_R   0.742065 0.510807 0.505407 0.843908
Zn1   Zn    Zn3+2 0.499990 0.499990 0.682780 0.972680
Zn2   Zn    Zn3+2 0.500010 0.500010 0.317220 0.972674
H1    H     H_    0.295396 0.378678 0.865937 0.187753
H2    H     H_    0.704598 0.621321 0.134058 0.187752
C5    C     C_R   0.231509 0.519399 0.028733 0.474870
C6    C     C_R   0.768491 0.480603 0.971262 0.474877
C7    C     C_R   0.154056 0.531013 0.143697 -0.103518
C8    C     C_R   0.845948 0.468992 0.856303 -0.103512
H3    H     H_    0.180043 0.625103 0.222685 0.160592
H4    H     H_    0.819972 0.374900 0.777318 0.160584
C9    C     C_R   0.072682 0.414305 0.185358 -0.044492
C10   C     C_R   0.927318 0.585703 0.814644 -0.044489
C11   C     C_R   0.034269 0.290886 0.066644 -0.032317
C12   C     C_R   0.965728 0.709121 0.933360 -0.032319
C13   C     C_R   0.119511 0.284444 0.939501 -0.021963
C14   C     C_R   0.880483 0.715557 0.060501 -0.021975
C15   C     C_R   0.225862 0.388097 0.946143 -0.312810
C16   C     C_R   0.774133 0.611904 0.053853 -0.312816
C17   C     C_R   0.924256 0.485995 0.364690 -0.243205
C18   C     C_R   0.075744 0.514010 0.635311 -0.243188
H5    H     H_    0.868652 0.481144 0.256730 0.178468
H6    H     H_    0.131352 0.518871 0.743270 0.178467
C19   C     C_R   0.877988 0.519936 0.510923 -0.071169
C20   C     C_R   0.122012 0.480069 0.489077 -0.071174
C21   C     C_R   0.962717 0.553678 0.648816 0.029046
C22   C     C_R   0.037285 0.446330 0.351185 0.029044
C23   C     C_1   0.500745 0.064177 0.496288 -0.224394
C24   C     C_1   0.499254 0.935823 0.503710 -0.224395
N1    N     N_1   0.500020 0.500030 0.073640 -0.040690
N2    N     N_1   0.499980 0.499970 0.926360 -0.040684
O9    O     O_3   0.316189 0.637936 0.007059 -0.762894
H7    H     H_    0.338330 0.630930 0.894894 0.351399
O10   O     O_3   0.683811 0.362065 0.992931 -0.762892
H8    H     H_    0.661667 0.369070 0.105095 0.351392
C25   C     C_R   0.912829 0.180091 0.065791 0.107286
C26   C     C_R   0.818908 0.189764 0.170701 -0.121118
C27   C     C_R   0.703014 0.104558 0.147783 -0.110573
C28   C     C_R   0.675460 0.003964 0.018617 -0.077095
C29   C     C_R   0.767880 0.978131 0.923860 -0.125653
C30   C     C_R   0.884478 0.059682 0.952988 -0.200381
H9    H     H_    0.828183 0.259893 0.272526 0.117858
H10   H     H_    0.633950 0.118185 0.229864 0.148873
H11   H     H_    0.586034 0.938389 0.999931 0.136794
H12   H     H_    0.750308 0.890955 0.831593 0.136890
H13   H     H_    0.952192 0.024889 0.884795 0.145413
C31   C     C_R   0.087171 0.819913 0.934221 0.107291
C32   C     C_R   0.181087 0.810244 0.829297 -0.121116
C33   C     C_R   0.296982 0.895445 0.852213 -0.110573
C34   C     C_R   0.324546 0.996029 0.981393 -0.077069
C35   C     C_R   0.232131 0.021861 0.076164 -0.125649
C36   C     C_R   0.115530 0.940316 0.047037 -0.200386
H14   H     H_    0.171801 0.740127 0.727453 0.117848
H15   H     H_    0.366039 0.881826 0.770114 0.148866
H16   H     H_    0.413973 0.061602 0.000076 0.136787
H17   H     H_    0.249709 0.109032 0.168440 0.136882
H18   H     H_    0.047818 0.975111 0.115235 0.145415
C37   C     C_R   0.100268 0.202588 0.777440 0.116789
C38   C     C_R   0.991883 0.199116 0.684369 -0.183386
C39   C     C_R   0.983189 0.166382 0.521619 -0.091507
C40   C     C_R   0.084961 0.142517 0.443484 -0.096293
C41   C     C_R   0.191998 0.133990 0.531667 -0.177348
C42   C     C_R   0.199631 0.161622 0.697545 -0.120849
H19   H     H_    0.911831 0.218013 0.736300 0.140865
H20   H     H_    0.895671 0.156060 0.459515 0.135174
H21   H     H_    0.078993 0.125365 0.316223 0.128722
H22   H     H_    0.268231 0.106496 0.470562 0.127999
H23   H     H_    0.286929 0.163011 0.759986 0.149520
C43   C     C_R   0.899721 0.797408 0.222565 0.116789
C44   C     C_R   0.800359 0.838375 0.302461 -0.120836
C45   C     C_R   0.807996 0.866015 0.468339 -0.177339
C46   C     C_R   0.915035 0.857495 0.556521 -0.096293
C47   C     C_R   0.016805 0.833628 0.478384 -0.091520
C48   C     C_R   0.008105 0.800876 0.315635 -0.183375
H24   H     H_    0.713060 0.836983 0.240021 0.149522
H25   H     H_    0.731765 0.893515 0.529447 0.128003
H26   H     H_    0.921010 0.874663 0.683782 0.128721
H27   H     H_    0.104327 0.843968 0.540482 0.135175
H28   H     H_    0.088152 0.781963 0.263703 0.140863

loop_
_geom_bond_atom_site_label_1
_geom_bond_atom_site_label_2
_geom_bond_distance
_ccdc_geom_bond_type
C13   C15   1.405184 A    
C5    C15   1.375950 A    
N1    N2    1.234616 T    
O7    Zn2   2.097484 S    
C44   C45   1.394056 A    
O10   H8    0.986146 S    
O5    C3    1.318540 A    
C32   H14   1.038063 S    
C43   C48   1.395242 A    
C35   H17   1.081251 S    
O1    C1    1.299839 A    
C18   C20   1.395135 A    
C3    C20   1.499960 S    
C19   C21   1.436285 A    
C10   C12   1.477813 A    
C39   H20   1.066259 S    
H2    C16   1.064135 S    
C27   H10   1.077799 S    
C29   H12   1.081232 S    
C41   C42   1.394040 A    
O4    Zn1   2.094344 S    
C40   H21   1.065749 S    
C34   H16   1.081577 S    
C25   C26   1.413821 A    
C41   H22   1.074740 S    
C17   H5    1.062213 S    
C38   C39   1.374558 A    
C6    C16   1.375951 A    
C11   C25   1.569457 S    
C44   H24   1.076208 S    
C13   C37   1.508052 S    
C34   C35   1.378060 A    
C46   H26   1.065762 S    
C32   C33   1.401980 A    
O2    C2    1.299837 A    
O2    Zn2   2.046736 S    
Zn1   N2    2.041996 S    
H1    C15   1.064135 S    
C26   H9    1.038013 S    
C29   C30   1.398091 A    
C8    C10   1.385988 A    
C47   C48   1.374572 A    
O4    C2    1.325366 A    
C23   C24   1.219551 T    
C40   C41   1.384219 A    
C28   C29   1.378035 A    
C31   C32   1.413843 A    
C33   C34   1.383148 A    
C18   H6    1.062218 S    
C7    C9    1.385993 A    
O9    H7    0.986145 S    
C5    O9    1.371517 S    
C35   C36   1.398098 A    
C12   C31   1.569460 S    
C46   C47   1.382905 A    
O6    C4    1.318542 A    
C10   C21   1.492253 S    
C37   C42   1.419243 A    
C18   C21   1.380116 A    
C4    C19   1.499962 S    
O7    C3    1.313946 A    
O3    Zn2   2.094343 S    
O8    C4    1.313946 A    
Zn2   N1    2.041996 S    
C26   C27   1.401977 A    
C8    H4    1.066427 S    
C33   H15   1.077820 S    
C45   C46   1.384223 A    
C42   H23   1.076209 S    
C1    C23   1.459011 S    
C2    C24   1.459014 S    
O1    Zn1   2.046734 S    
C47   H27   1.066262 S    
C6    O10   1.371514 S    
C31   C36   1.417524 A    
C36   H18   1.053525 S    
O6    Zn2   2.055781 S    
C7    H3    1.066431 S    
C43   C44   1.419248 A    
O3    C1    1.325365 A    
O8    Zn1   2.097484 S    
C48   H28   1.049741 S    
C25   C30   1.417493 A    
C11   C13   1.470900 A    
C9    C22   1.492246 S    
C12   C14   1.470906 A    
C28   H11   1.081573 S    
C17   C22   1.380110 A    
C14   C16   1.405178 A    
C39   C40   1.382910 A    
C17   C19   1.395135 A    
C20   C22   1.436281 A    
C5    C7    1.339630 A    
C6    C8    1.339633 A    
C9    C11   1.477812 A    
C37   C38   1.395251 A    
C14   C43   1.508049 S    
C30   H13   1.053510 S    
O5    Zn1   2.055781 S    
C27   C28   1.383113 A    
C38   H19   1.049740 S    
C45   H25   1.074742 S    
