data_mof_unit_54834.cif
_audit_creation_date              2012-12-11T15:33:39-0500
_audit_creation_method            fapswitch 2.2
_symmetry_space_group_name_H-M    P1
_symmetry_Int_Tables_number       1
_space_group_crystal_system       triclinic
_cell_length_a                    27.103625
_cell_length_b                    7.199825
_cell_length_c                    22.779418
_cell_angle_alpha                 89.970792
_cell_angle_beta                  101.247604
_cell_angle_gamma                 90.080888
_cell_volume                      4359.82493226

loop_
_atom_site_label
_atom_site_type_symbol
_atom_type_description
_atom_site_fract_x
_atom_site_fract_y
_atom_site_fract_z
_atom_type_partial_charge
O1    O     O_R   0.207310 0.594030 0.676830 -0.531912
O2    O     O_R   0.792690 0.405970 0.323170 -0.531939
O3    O     O_R   0.292690 0.094030 0.823170 -0.529682
O4    O     O_R   0.707310 0.905970 0.176830 -0.529686
O5    O     O_R   0.197320 0.262370 0.795700 -0.510637
O6    O     O_R   0.802680 0.737630 0.204300 -0.510648
O7    O     O_R   0.302680 0.762370 0.704300 -0.507808
O8    O     O_R   0.697320 0.237630 0.295700 -0.507812
C1    C     C_R   0.184325 0.432002 0.811574 0.682882
C2    C     C_R   0.815675 0.567998 0.188427 0.682870
C3    C     C_R   0.315570 0.932251 0.688350 0.693909
C4    C     C_R   0.684430 0.067749 0.311650 0.693885
O9    O     O_R   0.201410 0.264250 0.675590 -0.544700
O10   O     O_R   0.798590 0.735750 0.324410 -0.544697
O11   O     O_R   0.298590 0.764250 0.824410 -0.541078
O12   O     O_R   0.701410 0.235750 0.175590 -0.541070
O13   O     O_R   0.296810 0.094940 0.702210 -0.546093
O14   O     O_R   0.703190 0.905060 0.297790 -0.546090
O15   O     O_R   0.203190 0.594940 0.797790 -0.543714
O16   O     O_R   0.796810 0.405060 0.202210 -0.543705
C5    C     C_R   0.189876 0.432532 0.653374 0.719089
C6    C     C_R   0.810126 0.567470 0.346623 0.719099
C7    C     C_R   0.310116 0.932644 0.846611 0.728598
C8    C     C_R   0.689884 0.067355 0.153389 0.728640
O17   O     O_3   0.281300 0.427390 0.758870 -0.368106
O18   O     O_3   0.718700 0.572610 0.241130 -0.368102
O19   O     O_3   0.218700 0.927390 0.741130 -0.371618
O20   O     O_3   0.781300 0.072610 0.258870 -0.371622
V1    V     V_3+5 0.244190 0.152150 0.748350 1.459015
V2    V     V_3+5 0.755810 0.847850 0.251650 1.458995
V3    V     V_3+5 0.255810 0.652150 0.751650 1.467778
V4    V     V_3+5 0.744190 0.347850 0.248350 1.467758
C9    C     C_R   0.655621 0.060929 0.094400 -0.051524
C10   C     C_R   0.344378 0.939067 0.905600 -0.051534
C11   C     C_R   0.844445 0.561670 0.405597 -0.048097
C12   C     C_R   0.155564 0.438367 0.594392 -0.048125
C13   C     C_R   0.641400 0.092032 0.986734 -0.172953
C14   C     C_R   0.358597 0.907954 0.013267 -0.172964
C15   C     C_R   0.859096 0.600387 0.513073 -0.164595
C16   C     C_R   0.140944 0.400127 0.486896 -0.164599
C17   C     C_R   0.674397 0.094444 0.042275 0.181096
C18   C     C_R   0.325601 0.905557 0.957725 0.181135
C19   C     C_R   0.825939 0.599731 0.457633 0.175737
C20   C     C_R   0.174090 0.400599 0.542349 0.175734
C21   C     C_R   0.604000 0.027428 0.090534 -0.254480
C22   C     C_R   0.396000 0.972554 0.909468 -0.254462
C23   C     C_R   0.895952 0.525832 0.409493 -0.262394
C24   C     C_R   0.104052 0.474090 0.590488 -0.262324
C25   C     C_R   0.569511 0.027915 0.034514 0.056763
C26   C     C_R   0.430489 0.972062 0.965488 0.056777
C27   C     C_R   0.930546 0.528895 0.465399 0.051958
C28   C     C_R   0.069478 0.471349 0.534563 0.051974
C29   C     C_R   0.589434 0.059460 0.982069 0.086110
C30   C     C_R   0.410565 0.940523 0.017933 0.086044
C31   C     C_R   0.910938 0.566755 0.517635 0.100903
C32   C     C_R   0.089100 0.433729 0.482322 0.100866
C33   C     C_R   0.516183 0.999064 0.028902 0.028653
C34   C     C_R   0.483816 0.000909 0.971100 0.028673
C35   C     C_R   0.983731 0.497081 0.471124 0.036167
C36   C     C_R   0.016297 0.503261 0.528829 0.036187
C37   C     C_R   0.505778 0.030528 0.920607 -0.206586
C38   C     C_R   0.494221 0.969448 0.079395 -0.206532
C39   C     C_R   0.994652 0.540816 0.579032 -0.229788
C40   C     C_R   0.005393 0.459832 0.420909 -0.229777
C41   C     C_R   0.557417 0.059510 0.925436 0.190594
C42   C     C_R   0.442581 0.940481 0.074567 0.190636
C43   C     C_R   0.943210 0.571874 0.573938 0.178393
C44   C     C_R   0.056840 0.428863 0.426004 0.178433
H1    H     H_    0.407670 0.996672 0.867585 0.106906
H2    H     H_    0.592331 0.003306 0.132417 0.106911
H3    H     H_    0.092427 0.500674 0.632252 0.103875
H4    H     H_    0.907560 0.498832 0.367743 0.103928
H5    H     H_    0.656748 0.117885 0.947031 0.154671
H6    H     H_    0.343249 0.882101 0.052969 0.154626
H7    H     H_    0.844054 0.629609 0.552772 0.163269
H8    H     H_    0.156003 0.371111 0.447194 0.163250
H9    H     H_    0.483716 0.030806 0.875977 0.121028
H10   H     H_    0.516284 0.969163 0.124025 0.121021
H11   H     H_    0.016624 0.547751 0.623717 0.125175
H12   H     H_    0.983430 0.453271 0.376211 0.125157
C45   C     C_R   0.641692 0.896603 0.383935 -0.225711
C46   C     C_R   0.358303 0.103384 0.616058 -0.225722
C47   C     C_R   0.860705 0.393090 0.119339 -0.212901
C48   C     C_R   0.139295 0.606910 0.880662 -0.212932
H13   H     H_    0.667055 0.781124 0.382902 0.150845
H14   H     H_    0.332936 0.218857 0.617086 0.150818
H15   H     H_    0.837101 0.273673 0.122803 0.167093
H16   H     H_    0.162898 0.726330 0.877196 0.167073
C49   C     C_R   0.605981 0.882148 0.420610 -0.143369
C50   C     C_R   0.394013 0.117835 0.579381 -0.143368
C51   C     C_R   0.896303 0.378571 0.082607 -0.145844
C52   C     C_R   0.103698 0.621429 0.917395 -0.145847
H17   H     H_    0.604794 0.755790 0.446099 0.147983
H18   H     H_    0.395196 0.244184 0.553886 0.147986
H19   H     H_    0.899107 0.248650 0.059561 0.151159
H20   H     H_    0.100893 0.751351 0.940439 0.151150
C53   C     C_R   0.572539 0.028477 0.424567 -0.004868
C54   C     C_R   0.427459 0.971516 0.575430 -0.004869
C55   C     C_R   0.927576 0.529142 0.075473 -0.013081
C56   C     C_R   0.072426 0.470856 0.924530 -0.013065
C57   C     C_R   0.575635 0.189390 0.390460 -0.187886
C58   C     C_R   0.424368 0.810615 0.609545 -0.187887
C59   C     C_R   0.922514 0.694588 0.106484 -0.172105
C60   C     C_R   0.077489 0.305408 0.893521 -0.172121
H21   H     H_    0.550164 0.304120 0.392287 0.145564
H22   H     H_    0.449842 0.695893 0.607724 0.145562
H23   H     H_    0.946595 0.811761 0.101958 0.140000
H24   H     H_    0.053409 0.188234 0.898047 0.140003
C61   C     C_R   0.611281 0.205106 0.353210 0.198517
C62   C     C_R   0.388723 0.794904 0.646796 0.198517
C63   C     C_R   0.887039 0.710969 0.144061 0.213034
C64   C     C_R   0.112965 0.289028 0.855945 0.213032
C65   C     C_R   0.645244 0.057623 0.349794 -0.037210
C66   C     C_R   0.354756 0.942376 0.650206 -0.037195
C67   C     C_R   0.855088 0.558508 0.150473 -0.062063
C68   C     C_R   0.144913 0.441491 0.849529 -0.062033
N1    N     N_R   0.502604 0.155860 0.468273 -0.282367
N2    N     N_R   0.497393 0.844131 0.531723 -0.282367
N3    N     N_R   0.995381 0.660196 0.028653 -0.281918
N4    N     N_R   0.004621 0.339802 0.971350 -0.281917
N5    N     N_R   0.468770 0.142647 0.503488 -0.285518
N6    N     N_R   0.531227 0.857343 0.496508 -0.285517
N7    N     N_R   0.029178 0.646670 0.993428 -0.285285
N8    N     N_R   0.970824 0.353327 0.006575 -0.285284
C69   C     C_R   0.465364 0.986465 0.536057 0.529166
C70   C     C_R   0.534633 0.013526 0.463939 0.529167
C71   C     C_R   0.034595 0.486137 0.963938 0.529052
C72   C     C_R   0.965407 0.513860 0.036065 0.529051
N9    N     N_3   0.577648 0.088682 0.872208 -0.672267
H25   H     H_    0.548960 0.112114 0.835037 0.233314
H26   H     H_    0.595594 0.965826 0.863819 0.230509
N10   N     N_3   0.422349 0.911324 0.127796 -0.672217
H27   H     H_    0.451039 0.888146 0.164984 0.233299
H28   H     H_    0.404347 0.034101 0.136138 0.230480
N11   N     N_3   0.923807 0.609653 0.626979 -0.681724
H29   H     H_    0.932792 0.497523 0.656294 0.236464
H30   H     H_    0.942093 0.727441 0.647579 0.235191
N12   N     N_3   0.076263 0.391432 0.372953 -0.681731
H31   H     H_    0.067250 0.503643 0.343678 0.236474
H32   H     H_    0.058025 0.273614 0.352309 0.235202
N13   N     N_3   0.272782 0.870977 0.953930 -0.668626
H33   H     H_    0.264738 0.740461 0.934252 0.224418
H34   H     H_    0.264204 0.862867 0.996662 0.231858
N14   N     N_3   0.727213 0.129062 0.046070 -0.668633
H35   H     H_    0.735245 0.259624 0.065720 0.224429
H36   H     H_    0.735795 0.137092 0.003337 0.231860
N15   N     N_3   0.226776 0.363950 0.546151 -0.675347
H37   H     H_    0.234404 0.233844 0.566253 0.223646
H38   H     H_    0.235239 0.353782 0.503409 0.231398
N16   N     N_3   0.773258 0.636474 0.453842 -0.675352
H39   H     H_    0.765634 0.766526 0.433699 0.223685
H40   H     H_    0.764806 0.646810 0.496586 0.231390
N17   N     N_3   0.611880 0.370038 0.318163 -0.649120
H41   H     H_    0.576388 0.385367 0.290756 0.221017
H42   H     H_    0.617823 0.483431 0.347339 0.228873
N18   N     N_3   0.388130 0.629987 0.681852 -0.649128
H43   H     H_    0.423624 0.614677 0.709257 0.221009
H44   H     H_    0.382187 0.516581 0.652682 0.228887
N19   N     N_3   0.884318 0.880905 0.176375 -0.641652
H45   H     H_    0.906653 0.983949 0.162316 0.218858
H46   H     H_    0.899606 0.854648 0.221391 0.214044
N20   N     N_3   0.115686 0.119090 0.823631 -0.641659
H47   H     H_    0.093374 0.016016 0.837715 0.218864
H48   H     H_    0.100372 0.145319 0.778621 0.214044

loop_
_geom_bond_atom_site_label_1
_geom_bond_atom_site_label_2
_ccdc_geom_bond_type
O17   V3    S    
C55   C59   A    
O1    C5    A    
O19   V1    S    
C56   C71   S    
C9    C21   A    
O3    C7    A    
N15   H37   S    
C10   C18   A    
C52   H20   S    
C11   C23   A    
N4    C71   A    
C25   C33   A    
N11   H29   S    
C5    C12   S    
C39   H11   S    
O7    C3    A    
C6    C11   S    
C35   C40   A    
C26   C30   A    
C36   C39   A    
C40   C44   A    
O2    V4    S    
O9    V1    S    
N18   H43   S    
N15   H38   S    
C14   C18   A    
N13   H34   S    
O16   V4    S    
O4    C8    A    
C64   C68   A    
C57   C61   A    
O1    V3    S    
C20   N15   S    
O13   V1    S    
C31   C43   A    
C59   C63   A    
N2    N6    A    
O3    V1    S    
C3    C66   S    
N1    N5    A    
O12   V4    S    
C22   H1    S    
C63   N19   S    
C28   C36   A    
N5    C69   A    
C44   N12   S    
C1    O15   A    
C54   C69   S    
C15   C31   A    
C37   H9    S    
N10   H27   S    
C16   C32   A    
O2    C6    A    
N19   H46   S    
C58   H22   S    
C10   C22   A    
N2    C69   A    
C15   H7    S    
N17   H42   S    
C11   C19   A    
N1    C70   A    
C62   C66   A    
C16   C20   A    
N20   H48   S    
C12   C20   A    
C61   C65   A    
N8    C72   A    
C13   C29   A    
N3    C72   A    
C34   C37   A    
O11   C7    A    
O15   V3    S    
C35   C36   A    
O12   C8    A    
C13   C17   A    
C40   H12   S    
O10   V2    S    
C50   H18   S    
O5    V1    S    
C57   H21   S    
C39   C43   A    
O7    V3    S    
C38   C42   A    
C26   C34   A    
C47   C67   A    
C33   C38   A    
C46   C66   A    
C17   N14   S    
N14   H36   S    
C2    O16   A    
C60   C64   A    
O18   V4    S    
N14   H35   S    
C15   C19   A    
C61   N17   S    
C56   C60   A    
C32   C44   A    
O4    V2    S    
C16   H8    S    
C49   C53   A    
O8    V4    S    
N6    C70   A    
C43   N11   S    
O5    C1    A    
C41   N9    S    
N7    C71   A    
N19   H45   S    
C14   C30   A    
C21   C25   A    
O8    C4    A    
C7    C10   S    
C18   N13   S    
O9    C5    A    
C19   N16   S    
N12   H32   S    
O14   V2    S    
N10   H28   S    
O6    V2    S    
C64   N20   S    
N16   H40   S    
C58   C62   A    
C27   C35   A    
C24   H3    S    
C4    O14   A    
C60   H24   S    
C29   C41   A    
C52   C56   A    
C59   H23   S    
C4    C65   S    
C14   H6    S    
N11   H30   S    
C13   H5    S    
C3    O13   A    
C21   H2    S    
C1    C68   S    
C38   H10   S    
C48   H16   S    
C53   C70   S    
C47   H15   S    
O6    C2    A    
C23   C27   A    
O11   V3    S    
C55   C72   S    
C30   C42   A    
N3    N7    A    
N20   H47   S    
C47   C51   A    
C22   C26   A    
C8    C9    S    
C46   C50   A    
C42   N10   S    
C9    C17   A    
O10   C6    A    
N18   H44   S    
N9    H25   S    
C45   C49   A    
C54   C58   A    
N13   H33   S    
C46   H14   S    
C33   C34   A    
C25   C29   A    
O20   V2    S    
C12   C24   A    
C27   C31   A    
C49   H17   S    
N4    N8    A    
C45   H13   S    
C23   H4    S    
C62   N18   S    
N12   H31   S    
C51   H19   S    
C37   C41   A    
C24   C28   A    
C48   C68   A    
C45   C65   A    
N16   H39   S    
C63   C67   A    
C48   C52   A    
C51   C55   A    
N17   H41   S    
C50   C54   A    
C53   C57   A    
C2    C67   S    
C28   C32   A    
N9    H26   S    
