data_mof_unit_23855.cif
_audit_creation_date              2012-12-11T15:52:13-0500
_audit_creation_method            fapswitch 2.2
_symmetry_space_group_name_H-M    P1
_symmetry_Int_Tables_number       1
_space_group_crystal_system       triclinic
_cell_length_a                    11.185966
_cell_length_b                    11.189294
_cell_length_c                    18.866353
_cell_angle_alpha                 90.051915
_cell_angle_beta                  90.001718
_cell_angle_gamma                 120.061604
_cell_volume                      2043.73504943

loop_
_atom_site_label
_atom_site_type_symbol
_atom_type_description
_atom_site_fract_x
_atom_site_fract_y
_atom_site_fract_z
_atom_type_partial_charge
C1    C     C_R   0.519637 0.452463 0.145944 0.553469
C2    C     C_R   0.547161 0.066485 0.146054 0.550331
C3    C     C_R   0.931206 0.479479 0.145452 0.551680
C4    C     C_R   0.456432 0.520893 0.852691 0.567967
C5    C     C_R   0.063274 0.542885 0.852322 0.561115
C6    C     C_R   0.479624 0.936394 0.852599 0.555873
C7    C     C_3   0.743106 0.051885 0.546061 0.165721
C8    C     C_3   0.947939 0.690953 0.546223 0.165967
C9    C     C_3   0.308964 0.256907 0.545967 0.165632
C10   C     C_3   0.926984 0.681760 0.467670 0.190583
C11   C     C_3   0.754784 0.072896 0.467526 0.190991
C12   C     C_3   0.318319 0.245182 0.467435 0.190897
C13   C     C_R   0.518278 0.456874 0.352942 0.537333
C14   C     C_R   0.543169 0.061491 0.352944 0.537991
C15   C     C_R   0.938547 0.481797 0.352936 0.538093
C16   C     C_R   0.454329 0.521594 0.645259 0.548671
C17   C     C_R   0.067231 0.545607 0.645272 0.547245
C18   C     C_R   0.478368 0.932601 0.645240 0.546625
C19   C     C_R   0.501209 0.998741 0.922689 0.011801
C20   C     C_R   0.999009 0.500506 0.921673 0.031939
C21   C     C_R   0.496422 0.500245 0.922812 0.027912
C22   C     C_R   0.970664 0.500962 0.070502 0.042474
C23   C     C_R   0.528200 0.022566 0.071697 0.043908
C24   C     C_R   0.495586 0.471159 0.071575 0.045333
C25   C     C_R   0.387706 0.960596 0.967239 -0.053159
C26   C     C_R   0.033531 0.422364 0.966056 -0.047557
C27   C     C_R   0.571009 0.613404 0.967622 -0.059631
C28   C     C_R   0.017716 0.421519 0.038513 -0.056707
C29   C     C_R   0.401832 0.975227 0.039758 -0.048291
C30   C     C_R   0.572213 0.598504 0.040089 -0.051191
C31   C     C_R   0.645853 0.061012 0.027561 0.098486
C32   C     C_R   0.931749 0.579216 0.026143 0.088398
C33   C     C_R   0.418429 0.353846 0.026911 0.088643
C34   C     C_R   0.934412 0.568131 0.951696 0.068443
C35   C     C_R   0.634089 0.064470 0.952955 0.073473
C36   C     C_R   0.430155 0.367886 0.952574 0.068309
C37   C     C_3   0.253515 0.829264 0.973380 -0.232142
C38   C     C_3   0.164194 0.418500 0.973207 -0.235250
C39   C     C_3   0.570539 0.745496 0.974485 -0.232055
C40   C     C_3   0.146552 0.418414 0.052939 -0.282079
C41   C     C_3   0.270309 0.845101 0.053238 -0.279860
C42   C     C_3   0.570651 0.728187 0.054289 -0.277846
C43   C     C_R   0.490165 0.976883 0.572388 0.022527
C44   C     C_R   0.022846 0.513013 0.572407 0.021969
C45   C     C_R   0.486818 0.509863 0.572400 0.022344
C46   C     C_R   0.978446 0.498183 0.426374 0.033851
C47   C     C_R   0.519578 0.021625 0.426383 0.034394
C48   C     C_R   0.502113 0.480458 0.426402 0.034791
C49   C     C_R   0.619101 0.070178 0.544154 -0.020213
C50   C     C_R   0.929640 0.548641 0.544151 -0.019653
C51   C     C_R   0.451368 0.381050 0.544101 -0.019909
C52   C     C_R   0.907519 0.540108 0.471449 0.060764
C53   C     C_R   0.632629 0.092420 0.471469 0.060845
C54   C     C_R   0.460087 0.367525 0.471403 0.061115
C55   C     C_R   0.396440 0.913744 0.452755 -0.128101
C56   C     C_R   0.086146 0.482823 0.452796 -0.127791
C57   C     C_R   0.517039 0.603370 0.452850 -0.128223
C58   C     C_R   0.108728 0.491882 0.525682 -0.110929
C59   C     C_R   0.383010 0.890981 0.525619 -0.110824
C60   C     C_R   0.507701 0.616783 0.525722 -0.110722
Cr1   Cr    Cr6+3 0.769160 0.541570 0.250690 1.026785
Cr2   Cr    Cr6+3 0.458430 0.227590 0.250690 1.026330
Cr3   Cr    Cr6+3 0.772410 0.230840 0.250690 1.022104
Cr4   Cr    Cr6+3 0.541570 0.769160 0.749310 1.010793
Cr5   Cr    Cr6+3 0.227590 0.458430 0.749310 1.006267
Cr6   Cr    Cr6+3 0.230840 0.772410 0.749310 1.007716
H1    H     H_    0.258703 0.739078 0.952849 0.137498
H2    H     H_    0.255209 0.514122 0.953421 0.138785
H3    H     H_    0.473747 0.737526 0.954274 0.135465
H4    H     H_    0.123616 0.320700 0.079317 0.153367
H5    H     H_    0.194667 0.866325 0.079986 0.156272
H6    H     H_    0.667231 0.805264 0.080896 0.167795
H7    H     H_    0.167375 0.841453 0.952786 0.153219
H8    H     H_    0.152046 0.320272 0.952382 0.151726
H9    H     H_    0.667749 0.832921 0.953526 0.174102
H10   H     H_    0.227105 0.513895 0.079281 0.126174
H11   H     H_    0.285835 0.764579 0.078923 0.123906
H12   H     H_    0.473938 0.709914 0.080409 0.123140
H13   H     H_    0.314611 0.844321 0.417532 0.092503
H14   H     H_    0.155534 0.470482 0.417606 0.092708
H15   H     H_    0.529248 0.685026 0.417688 0.092492
H16   H     H_    0.201696 0.497262 0.545171 0.182254
H17   H     H_    0.295398 0.797898 0.545032 0.182176
H18   H     H_    0.501974 0.704167 0.545228 0.182012
H19   H     H_    0.826620 0.134134 0.578516 0.107156
H20   H     H_    0.865660 0.692043 0.578641 0.107710
H21   H     H_    0.307708 0.173509 0.578359 0.107726
H22   H     H_    0.023020 0.751870 0.437465 0.110755
H23   H     H_    0.728637 0.976890 0.437202 0.110768
H24   H     H_    0.248329 0.271073 0.437147 0.110897
O1    O     O_R   0.911480 0.572650 0.170990 -0.483900
O2    O     O_R   0.427350 0.338830 0.170990 -0.485522
O3    O     O_R   0.661170 0.088520 0.170990 -0.488904
O4    O     O_R   0.572650 0.911480 0.829010 -0.488087
O5    O     O_R   0.338830 0.427350 0.829010 -0.492379
O6    O     O_R   0.088520 0.661170 0.829010 -0.491982
O7    O     O_R   0.640340 0.528970 0.175680 -0.501819
O8    O     O_R   0.471030 0.111370 0.175680 -0.501591
O9    O     O_R   0.888630 0.359660 0.175680 -0.511352
O10   O     O_R   0.528970 0.640340 0.824320 -0.512992
O11   O     O_R   0.111370 0.471030 0.824320 -0.516929
O12   O     O_R   0.359660 0.888630 0.824320 -0.512543
O13   O     O_R   0.909980 0.572450 0.331530 -0.529153
O14   O     O_R   0.427550 0.337530 0.331530 -0.529462
O15   O     O_R   0.662470 0.090020 0.331530 -0.528613
O16   O     O_R   0.572450 0.909980 0.668470 -0.474815
O17   O     O_R   0.337530 0.427550 0.668470 -0.473311
O18   O     O_R   0.090020 0.662470 0.668470 -0.472618
O19   O     O_R   0.638950 0.528780 0.324500 -0.471738
O20   O     O_R   0.471220 0.110170 0.324500 -0.471378
O21   O     O_R   0.889830 0.361050 0.324500 -0.470742
O22   O     O_R   0.528780 0.638950 0.675500 -0.522764
O23   O     O_R   0.110170 0.471220 0.675500 -0.523655
O24   O     O_R   0.361050 0.889830 0.675500 -0.522578
O25   O     O_3   0.666667 0.333333 0.250560 -0.268041
O26   O     O_3   0.333333 0.666667 0.749440 -0.280744
N1    N     N_3   0.771520 0.079967 0.058262 -0.602777
H25   H     H_    0.804929 0.020515 0.031243 0.208474
H26   H     H_    0.846099 0.182602 0.053890 0.249069
N2    N     N_3   0.902609 0.679526 0.056161 -0.585534
H27   H     H_    0.977735 0.777520 0.039275 0.200955
H28   H     H_    0.810494 0.662939 0.035252 0.240579
N3    N     N_3   0.318861 0.223619 0.056555 -0.586440
H29   H     H_    0.220711 0.198898 0.038992 0.201112
H30   H     H_    0.337769 0.149274 0.036260 0.240825
N4    N     N_3   0.880775 0.633172 0.906307 -0.609004
H31   H     H_    0.774672 0.585559 0.914596 0.234120
H32   H     H_    0.926260 0.737990 0.918715 0.223726
N5    N     N_3   0.753138 0.118771 0.907158 -0.608113
H33   H     H_    0.845418 0.157022 0.935038 0.225513
H34   H     H_    0.758316 0.202650 0.880011 0.233124
N6    N     N_3   0.367563 0.249133 0.906979 -0.608895
H35   H     H_    0.416913 0.192503 0.915557 0.232125
H36   H     H_    0.262711 0.187968 0.918904 0.223472
O27   O     O_3   0.701706 0.913222 0.561303 -0.588495
C61   C     C_3   0.802372 0.901297 0.599023 -0.106153
H37   H     H_    0.849582 0.978069 0.642603 0.086192
H38   H     H_    0.876919 0.904541 0.560395 0.105094
H39   H     H_    0.753950 0.798633 0.624188 0.169948
O28   O     O_3   0.086631 0.788455 0.561621 -0.588291
C62   C     C_3   0.098550 0.901190 0.599234 -0.106446
H40   H     H_    0.021776 0.871640 0.642753 0.086481
H41   H     H_    0.095175 0.972198 0.560509 0.104947
H42   H     H_    0.201272 0.955760 0.624471 0.169658
O29   O     O_3   0.211561 0.298091 0.561241 -0.588656
C63   C     C_3   0.098952 0.197461 0.598994 -0.106527
H43   H     H_    0.128661 0.150578 0.642572 0.086590
H44   H     H_    0.027629 0.122705 0.560369 0.105234
H45   H     H_    0.044652 0.245811 0.624180 0.169493
O30   O     O_3   0.804820 0.678521 0.446141 -0.551783
C64   C     C_3   0.838882 0.795832 0.404345 -0.093594
H46   H     H_    0.911706 0.810350 0.360588 0.100194
H47   H     H_    0.880461 0.887726 0.438640 0.085705
H48   H     H_    0.745435 0.784414 0.378248 0.132808
O31   O     O_3   0.873910 0.195021 0.446041 -0.551516
C65   C     C_3   0.957113 0.160940 0.404172 -0.093646
H49   H     H_    0.898662 0.088089 0.360385 0.100426
H50   H     H_    0.007359 0.119375 0.438412 0.085742
H51   H     H_    0.039291 0.254345 0.378115 0.132651
O32   O     O_3   0.321427 0.126227 0.445865 -0.551535
C66   C     C_3   0.203812 0.042656 0.404160 -0.093849
H52   H     H_    0.189194 0.100756 0.360374 0.100073
H53   H     H_    0.112089 0.992562 0.438531 0.085640
H54   H     H_    0.214918 0.960426 0.378102 0.132521

loop_
_geom_bond_atom_site_label_1
_geom_bond_atom_site_label_2
_ccdc_geom_bond_type
C45   C60   A    
N4    H31   S    
Cr4   O26   S    
C55   C59   A    
Cr6   O12   S    
C44   C58   A    
C9    C51   S    
Cr5   O11   S    
C10   C52   S    
C18   O24   A    
O29   C63   S    
C17   O23   A    
N3    H29   S    
C5    C20   S    
C48   C54   A    
C6    C19   S    
C10   H22   S    
Cr6   O26   S    
C23   C29   A    
C12   H24   S    
C65   H49   S    
Cr1   O13   S    
C59   H17   S    
N5    H33   S    
N1    H26   S    
C41   H11   S    
N3    H30   S    
C45   C51   A    
C4    O5    A    
C46   C52   A    
C33   C36   A    
C3    O1    A    
C64   H48   S    
C31   N1    S    
C13   O19   A    
C16   O17   A    
C25   C37   S    
Cr2   O8    S    
C62   H40   S    
C14   O15   A    
C27   C39   S    
N6    H35   S    
C6    O4    A    
Cr2   O2    S    
Cr1   O25   S    
Cr3   O9    S    
C64   H46   S    
C39   H9    S    
Cr3   O15   S    
C35   N5    S    
C63   H44   S    
C11   C53   S    
C43   C59   A    
C47   C53   A    
Cr3   O25   S    
O27   C61   S    
C21   C27   A    
Cr1   O19   S    
C22   C28   A    
C27   C30   A    
C37   C41   S    
C64   H47   S    
C32   N2    S    
C61   H39   S    
C66   H54   S    
C66   H53   S    
N2    H28   S    
C66   H52   S    
C39   C42   S    
Cr2   O14   S    
C65   H51   S    
C25   C29   A    
C5    O11   A    
Cr6   O6    S    
C15   O21   A    
C48   C57   A    
O28   C62   S    
C7    C49   S    
C58   H16   S    
C61   H38   S    
C62   H42   S    
C1    O7    A    
C21   C36   A    
C26   C38   S    
C57   C60   A    
C40   H10   S    
C62   H41   S    
C23   C31   A    
C7    C11   S    
C18   O16   A    
C7    O27   S    
C63   H45   S    
C55   H13   S    
C11   H23   S    
C50   C52   A    
Cr2   O20   S    
Cr5   O5    S    
C34   N4    S    
C42   H6    S    
C39   H3    S    
Cr1   O7    S    
C12   O32   S    
C13   O14   A    
C22   C32   A    
C8    C10   S    
C38   H2    S    
C42   H12   S    
C1    O2    A    
C4    O10   A    
Cr5   O26   S    
C31   C35   A    
C17   O18   A    
C12   C54   S    
C8    C50   S    
O31   C65   S    
C5    O6    A    
N2    H27   S    
C16   O22   A    
C47   C55   A    
C63   H43   S    
C38   H8    S    
C44   C50   A    
C14   O20   A    
C37   H7    S    
N4    H32   S    
Cr6   O24   S    
C36   N6    S    
C29   C41   S    
Cr5   O23   S    
C2    O3    A    
C43   C49   A    
Cr6   O18   S    
C61   H37   S    
C16   C45   S    
C13   C48   S    
Cr4   O16   S    
C14   C47   S    
C11   O31   S    
Cr3   O3    S    
C40   H4    S    
C26   C28   A    
C24   C33   A    
C56   H14   S    
C41   H5    S    
C8    O28   S    
C51   C54   A    
O32   C66   S    
C65   H50   S    
C17   C44   S    
C20   C34   A    
Cr2   O25   S    
C19   C35   A    
C18   C43   S    
C10   O30   S    
C38   C40   S    
C4    C21   S    
C60   H18   S    
C8    H20   S    
C7    H19   S    
C20   C26   A    
C49   C53   A    
C37   H1    S    
C9    O29   S    
C56   C58   A    
C57   H15   S    
C6    O12   A    
Cr3   O21   S    
C19   C25   A    
C9    C12   S    
C24   C30   A    
Cr4   O22   S    
Cr4   O4    S    
C3    O9    A    
Cr4   O10   S    
C2    O8    A    
C1    C24   S    
N6    H36   S    
C46   C56   A    
C2    C23   S    
C33   N3    S    
C28   C40   S    
O30   C64   S    
C30   C42   S    
C3    C22   S    
C15   C46   S    
C15   O13   A    
N1    H25   S    
Cr5   O17   S    
C9    H21   S    
Cr1   O1    S    
C32   C34   A    
N5    H34   S    
