data_mof_unit_25051.cif
_audit_creation_date              2012-12-11T16:58:18-0500
_audit_creation_method            fapswitch 2.2
_symmetry_space_group_name_H-M    P1
_symmetry_Int_Tables_number       1
_space_group_crystal_system       triclinic
_cell_length_a                    16.89509
_cell_length_b                    7.245988
_cell_length_c                    16.869881
_cell_angle_alpha                 89.987408
_cell_angle_beta                  100.41464
_cell_angle_gamma                 89.979765
_cell_volume                      2031.21378813

loop_
_atom_site_label
_atom_site_type_symbol
_atom_type_description
_atom_site_fract_x
_atom_site_fract_y
_atom_site_fract_z
_atom_type_partial_charge
O1    O     O_R   0.413450 0.494370 0.415710 -0.534938
O2    O     O_R   0.586550 0.994370 0.584290 -0.533524
O3    O     O_R   0.578420 0.819350 0.429360 -0.537304
O4    O     O_R   0.421580 0.319350 0.570640 -0.536834
C1    C     C_R   0.604942 0.653986 0.413908 0.715967
C2    C     C_R   0.395075 0.154001 0.586118 0.715526
O5    O     O_R   0.413570 0.823780 0.406240 -0.544503
O6    O     O_R   0.586430 0.323780 0.593760 -0.544509
O7    O     O_R   0.420530 0.998740 0.561000 -0.537457
O8    O     O_R   0.579470 0.498740 0.439000 -0.537282
C3    C     C_R   0.386117 0.655380 0.383593 0.691888
C4    C     C_R   0.613661 0.155136 0.616672 0.690852
O9    O     O_3   0.502480 0.662320 0.550800 -0.375370
O10   O     O_3   0.497520 0.162320 0.449200 -0.376975
V1    V     V_3+5 0.499540 0.935370 0.490580 1.430568
V2    V     V_3+5 0.500460 0.435370 0.509420 1.432267
C5    C     C_R   0.718078 0.975447 0.711410 0.124468
C6    C     C_R   0.304865 0.489341 0.264474 0.131586
C7    C     C_R   0.679543 0.143545 0.688066 -0.103838
C8    C     C_R   0.319305 0.647066 0.313044 -0.106634
C9    C     C_R   0.703924 0.298299 0.737260 -0.172620
C10   C     C_R   0.268847 0.800431 0.290529 -0.172227
C11   C     C_R   0.769790 0.286928 0.801797 -0.161187
C12   C     C_R   0.202689 0.788766 0.226379 -0.164735
H1    H     H_    0.787642 0.410185 0.836713 0.135965
H2    H     H_    0.163477 0.907160 0.213417 0.142386
C13   C     C_R   0.813388 0.120545 0.819048 -0.102286
C14   C     C_R   0.184607 0.622935 0.182861 -0.104281
C15   C     C_R   0.782960 0.964132 0.775061 0.104592
C16   C     C_R   0.239566 0.477672 0.201197 0.122319
C17   C     C_3   0.825039 0.825156 0.732180 -0.397204
C18   C     C_3   0.226093 0.279140 0.217594 -0.428458
C19   C     C_3   0.754113 0.837464 0.662608 -0.402281
C20   C     C_3   0.297477 0.291891 0.286712 -0.406143
H3    H     H_    0.829970 0.688807 0.762810 0.175298
H4    H     H_    0.237669 0.188902 0.167641 0.180331
H5    H     H_    0.718241 0.708250 0.653208 0.171731
H6    H     H_    0.350081 0.208894 0.276536 0.185710
C21   C     C_R   0.332456 0.132867 0.637357 -0.109379
C22   C     C_R   0.667564 0.632809 0.362687 -0.110668
C23   C     C_R   0.167001 0.136491 0.862802 -0.106180
C24   C     C_R   0.833029 0.636583 0.137255 -0.106522
C25   C     C_R   0.271564 0.330395 0.822392 0.182874
C26   C     C_R   0.728558 0.830748 0.177777 0.182993
C27   C     C_R   0.218228 0.290891 0.874458 -0.153432
C28   C     C_R   0.781893 0.791258 0.125707 -0.153099
C29   C     C_R   0.171462 0.017526 0.798269 -0.168855
C30   C     C_R   0.828479 0.517353 0.201703 -0.166953
C31   C     C_R   0.224500 0.055135 0.744128 0.089997
C32   C     C_R   0.775475 0.555002 0.255879 0.089908
C33   C     C_R   0.274929 0.214225 0.755982 0.089668
C34   C     C_R   0.725137 0.714352 0.244119 0.089823
C35   C     C_R   0.327879 0.252001 0.701785 -0.165822
C36   C     C_R   0.672214 0.752160 0.298336 -0.167536
C37   C     C_R   0.281469 0.978089 0.625834 -0.156344
C38   C     C_R   0.718471 0.477798 0.374135 -0.155885
C39   C     C_R   0.227994 0.938762 0.677799 0.183490
C40   C     C_R   0.771918 0.438414 0.322149 0.183719
H7    H     H_    0.283800 0.884638 0.576187 0.147838
H8    H     H_    0.716090 0.384186 0.423732 0.147811
H9    H     H_    0.216165 0.384085 0.924250 0.149415
H10   H     H_    0.784010 0.884664 0.075985 0.150145
H11   H     H_    0.131386 0.900166 0.789324 0.164357
H12   H     H_    0.868453 0.399735 0.210559 0.165526
O11   O     O_R   0.920630 0.775410 0.061150 -0.535630
O12   O     O_R   0.079370 0.275410 0.938850 -0.534921
O13   O     O_R   0.086500 0.441450 0.093690 -0.540110
O14   O     O_R   0.913500 0.941450 0.906310 -0.539968
C41   C     C_R   0.114020 0.610221 0.116236 0.691142
C42   C     C_R   0.885454 0.110148 0.884245 0.689808
O15   O     O_R   0.921670 0.445960 0.070740 -0.536195
O16   O     O_R   0.078330 0.945960 0.929260 -0.535751
O17   O     O_R   0.913380 0.271130 0.915780 -0.537986
O18   O     O_R   0.086620 0.771130 0.084220 -0.538079
C43   C     C_R   0.895709 0.615615 0.086003 0.703802
C44   C     C_R   0.104298 0.115591 0.914016 0.704434
O19   O     O_3   0.997500 0.603030 0.949220 -0.375194
O20   O     O_3   0.002500 0.103030 0.050780 -0.376332
V3    V     V_3+5 0.000470 0.329940 0.009420 1.435292
V4    V     V_3+5 0.999530 0.829940 0.990580 1.435771
H13   H     H_    0.673696 0.429650 0.724808 0.139238
H14   H     H_    0.277819 0.926355 0.325248 0.142648
I1    I     I_    0.156384 0.697212 0.651518 -0.408834
I2    I     I_    0.843363 0.196440 0.348331 -0.410882
H15   H     H_    0.882145 0.878720 0.716977 0.186853
H16   H     H_    0.167926 0.254712 0.237927 0.183077
H17   H     H_    0.770042 0.898189 0.607007 0.183715
H18   H     H_    0.280584 0.274705 0.347023 0.175011
H19   H     H_    0.367840 0.369574 0.710624 0.165165
H20   H     H_    0.632330 0.869946 0.289575 0.165098
I3    I     I_    0.343197 0.571895 0.848714 -0.398840
I4    I     I_    0.656971 0.072515 0.151546 -0.400086

loop_
_geom_bond_atom_site_label_1
_geom_bond_atom_site_label_2
_ccdc_geom_bond_type
O14   V4    S    
C16   C18   S    
C17   H15   S    
C37   H7    S    
C13   C15   A    
C5    C15   A    
C14   C41   S    
O1    C3    A    
O16   C44   A    
O2    C4    A    
C2    O7    A    
O15   V3    S    
C29   C31   A    
O5    C3    A    
O12   V3    S    
C24   C43   S    
C28   H10   S    
C18   H4    S    
C7    C9    A    
C12   H2    S    
C36   H20   S    
C29   H11   S    
C30   H12   S    
C31   C39   A    
C24   C28   A    
C27   H9    S    
C17   H3    S    
C21   C37   A    
C26   C28   A    
C31   C33   A    
C32   C34   A    
C17   C19   S    
C6    C16   A    
C11   C13   A    
C26   I4    S    
C26   C34   A    
C30   C32   A    
O12   C44   A    
O6    V2    S    
O11   V4    S    
O18   V4    S    
C5    C19   S    
C34   C36   A    
C9    C11   A    
C23   C29   A    
C3    C8    S    
C32   C40   A    
O13   V3    S    
O4    C2    A    
O20   V3    S    
C20   H18   S    
C22   C38   A    
C19   H5    S    
C38   H8    S    
C33   C35   A    
C18   C20   S    
O4    V2    S    
C40   I2    S    
C25   C27   A    
O10   V1    S    
O6    C4    A    
C18   H16   S    
C42   O17   A    
C39   I1    S    
O17   V3    S    
C41   O18   A    
O1    V2    S    
C24   C30   A    
O2    V1    S    
C6    C20   S    
C13   C42   S    
O14   C42   A    
C9    H13   S    
C22   C36   A    
C37   C39   A    
C35   H19   S    
C10   C12   A    
O9    V2    S    
C10   H14   S    
O3    V1    S    
O19   V4    S    
C20   H6    S    
C12   C14   A    
C8    C10   A    
O3    C1    A    
O11   C43   A    
C14   C16   A    
C19   H17   S    
C1    O8    A    
C15   C17   S    
O8    V2    S    
C23   C44   S    
O15   C43   A    
C25   C33   A    
C21   C35   A    
C4    C7    S    
O5    V1    S    
C5    C7    A    
C38   C40   A    
C6    C8    A    
C11   H1    S    
O7    V1    S    
C25   I3    S    
O16   V4    S    
C1    C22   S    
C23   C27   A    
C2    C21   S    
O13   C41   A    
