data_mof_unit_12869.cif
_audit_creation_date              2012-12-10T17:25:35-0500
_audit_creation_method            fapswitch 2.2
_symmetry_space_group_name_H-M    P1
_symmetry_Int_Tables_number       1
_space_group_crystal_system       triclinic
_cell_length_a                    10.22815
_cell_length_b                    10.815553
_cell_length_c                    23.528852
_cell_angle_alpha                 90.992981
_cell_angle_beta                  80.432208
_cell_angle_gamma                 95.628933
_cell_volume                      2554.25042516

loop_
_atom_site_label
_atom_site_type_symbol
_atom_type_description
_atom_site_fract_x
_atom_site_fract_y
_atom_site_fract_z
_atom_type_partial_charge
C1    C     C_R   0.556385 0.731968 0.494673 0.947351
C2    C     C_R   0.401286 0.437581 0.300833 0.029064
C3    C     C_R   0.425838 0.551843 0.772889 -0.224117
C4    C     C_R   0.414003 0.438025 0.240970 -0.221263
C5    C     C_R   0.518911 0.483073 0.791321 0.113530
C6    C     C_R   0.529406 0.491475 0.206704 0.113909
C7    C     C_2   0.589863 0.863762 0.494800 -0.470864
C8    C     C_2   0.411066 0.135894 0.503211 -0.482841
C9    C     C_2   0.498574 0.938272 0.485708 0.434294
C10   C     C_2   0.502973 0.061305 0.511386 0.426842
C11   C     C_2   0.929112 0.517640 0.500599 0.540389
C12   C     C_R   0.443696 0.267861 0.505099 0.933406
C13   C     C_2   0.070688 0.482258 0.499469 0.547006
C14   C     C_R   0.499649 0.499573 0.610870 0.929030
C15   C     C_R   0.500774 0.499419 0.389464 0.932061
C16   C     C_R   0.529015 0.379522 0.117581 0.497518
C17   C     C_R   0.559507 0.591487 0.877493 0.498897
C18   C     C_R   0.545675 0.601276 0.117088 0.564274
C19   C     C_R   0.500141 0.372305 0.881016 0.564570
C20   C     C_R   0.558774 0.603637 0.056398 -0.068830
C21   C     C_R   0.514543 0.368048 0.939674 -0.071710
C22   C     C_R   0.542275 0.487710 0.027575 -0.053762
C23   C     C_R   0.605770 0.419085 0.751421 0.496350
C24   C     C_R   0.539836 0.483386 0.967870 -0.054097
C25   C     C_R   0.526994 0.375702 0.058519 -0.044333
C26   C     C_R   0.561724 0.595053 0.936481 -0.043416
C27   C     C_R   0.585823 0.715502 0.023369 0.157610
C28   C     C_R   0.503797 0.255164 0.971501 0.161493
C29   C     C_R   0.586742 0.708452 0.963969 -0.196929
C30   C     C_R   0.510796 0.261723 0.030331 -0.195955
C31   C     C_3   0.621108 0.843543 0.047628 -0.363683
C32   C     C_3   0.760120 0.854682 0.064202 -0.750662
C33   C     C_3   0.491217 0.125605 0.945489 -0.365022
C34   C     C_R   0.635918 0.547542 0.231923 0.499036
C35   C     C_3   0.621920 0.095708 0.908480 -0.763677
C36   C     C_3   0.178352 0.728151 0.572785 -0.127653
C37   C     C_3   0.816954 0.281712 0.420226 -0.130608
C38   C     C_3   0.801348 0.420916 0.786924 -0.338946
C39   C     C_3   0.827454 0.517338 0.169942 -0.345053
C40   C     C_3   0.802105 0.391619 0.643013 -0.158752
C41   C     C_3   0.834633 0.563959 0.313490 -0.164474
C42   C     C_3   0.328216 0.654240 0.698950 -0.344827
C43   C     C_3   0.409696 0.772329 0.673562 -0.875420
C44   C     C_3   0.277088 0.368295 0.334425 -0.296856
C45   C     C_R   0.594722 0.421541 0.692819 0.347744
C46   C     C_3   0.307887 0.247016 0.359382 -0.784869
C47   C     C_3   0.570422 0.086860 0.598314 -0.236749
C48   C     C_3   0.433634 0.898343 0.398876 -0.297198
C49   C     C_3   0.066114 0.273852 0.507865 -0.286463
C50   C     C_3   0.933786 0.724699 0.488795 -0.262752
C51   C     C_R   0.622596 0.553955 0.292144 0.355309
C52   C     C_R   0.501755 0.494055 0.673609 -0.250134
C53   C     C_R   0.505855 0.498316 0.326823 -0.255193
C54   C     C_R   0.418523 0.562259 0.714593 0.075834
H1    H     H_    0.607047 0.793173 0.938806 0.183321
H2    H     H_    0.621875 0.916943 0.015067 0.175488
H3    H     H_    0.544396 0.868215 0.083918 0.253633
H4    H     H_    0.655993 0.164798 0.873569 0.303228
H5    H     H_    0.700709 0.094930 0.935738 0.230956
H6    H     H_    0.607902 0.002487 0.888648 0.257571
H7    H     H_    0.465967 0.053831 0.979860 0.166980
H8    H     H_    0.406696 0.112405 0.921364 0.253574
H9    H     H_    0.198054 0.777207 0.530777 0.187069
H10   H     H_    0.272196 0.716107 0.587806 0.198281
H11   H     H_    0.121513 0.788146 0.604534 0.138780
H12   H     H_    0.502817 0.176201 0.054557 0.184511
H13   H     H_    0.875721 0.222570 0.388744 0.131942
H14   H     H_    0.729348 0.301505 0.401309 0.175353
H15   H     H_    0.787883 0.226890 0.460551 0.194983
H16   H     H_    0.776706 0.447393 0.832910 0.179221
H17   H     H_    0.832659 0.505600 0.759773 0.148018
H18   H     H_    0.888556 0.366087 0.782993 0.190581
H19   H     H_    0.791565 0.485512 0.129697 0.181208
H20   H     H_    0.833040 0.436134 0.197709 0.142643
H21   H     H_    0.930461 0.561740 0.157364 0.192257
H22   H     H_    0.817833 0.495147 0.643889 0.169029
H23   H     H_    0.361779 0.601620 0.804832 0.177608
H24   H     H_    0.844250 0.361545 0.599176 0.150496
H25   H     H_    0.858844 0.350936 0.673066 0.174519
H26   H     H_    0.816072 0.460568 0.313842 0.131997
H27   H     H_    0.883414 0.590969 0.351182 0.185079
H28   H     H_    0.905683 0.595401 0.274419 0.178792
H29   H     H_    0.473303 0.813518 0.704336 0.284409
H30   H     H_    0.474308 0.752367 0.632346 0.242866
H31   H     H_    0.341680 0.841642 0.665527 0.228999
H32   H     H_    0.261341 0.611254 0.670270 0.231691
H33   H     H_    0.259735 0.682345 0.737782 0.196830
H34   H     H_    0.334068 0.395023 0.220164 0.174975
H35   H     H_    0.352783 0.186695 0.324239 0.246368
H36   H     H_    0.377673 0.264780 0.390543 0.237138
H37   H     H_    0.214330 0.196805 0.381949 0.254660
H38   H     H_    0.228091 0.428151 0.368419 0.262582
H39   H     H_    0.201544 0.343959 0.306064 0.184542
H40   H     H_    0.658600 0.109988 0.619620 0.230290
H41   H     H_    0.533243 0.988650 0.609209 0.132446
H42   H     H_    0.493601 0.149807 0.615826 0.185094
H43   H     H_    0.472436 0.993997 0.383677 0.153119
H44   H     H_    0.346758 0.868887 0.377537 0.191550
H45   H     H_    0.321542 0.101529 0.486482 0.160349
H46   H     H_    0.509974 0.832337 0.385412 0.187957
H47   H     H_    0.104182 0.189186 0.486672 0.181081
H48   H     H_    0.955935 0.257580 0.516446 0.144962
H49   H     H_    0.103499 0.285497 0.549655 0.161323
H50   H     H_    0.043168 0.732908 0.474197 0.129552
H51   H     H_    0.907629 0.812829 0.510564 0.180975
H52   H     H_    0.885280 0.714326 0.449829 0.173218
H53   H     H_    0.679861 0.898561 0.511082 0.159558
H54   H     H_    0.768931 0.783897 0.096530 0.300803
H55   H     H_    0.835965 0.842675 0.025351 0.233007
H56   H     H_    0.781472 0.948268 0.082620 0.247585
N1    N     N_R   0.535889 0.490851 0.145539 -0.326965
N2    N     N_R   0.526670 0.481910 0.851419 -0.326046
N3    N     N_2   0.842710 0.448880 0.476480 0.022623
N4    N     N_2   0.157290 0.551120 0.523520 0.026711
O1    O     O_R   0.431060 0.692470 0.504730 -0.595444
O2    O     O_2   0.589698 0.696902 0.846090 -0.576829
O3    O     O_2   0.539010 0.706847 0.148183 -0.548344
O4    O     O_2   0.457544 0.269820 0.853471 -0.550104
O5    O     O_3   0.102919 0.613398 0.570427 -0.579500
O6    O     O_3   0.897643 0.391068 0.428196 -0.586890
O7    O     O_3   0.694432 0.345192 0.769383 -0.571515
O8    O     O_3   0.748208 0.606823 0.198568 -0.569667
O9    O     O_3   0.666602 0.344379 0.654583 -0.599075
O10   O     O_3   0.717388 0.625046 0.317763 -0.591215
O11   O     O_3   0.609884 0.103465 0.538441 -0.634271
O12   O     O_R   0.568940 0.307530 0.495270 -0.585146
O13   O     O_3   0.391153 0.895653 0.459034 -0.635645
O14   O     O_3   0.110791 0.376309 0.470847 -0.593898
O15   O     O_3   0.890176 0.625363 0.527875 -0.588549
O16   O     O_R   0.651120 0.659650 0.489640 -0.593164
O17   O     O_R   0.348880 0.340350 0.510360 -0.598098
O18   O     O_R   0.389950 0.516450 0.591390 -0.634903
O19   O     O_R   0.610050 0.483550 0.408610 -0.607444
O20   O     O_R   0.610020 0.483630 0.576300 -0.556743
O21   O     O_R   0.389980 0.516370 0.423700 -0.606904
O22   O     O_2   0.523524 0.272770 0.147216 -0.572499
Zn1   Zn    Zn3+2 0.353060 0.521920 0.510080 0.990777
Zn2   Zn    Zn3+2 0.646940 0.478080 0.489920 1.015291

loop_
_geom_bond_atom_site_label_1
_geom_bond_atom_site_label_2
_ccdc_geom_bond_type
C38   H16   S    
C50   H50   S    
C23   C45   A    
C12   O17   A    
C37   H15   S    
C27   C29   A    
C43   H29   S    
C6    N1    S    
C41   H26   S    
C23   O7    S    
C46   H35   S    
C14   O18   A    
C19   N2    A    
C45   O9    S    
C48   H43   S    
C34   C51   A    
C9    O13   S    
C39   O8    S    
C32   H56   S    
C35   H4    S    
C17   C26   A    
C15   C53   S    
C41   O10   S    
C19   C21   A    
C8    H45   S    
C24   C26   A    
C49   H47   S    
C3    C54   A    
N4    Zn1   S    
C15   O21   A    
C37   H14   S    
C25   C30   A    
C35   H5    S    
C39   H20   S    
C40   O9    S    
C36   O5    S    
C44   H39   S    
C13   O14   S    
C14   C52   S    
O1    Zn1   S    
C19   O4    S    
C44   C46   S    
C33   H8    S    
C22   C25   A    
C50   H51   S    
C14   O20   A    
C47   H42   S    
C42   H32   S    
C39   H21   S    
C31   H2    S    
C10   O11   S    
C9    C10   S    
C51   O10   S    
N4    O5    S    
C44   H38   S    
C36   H9    S    
O19   Zn2   S    
C34   O8    S    
O21   Zn1   S    
C7    H53   S    
C43   H30   S    
C11   O15   S    
C52   C54   A    
C47   O11   S    
C48   H46   S    
C38   H18   S    
C32   H55   S    
C27   C31   S    
C43   H31   S    
C16   O22   S    
C18   N1    A    
C4    C6    A    
C1    O16   A    
C2    C44   S    
C49   H48   S    
C36   H11   S    
C46   H37   S    
C29   H1    S    
C45   C52   A    
O18   Zn1   S    
C6    C34   A    
C35   H6    S    
C51   C53   A    
C2    C4    A    
O20   Zn2   S    
O17   Zn1   S    
C50   O15   S    
N3    O6    S    
C31   C32   S    
C5    C23   A    
C8    C12   S    
C41   H27   S    
C40   H25   S    
C18   O3    S    
C30   H12   S    
C46   H36   S    
C40   H24   S    
C33   H7    S    
C20   C27   A    
C21   C28   A    
C20   C22   A    
C28   C33   S    
C22   C24   A    
C42   C43   S    
C3    H23   S    
C17   N2    A    
C16   C25   A    
C7    C9    D    
C49   O14   S    
C38   H17   S    
O12   Zn2   S    
C1    C7    S    
C13   N4    D    
C3    C5    A    
C2    C53   A    
C49   H49   S    
C4    H34   S    
C5    N2    S    
C48   H44   S    
C15   O19   A    
C31   H3    S    
C28   C30   A    
C42   C54   S    
C48   O13   S    
C11   C13   S    
C37   O6    S    
C41   H28   S    
C37   H13   S    
C33   C35   S    
C47   H40   S    
C18   C20   A    
C39   H19   S    
C11   N3    D    
C38   O7    S    
C40   H22   S    
C12   O12   A    
C17   O2    S    
C26   C29   A    
C8    C10   D    
C32   H54   S    
C21   C24   A    
C50   H52   S    
C47   H41   S    
N3    Zn2   S    
C42   H33   S    
C1    O1    A    
C36   H10   S    
C16   N1    A    
O16   Zn2   S    
