data_mof_unit_49009.cif
_audit_creation_date              2012-12-11T20:22:06-0500
_audit_creation_method            fapswitch 2.2
_symmetry_space_group_name_H-M    P1
_symmetry_Int_Tables_number       1
_space_group_crystal_system       triclinic
_cell_length_a                    8.221151
_cell_length_b                    17.418585
_cell_length_c                    26.989781
_cell_angle_alpha                 99.634067
_cell_angle_beta                  92.830223
_cell_angle_gamma                 81.463414
_cell_volume                      3767.04186917

loop_
_atom_site_label
_atom_site_type_symbol
_atom_type_description
_atom_site_fract_x
_atom_site_fract_y
_atom_site_fract_z
_atom_type_partial_charge
Ba1   Ba    Ba6+2 0.860160 0.462360 0.521850 1.682511
Ba2   Ba    Ba6+2 0.329680 0.537570 0.478140 1.674279
C1    C     C_3   0.654545 0.186660 0.654136 -0.337720
C2    C     C_3   0.633389 0.265505 0.635693 0.356759
C3    C     C_3   0.494583 0.655254 0.633583 0.316448
C4    C     C_3   0.500431 0.676670 0.690607 -0.299784
C5    C     C_3   0.002060 0.716743 0.347237 0.343283
C6    C     C_3   0.013825 0.740372 0.295887 -0.350963
C7    C     C_3   0.466840 0.747689 0.366779 0.375601
C8    C     C_3   0.419333 0.821638 0.343273 -0.362538
C9    C     C_R   0.099751 0.493527 0.190407 0.589606
C10   C     C_R   0.812197 0.516323 0.169318 0.583673
C11   C     C_2   0.777317 0.573824 0.279691 -0.086939
C12   C     C_3   0.177264 0.242335 0.645722 0.316192
C13   C     C_3   0.745560 0.588347 0.335456 -0.096064
C14   C     C_1   0.976073 0.483433 0.343167 0.018870
C15   C     C_2   0.998875 0.468351 0.293912 -0.088356
C16   C     C_2   0.899403 0.517809 0.259203 0.203148
C17   C     C_R   0.012166 0.496788 0.102726 -0.076516
C18   C     C_R   0.137934 0.483716 0.138919 -0.043643
C19   C     C_R   0.300156 0.461987 0.123059 -0.039745
C20   C     C_R   0.848571 0.515228 0.118432 -0.029764
C21   C     C_2   0.850529 0.532047 0.364208 -0.261124
C22   C     C_2   0.348006 0.476448 0.640461 -0.281490
C23   C     C_3   0.108767 0.222112 0.692466 -0.323698
C24   C     C_R   0.252665 0.461985 0.983365 -0.002891
C25   C     C_R   0.961996 0.507667 0.963929 0.047221
C26   C     C_R   0.127046 0.483635 0.948265 0.056726
C27   C     C_R   0.411620 0.432321 0.964986 -0.091770
C28   C     C_R   0.451540 0.430458 0.914788 -0.032549
C29   C     C_R   0.330750 0.461540 0.881326 -0.088222
C30   C     C_R   0.166981 0.481549 0.896965 -0.060420
C31   C     C_R   0.043097 0.499812 0.861169 -0.040988
C32   C     C_R   0.083231 0.493864 0.810036 0.603943
C33   C     C_R   0.368439 0.475561 0.833139 0.560972
C34   C     C_3   0.219845 0.298906 0.412229 0.314669
C35   C     C_2   0.439201 0.450688 0.724792 -0.099713
C36   C     C_3   0.492806 0.471640 0.676644 -0.050383
C37   C     C_1   0.209519 0.517865 0.658409 0.037940
C38   C     C_2   0.174658 0.527280 0.707220 -0.062596
C39   C     C_2   0.290323 0.486032 0.743515 0.190724
C40   C     C_R   0.215090 0.468353 0.035227 0.021097
C41   C     C_R   0.050090 0.491674 0.050878 0.053370
C42   C     C_R   0.922621 0.509771 0.015291 0.041529
C43   C     C_R   0.337611 0.453221 0.072505 -0.109998
C44   C     C_R   0.724003 0.532034 0.082931 -0.080164
C45   C     C_3   0.247212 0.209839 0.397690 -0.374829
C46   C     C_R   0.842038 0.529040 0.927309 -0.054737
C47   C     C_R   0.881289 0.523493 0.877070 -0.048034
C48   C     C_R   0.759641 0.529625 0.032694 -0.081312
C49   C     C_2   0.449474 0.279887 0.515606 -0.249280
C50   C     C_3   0.377786 0.228931 0.546525 -0.071663
C51   C     C_2   0.425213 0.142594 0.528815 -0.107211
C52   C     C_2   0.553725 0.116243 0.498128 0.014172
C53   C     C_2   0.634097 0.174566 0.476805 -0.120345
C54   C     C_1   0.574273 0.250403 0.485640 0.057896
C55   C     C_R   0.792544 0.863080 0.474156 -0.110240
C56   C     C_3   0.974764 0.704839 0.590090 0.212490
C57   C     C_R   0.849783 0.782529 0.467329 0.007419
C58   C     C_R   0.620802 0.760146 0.513509 0.033611
C59   C     C_R   0.563528 0.840625 0.520824 -0.064040
C60   C     C_R   0.647401 0.892580 0.500702 0.007399
C61   C     C_2   0.615484 0.030944 0.484568 -0.079688
C62   C     C_2   0.589264 0.977682 0.513115 -0.049638
C63   C     C_R   0.760108 0.731052 0.485124 -0.302411
C64   C     C_3   0.971333 0.794602 0.603731 0.223032
C65   C     C_3   0.690326 0.364614 0.369067 0.304855
C66   C     C_3   0.682497 0.347128 0.311949 -0.362533
H1    H     H_    0.682123 0.255496 0.597098 0.066383
H2    H     H_    0.336480 0.192157 0.366856 0.116487
H3    H     H_    0.296201 0.182051 0.430406 0.076354
H4    H     H_    0.128866 0.188496 0.385011 0.132977
H5    H     H_    0.848838 0.691330 0.581908 0.024449
H6    H     H_    0.048567 0.683858 0.555827 0.009156
H7    H     H_    0.921330 0.821740 0.570787 -0.006995
H8    H     H_    0.814098 0.378364 0.381542 -0.001831
H9    H     H_    0.596850 0.416233 0.381486 0.078974
H10   H     H_    0.786737 0.161703 0.654986 0.145253
H11   H     H_    0.781193 0.298617 0.298061 0.112606
H12   H     H_    0.698816 0.400231 0.296150 0.083074
H13   H     H_    0.560895 0.329823 0.298868 0.142908
H14   H     H_    0.500464 0.289485 0.635647 -0.112696
H15   H     H_    0.587506 0.144697 0.628432 0.077076
H16   H     H_    0.367462 0.645653 0.621330 -0.021679
H17   H     H_    0.580794 0.600110 0.622731 0.032306
H18   H     H_    0.425264 0.734660 0.702622 0.144030
H19   H     H_    0.450905 0.631945 0.707989 0.036657
H20   H     H_    0.629453 0.679457 0.704174 0.167621
H21   H     H_    0.605184 0.194218 0.692489 0.114065
H22   H     H_    0.200709 0.228175 0.723920 0.068186
H23   H     H_    0.055645 0.653813 0.345103 0.066337
H24   H     H_    0.870219 0.725404 0.356450 -0.058051
H25   H     H_    0.143461 0.729483 0.283893 0.160577
H26   H     H_    0.940101 0.705316 0.267605 0.065602
H27   H     H_    0.965686 0.803735 0.297374 0.107053
H28   H     H_    0.602514 0.739925 0.372218 -0.095018
H29   H     H_    0.410924 0.756626 0.404277 0.086962
H30   H     H_    0.464853 0.872283 0.367779 0.068428
H31   H     H_    0.283818 0.834958 0.338847 0.149407
H32   H     H_    0.197242 0.305163 0.653613 0.009761
H33   H     H_    0.475446 0.813553 0.305821 0.108591
H34   H     H_    0.081825 0.416492 0.278202 0.103845
H35   H     H_    0.399740 0.450551 0.149825 0.165254
H36   H     H_    0.525202 0.412896 0.744959 0.135792
H37   H     H_    0.506515 0.406813 0.988629 0.122219
H38   H     H_    0.465628 0.435902 0.064254 0.075182
H39   H     H_    0.708974 0.614712 0.257415 0.114341
H40   H     H_    0.597406 0.548826 0.094160 0.115164
H41   H     H_    0.715255 0.550131 0.936006 0.073382
H42   H     H_    0.296218 0.203471 0.638323 -0.019192
H43   H     H_    0.784235 0.540106 0.850701 0.167257
H44   H     H_    0.072840 0.571148 0.721498 0.126090
H45   H     H_    0.655263 0.543101 0.008395 0.069978
H46   H     H_    0.825107 0.536339 0.403714 0.079000
H47   H     H_    0.345230 0.432528 0.606906 0.060706
H48   H     H_    0.521216 0.996213 0.547468 0.098976
H49   H     H_    0.739829 0.154014 0.453049 0.082302
H50   H     H_    0.866134 0.902315 0.461515 0.078406
H51   H     H_    0.686295 0.012276 0.450689 0.069515
H52   H     H_    0.357600 0.102905 0.543555 0.076540
H53   H     H_    0.995060 0.262699 0.703752 0.168240
H54   H     H_    0.456968 0.863145 0.543563 0.150885
H55   H     H_    0.411287 0.342893 0.523968 0.070734
H56   H     H_    0.806252 0.668874 0.480623 0.066937
H57   H     H_    0.081881 0.160544 0.685258 0.132326
H58   H     H_    0.339013 0.319688 0.422657 -0.001988
H59   H     H_    0.137562 0.314752 0.444800 0.086639
N1    N     N_R   0.937363 0.508452 0.205572 -0.426351
N2    N     N_R   0.246440 0.484326 0.795904 -0.413259
O1    O     O_2   0.906370 0.542040 0.619810 -0.455010
O2    O     O_3   0.659977 0.298266 0.388154 -0.634551
O3    O     O_3   0.067469 0.228995 0.604567 -0.566144
O4    O     O_2   0.283330 0.457940 0.380160 -0.453179
O5    O     O_3   0.051340 0.457960 0.440360 -0.501018
O6    O     O_3   0.503130 0.601610 0.416130 -0.486898
O7    O     O_3   0.149920 0.331783 0.370958 -0.635829
O8    O     O_3   0.616890 0.595000 0.528820 -0.492874
O9    O     O_3   0.087820 0.642040 0.442240 -0.488285
O10   O     O_2   0.186830 0.780362 0.477225 -0.465876
O11   O     O_3   0.088692 0.764019 0.383144 -0.601494
O12   O     O_3   0.138370 0.541980 0.559630 -0.489660
O13   O     O_3   0.572820 0.404940 0.471170 -0.498703
O14   O     O_2   0.345130 0.693150 0.532000 -0.466829
O15   O     O_3   0.540119 0.717255 0.612718 -0.570294
O16   O     O_2   0.438081 0.528403 0.323769 -0.432156
O17   O     O_3   0.410772 0.682989 0.335537 -0.580457
O18   O     O_2   0.212044 0.490106 0.221699 -0.564474
O19   O     O_2   0.508669 0.485022 0.825725 -0.627273
O20   O     O_2   0.668505 0.523237 0.181051 -0.597233
O21   O     O_2   0.972065 0.496896 0.778428 -0.575907
O22   O     O_3   0.686580 0.398330 0.583860 -0.487789
O23   O     O_2   0.837189 0.445941 0.670333 -0.418961
O24   O     O_3   0.041254 0.668227 0.630403 -0.625178
O25   O     O_3   0.721699 0.316943 0.667862 -0.593822
O26   O     O_2   0.844570 0.306830 0.467970 -0.456741
O27   O     O_3   0.101900 0.357890 0.557750 -0.477003
O28   O     O_2   0.058854 0.217682 0.506197 -0.480146
P1    P     P_3+3 0.071770 0.565500 0.613330 1.014937
P2    P     P_3+3 0.664870 0.318630 0.453960 0.980061
P3    P     P_3+3 0.151196 0.256400 0.552834 0.968503
P4    P     P_3+3 0.117940 0.434440 0.386660 0.991082
P5    P     P_3+3 0.053818 0.743429 0.442628 0.956734
P6    P     P_3+3 0.682324 0.409608 0.649439 1.009057
P7    P     P_3+3 0.531816 0.693589 0.547132 1.003577
P8    P     P_3+3 0.524200 0.597167 0.351578 0.994334
S1    S     S_3+6 0.840897 0.837910 0.655488 -0.063162
O29   O     O_2   0.667296 0.856350 0.636298 -0.286212
O30   O     O_2   0.846088 0.783160 0.693250 -0.277315
O31   O     O_3   0.904931 0.922262 0.683670 -0.511809
H60   H     H_    0.823476 0.944820 0.709946 0.366083
C67   C     C_2   0.141426 0.814889 0.615871 0.607850
H61   H     H_    0.213330 0.792583 0.646493 0.016959
O32   O     O_2   0.198633 0.857834 0.592085 -0.577843
C68   C     C_2   0.613713 0.386961 0.896926 0.504712
H62   H     H_    0.636356 0.369385 0.857145 0.054195
O33   O     O_2   0.723176 0.367694 0.926582 -0.587324

loop_
_geom_bond_atom_site_label_1
_geom_bond_atom_site_label_2
_ccdc_geom_bond_type
C25   C46   A    
C50   P3    S    
C2    O25   S    
C67   H61   S    
C66   H12   S    
C62   H48   S    
C49   H55   S    
O31   H60   S    
C17   C18   A    
C65   H9    S    
O13   P2    S    
C11   H39   S    
C32   O21   D    
C51   H52   S    
C5    C6    S    
C38   H44   S    
C12   O3    S    
C51   C52   D    
C43   H38   S    
C67   O32   D    
C24   C40   A    
C23   H22   S    
Ba2   O5    S    
C13   P8    S    
C11   C16   D    
C66   H13   S    
Ba1   P1    S    
C35   C36   S    
C49   C54   D    
C54   P2    S    
C3    C4    S    
C55   C57   A    
C52   C61   S    
C5    H24   S    
O11   P5    S    
C10   C20   A    
C7    O17   S    
C22   C37   D    
C4    H20   S    
C34   C45   S    
C8    H30   S    
Ba1   Ba2   S    
C63   H56   S    
O24   P1    S    
Ba1   O26   S    
C23   H57   S    
C68   H62   S    
C60   C62   S    
Ba1   O13   S    
C16   N1    S    
C25   C42   A    
C56   C64   S    
C26   C30   A    
C32   N2    Am   
C14   C15   D    
C44   H40   S    
C22   C36   S    
C24   C27   A    
C7    C8    S    
C33   N2    Am   
C47   H43   S    
C3    H17   S    
C66   H11   S    
C13   C21   S    
C46   H41   S    
O15   P7    S    
S1    O30   D    
Ba2   O14   S    
C27   H37   S    
C59   C60   A    
C6    H27   S    
C34   O7    S    
Ba2   P4    S    
C2    H1    S    
C17   C41   A    
C31   C32   A    
C19   C43   A    
O7    P4    S    
C8    H33   S    
C65   O2    S    
C9    C18   A    
Ba2   O4    S    
C64   S1    S    
O26   P2    D    
C65   C66   S    
Ba2   O9    S    
C64   C67   S    
Ba1   P2    S    
C17   C20   A    
C6    H26   S    
Ba1   O1    S    
C37   C38   D    
C3    H16   S    
C3    O15   S    
O16   P8    D    
C55   C60   A    
C4    H19   S    
C49   C50   S    
C59   H54   S    
C40   C43   A    
Ba1   O27   S    
C15   H34   S    
C45   H2    S    
C27   C28   A    
C56   O24   S    
C35   H36   S    
C61   H51   S    
O25   P6    S    
C29   C30   A    
O27   P3    S    
C28   C29   A    
C5    H23   S    
C53   C54   D    
C15   C16   S    
O6    P8    S    
O9    P5    S    
O3    P3    S    
O2    P2    S    
C7    H28   S    
C45   H3    S    
C22   H47   S    
C36   P6    S    
C20   C44   A    
O17   P8    S    
C58   C63   A    
O28   P3    D    
O22   P6    S    
C11   C13   S    
C41   C42   A    
C1    H15   S    
S1    O29   D    
Ba2   O13   S    
C29   C33   A    
C34   H59   S    
C40   C41   A    
C1    C2    S    
O14   P7    D    
Ba1   O8    S    
C50   C51   S    
C56   H6    S    
C53   H49   S    
C42   C48   A    
C12   H42   S    
C52   C53   S    
C46   C47   A    
C7    H29   S    
Ba2   O8    S    
C10   O20   D    
O10   P5    D    
C34   H58   S    
C6    H25   S    
O4    P4    D    
O8    P7    S    
C12   H32   S    
C10   N1    Am   
C14   P4    S    
C14   C21   D    
C44   C48   A    
C24   C26   A    
Ba2   O6    S    
C4    H18   S    
O5    P4    S    
O1    P1    D    
C1    H21   S    
C48   H45   S    
C30   C31   A    
C9    N1    Am   
C37   P1    S    
C57   P5    S    
C57   C63   A    
C21   H46   S    
C39   N2    S    
C9    O18   D    
C5    O11   S    
C64   H7    S    
C58   P7    S    
Ba1   O22   S    
C33   O19   D    
C12   C23   S    
C35   C39   D    
C8    H31   S    
C68   O33   D    
C45   H4    S    
O23   P6    D    
Ba1   O12   S    
C61   C62   D    
C19   H35   S    
O12   P1    S    
C2    H14   S    
C18   C19   A    
S1    O31   S    
C31   C47   A    
C25   C26   A    
Ba2   O12   S    
C58   C59   A    
C38   C39   S    
C65   H8    S    
C1    H10   S    
C23   H53   S    
C28   C68   S    
Ba1   O5    S    
C56   H5    S    
C55   H50   S    
