data_mof_unit_57951.cif
_audit_creation_date              2013-03-05T15:48:52-0500
_audit_creation_method            fapswitch 2.2
_symmetry_space_group_name_H-M    P1
_symmetry_Int_Tables_number       1
_space_group_crystal_system       triclinic
_cell_length_a                    18.118251
_cell_length_b                    24.894191
_cell_length_c                    15.113812
_cell_angle_alpha                 90.663779
_cell_angle_beta                  126.067645
_cell_angle_gamma                 89.061003
_cell_volume                      5509.51521902

loop_
_atom_site_label
_atom_site_type_symbol
_atom_site_description
_atom_site_fract_x
_atom_site_fract_y
_atom_site_fract_z
_atom_type_partial_charge
C1    C     C_R   0.943999 0.848123 0.089267 0.385740
C2    C     C_R   0.949494 0.153069 0.091020 0.372546
C3    C     C_R   0.443981 0.348122 0.089259 0.385970
C4    C     C_R   0.449487 0.653068 0.091027 0.372452
N1    N     N_R   0.950530 0.896220 0.057200 -0.122684
N2    N     N_R   0.950530 0.103780 0.057200 -0.115863
N3    N     N_R   0.450530 0.396220 0.057200 -0.122663
N4    N     N_R   0.450530 0.603780 0.057200 -0.115861
C5    C     C_R   0.863067 0.153964 0.910544 0.206233
C6    C     C_R   0.848625 0.850913 0.907107 0.369854
C7    C     C_R   0.363063 0.653968 0.910555 0.206250
C8    C     C_R   0.348621 0.350913 0.907104 0.369934
N5    N     N_R   0.893330 0.103780 0.942800 -0.118219
N6    N     N_R   0.893330 0.896220 0.942800 -0.132842
N7    N     N_R   0.393330 0.603780 0.942800 -0.118169
N8    N     N_R   0.393330 0.396220 0.942800 -0.132850
C9    C     C_R   0.737955 0.957166 0.706450 0.079107
C10   C     C_R   0.734281 0.046592 0.722310 0.059072
C11   C     C_R   0.237959 0.457166 0.706439 0.079039
C12   C     C_R   0.234286 0.546593 0.722298 0.059200
H1    H     H_    0.724054 0.919693 0.665053 0.200345
H2    H     H_    0.713461 0.088011 0.709015 0.183637
H3    H     H_    0.224059 0.419690 0.665048 0.200343
H4    H     H_    0.213469 0.588013 0.709007 0.183617
N9    N     N_R   0.818150 0.971400 0.792440 -0.080247
N10   N     N_R   0.818150 0.028600 0.792440 -0.077662
N11   N     N_R   0.318150 0.471400 0.792440 -0.080250
N12   N     N_R   0.318150 0.528600 0.792440 -0.077663
C13   C     C_R   0.981832 0.045803 0.248231 0.027962
C14   C     C_R   0.985752 0.955735 0.253046 -0.003246
C15   C     C_R   0.481839 0.545804 0.248240 0.027987
C16   C     C_R   0.485770 0.455738 0.253070 -0.003117
H5    H     H_    0.968774 0.087209 0.255241 0.169564
H6    H     H_    0.979655 0.915195 0.269783 0.199926
H7    H     H_    0.468769 0.587207 0.255241 0.169563
H8    H     H_    0.479690 0.415203 0.269837 0.199970
N13   N     N_R   0.025710 0.028600 0.207560 -0.061503
N14   N     N_R   0.025710 0.971400 0.207560 -0.068870
N15   N     N_R   0.525710 0.528600 0.207560 -0.061504
N16   N     N_R   0.525710 0.471400 0.207560 -0.068836
C17   C     C_R   0.877721 0.817906 0.997418 -0.014920
C18   C     C_R   0.890561 0.185684 0.001186 0.064722
C19   C     C_R   0.377716 0.317904 0.997411 -0.015055
C20   C     C_R   0.390550 0.685689 0.001202 0.064905
C21   C     C_R   0.682956 0.002166 0.667286 0.102953
C22   C     C_R   0.182966 0.502169 0.667257 0.102933
C23   C     C_R   0.960979 0.001238 0.283642 0.120591
C24   C     C_R   0.460996 0.501242 0.283662 0.120441
C25   C     C_R   0.262011 0.954866 0.292421 0.042025
C26   C     C_R   0.261240 0.044797 0.292776 0.048738
C27   C     C_R   0.762039 0.454873 0.292382 0.042045
C28   C     C_R   0.761258 0.544803 0.292728 0.048838
H9    H     H_    0.277048 0.915345 0.326470 0.186689
H10   H     H_    0.276637 0.084351 0.327293 0.192458
H11   H     H_    0.777109 0.415357 0.326450 0.186874
H12   H     H_    0.776659 0.584357 0.327250 0.192425
N17   N     N_R   0.181850 0.971400 0.207560 -0.074031
N18   N     N_R   0.181850 0.028600 0.207560 -0.074231
N19   N     N_R   0.681850 0.471400 0.207560 -0.074058
N20   N     N_R   0.681850 0.528600 0.207560 -0.074261
C29   C     C_R   0.933886 0.044061 0.689352 0.457401
C30   C     C_R   0.936689 0.955873 0.689099 0.478153
C31   C     C_R   0.433882 0.544064 0.689353 0.457373
C32   C     C_R   0.436689 0.455874 0.689100 0.478083
N21   N     N_R   0.974290 0.028600 0.792440 -0.125396
N22   N     N_R   0.974290 0.971400 0.792440 -0.122622
N23   N     N_R   0.474290 0.528600 0.792440 -0.125375
N24   N     N_R   0.474290 0.471400 0.792440 -0.122642
C33   C     C_R   0.064414 0.850365 0.908400 0.299501
C34   C     C_R   0.087439 0.132560 0.907418 0.406302
C35   C     C_R   0.564485 0.350394 0.908402 0.299822
C36   C     C_R   0.587390 0.632598 0.907410 0.406254
N25   N     N_R   0.049470 0.896220 0.942800 -0.125407
N26   N     N_R   0.049470 0.103780 0.942800 -0.138445
N27   N     N_R   0.549470 0.396220 0.942800 -0.125495
N28   N     N_R   0.549470 0.603780 0.942800 -0.138468
C37   C     C_R   0.176647 0.135644 0.091673 0.298268
C38   C     C_R   0.161565 0.853314 0.091006 0.275271
C39   C     C_R   0.676606 0.635679 0.091670 0.298218
C40   C     C_R   0.661685 0.353382 0.091038 0.275883
N29   N     N_R   0.106670 0.103780 0.057200 -0.127050
N30   N     N_R   0.106670 0.896220 0.057200 -0.122774
N31   N     N_R   0.606670 0.603780 0.057200 -0.127074
N32   N     N_R   0.606670 0.396220 0.057200 -0.122822
Ni1   Ni    Ni4+2 0.065600 0.934400 0.131190 0.321935
Ni2   Ni    Ni4+2 0.065600 0.065600 0.131190 0.343459
Ni3   Ni    Ni4+2 0.565600 0.434400 0.131190 0.322217
Ni4   Ni    Ni4+2 0.565600 0.565600 0.131190 0.343451
Ni5   Ni    Ni4+2 0.934400 0.065600 0.868810 0.336796
Ni6   Ni    Ni4+2 0.934400 0.934400 0.868810 0.331122
Ni7   Ni    Ni4+2 0.434400 0.565600 0.868810 0.336757
Ni8   Ni    Ni4+2 0.434400 0.434400 0.868810 0.331129
C41   C     C_R   0.314712 0.999827 0.339136 0.120353
C42   C     C_R   0.814742 0.499838 0.339054 0.120333
C43   C     C_R   0.920379 0.000023 0.626183 -0.040291
C44   C     C_R   0.420371 0.500026 0.626182 -0.040254
C45   C     C_R   0.138209 0.823512 0.999800 0.000499
C46   C     C_R   0.167357 0.154803 0.999146 -0.035592
C47   C     C_R   0.638373 0.323591 0.999828 -0.000210
C48   C     C_R   0.667289 0.654860 0.999142 -0.035565
C49   C     C_3   0.955443 0.059300 0.415855 0.166176
C50   C     C_3   0.849790 0.978857 0.327825 0.187046
C51   C     C_3   0.455419 0.559309 0.415843 0.166207
C52   C     C_3   0.349811 0.478847 0.327843 0.187026
H13   H     H_    0.907154 0.086192 0.345934 0.144139
H14   H     H_    0.797433 0.008749 0.269963 0.195218
H15   H     H_    0.407118 0.586192 0.345908 0.144090
H16   H     H_    0.297441 0.508732 0.269971 0.195201
C53   C     C_3   0.930896 0.059836 0.496912 0.066689
C54   C     C_3   0.843543 0.969629 0.425221 0.135477
C55   C     C_3   0.430867 0.559842 0.496896 0.066719
C56   C     C_3   0.343565 0.469618 0.425238 0.135485
H17   H     H_    0.987613 0.079378 0.573322 0.224605
H18   H     H_    0.853924 0.926048 0.443912 0.211582
H19   H     H_    0.487571 0.579396 0.573298 0.224600
H20   H     H_    0.353971 0.426038 0.443946 0.211573
H21   H     H_    0.090559 0.978003 0.491469 0.267704
H22   H     H_    0.013773 0.924016 0.436781 0.230556
H23   H     H_    0.590581 0.478038 0.491503 0.267717
H24   H     H_    0.513825 0.424036 0.436835 0.230563
C57   C     C_3   0.021769 0.966036 0.466342 -0.393018
C58   C     C_3   0.521797 0.466057 0.466377 -0.392968
C59   C     C_3   0.946304 0.001297 0.370751 -0.203922
C60   C     C_3   0.446315 0.501303 0.370766 -0.203935
C61   C     C_3   0.924425 0.999990 0.529040 -0.330428
C62   C     C_3   0.424427 0.499995 0.529047 -0.330464
C63   C     C_3   0.015900 0.968181 0.563719 0.697830
C64   C     C_3   0.515922 0.468203 0.563748 0.697812
C65   C     C_3   0.732538 0.231158 0.878495 0.214344
C66   C     C_3   0.743190 0.755707 0.880827 0.210891
C67   C     C_3   0.232564 0.731208 0.878485 0.214474
C68   C     C_3   0.243231 0.255675 0.880817 0.210912
H25   H     H_    0.707872 0.190632 0.842040 0.187752
H26   H     H_    0.701520 0.790998 0.843130 0.221360
H27   H     H_    0.207893 0.690701 0.841927 0.187740
H28   H     H_    0.201547 0.290961 0.843101 0.221348
C69   C     C_3   0.158793 0.759035 0.882795 0.310418
C70   C     C_3   0.178527 0.219031 0.881696 0.244677
C71   C     C_3   0.658824 0.259013 0.882872 0.310513
C72   C     C_3   0.678477 0.719080 0.881714 0.244663
H29   H     H_    0.127859 0.791160 0.821091 0.197993
H30   H     H_    0.166868 0.186343 0.826299 0.216552
H31   H     H_    0.627817 0.291091 0.821073 0.197981
H32   H     H_    0.666806 0.686392 0.826315 0.216529
C73   C     C_3   0.367198 0.782877 0.044085 0.549069
C74   C     C_3   0.386981 0.217098 0.056728 0.524205
C75   C     C_3   0.867235 0.282900 0.043876 0.548956
C76   C     C_3   0.886927 0.717110 0.056715 0.524242
C77   C     C_3   0.796864 0.199979 0.071282 0.099357
C78   C     C_3   0.786547 0.792087 0.061771 0.156124
C79   C     C_3   0.296732 0.699898 0.071146 0.099043
C80   C     C_3   0.286545 0.292052 0.061744 0.156159
C81   C     C_3   0.825071 0.225064 0.998961 -0.373299
C82   C     C_3   0.827507 0.770943 0.000256 -0.377072
C83   C     C_3   0.325038 0.725055 0.998986 -0.373226
C84   C     C_3   0.327529 0.270923 0.000249 -0.377037
H33   H     H_    0.857506 0.191488 0.155461 0.171246
H34   H     H_    0.841915 0.806156 0.145145 0.190408
H35   H     H_    0.357333 0.691378 0.155338 0.171186
H36   H     H_    0.341895 0.306125 0.145121 0.190434
C85   C     C_3   0.202594 0.785522 0.997583 -0.355073
C86   C     C_3   0.223850 0.197264 0.998676 -0.351870
C87   C     C_3   0.702718 0.285585 0.997605 -0.354850
C88   C     C_3   0.723798 0.697311 0.998688 -0.351883
C89   C     C_3   0.287890 0.819650 0.026947 0.057040
C90   C     C_3   0.319779 0.172362 0.041225 0.100689
C91   C     C_3   0.787959 0.319700 0.026756 0.057229
C92   C     C_3   0.819712 0.672390 0.041231 0.100642
C93   C     C_3   0.237695 0.739963 0.083551 0.353243
C94   C     C_3   0.237243 0.246047 0.073814 0.306854
C95   C     C_3   0.737902 0.240092 0.083711 0.352837
C96   C     C_3   0.737226 0.746094 0.073844 0.306941
H37   H     H_    0.282672 0.757271 0.165653 0.159135
H38   H     H_    0.283737 0.234235 0.159639 0.165463
H39   H     H_    0.782969 0.257440 0.165747 0.159111
H40   H     H_    0.783724 0.734276 0.159665 0.165434
H41   H     H_    0.315607 0.841494 0.104288 0.205087
H42   H     H_    0.348907 0.153363 0.121132 0.208883
H43   H     H_    0.815737 0.341609 0.104041 0.205166
H44   H     H_    0.848842 0.653401 0.121146 0.208866
C97   C     C_3   0.459555 0.949003 0.417598 0.211132
C98   C     C_3   0.458014 0.052080 0.415845 0.162655
C99   C     C_3   0.959597 0.449041 0.417466 0.211237
C100  C     C_3   0.958036 0.552117 0.415842 0.162621
H45   H     H_    0.427926 0.911808 0.420130 0.169719
H46   H     H_    0.435953 0.087925 0.439759 0.168598
H47   H     H_    0.927968 0.411828 0.419925 0.169783
H48   H     H_    0.935967 0.587941 0.439800 0.168594
C101  C     C_3   0.557928 0.947162 0.519638 -0.500291
C102  C     C_3   0.561579 0.046936 0.499200 -0.387724
C103  C     C_3   0.057961 0.447186 0.519533 -0.500334
C104  C     C_3   0.061600 0.546970 0.499198 -0.387702
H49   H     H_    0.604589 0.935925 0.497277 0.259332
H50   H     H_    0.594972 0.037180 0.458384 0.287397
H51   H     H_    0.104648 0.435966 0.497203 0.259381
H52   H     H_    0.094998 0.537239 0.458379 0.287407
H53   H     H_    0.564680 0.914659 0.574007 0.252813
H54   H     H_    0.587888 0.086841 0.538112 0.223704
H55   H     H_    0.064690 0.414665 0.573859 0.252762
H56   H     H_    0.087903 0.586868 0.538146 0.223684
C105  C     C_3   0.426645 0.001503 0.539868 0.549912
C106  C     C_3   0.926657 0.501466 0.539787 0.549833
C107  C     C_3   0.412125 0.000641 0.425143 -0.344570
C108  C     C_3   0.912152 0.500653 0.425068 -0.344593
C109  C     C_3   0.585093 0.002005 0.582150 -0.157025
C110  C     C_3   0.085110 0.502012 0.582101 -0.157041
C111  C     C_3   0.531120 0.011080 0.633259 0.644748
C112  C     C_3   0.031122 0.511052 0.633198 0.644760
Cl1   Cl    Cl    0.021592 0.827862 0.225337 -0.480986
Cl2   Cl    Cl    0.030049 0.174015 0.226579 -0.438990
Cl3   Cl    Cl    0.521486 0.327863 0.225334 -0.480743
Cl4   Cl    Cl    0.530009 0.674003 0.226599 -0.438942
N33   N     N_R   0.849928 0.094992 0.451887 0.287663
O1    O     O_R   0.863641 0.145306 0.481367 -0.167446
O2    O     O_R   0.772355 0.083224 0.360358 -0.277171
N34   N     N_R   0.750996 0.981933 0.393147 0.304546
O3    O     O_R   0.681305 0.961001 0.303458 -0.177824
O4    O     O_R   0.737344 0.004996 0.460054 -0.310690
N35   N     N_R   0.349880 0.594983 0.451855 0.287654
O5    O     O_R   0.363564 0.645299 0.481320 -0.167471
O6    O     O_R   0.272316 0.583202 0.360325 -0.277228
N36   N     N_R   0.251011 0.481905 0.393154 0.304546
O7    O     O_R   0.181334 0.460957 0.303475 -0.177839
O8    O     O_R   0.237342 0.504975 0.460042 -0.310718
Cl5   Cl    Cl    0.117247 0.998459 0.678348 -0.349730
Cl6   Cl    Cl    0.025639 0.899078 0.605270 -0.427288
Cl7   Cl    Cl    0.617247 0.498504 0.678368 -0.349736
Cl8   Cl    Cl    0.525700 0.399103 0.605332 -0.427226
Cl9   Cl    Cl    0.736248 0.266360 0.777210 -0.295302
Cl10  Cl    Cl    0.765765 0.729057 0.786524 -0.265517
Cl11  Cl    Cl    0.236416 0.766474 0.777369 -0.295185
Cl12  Cl    Cl    0.265850 0.229033 0.786552 -0.265530
Cl13  Cl    Cl    0.569621 0.211438 0.841255 -0.249676
Cl14  Cl    Cl    0.569467 0.753136 0.823495 -0.278630
Cl15  Cl    Cl    0.069518 0.711466 0.840885 -0.249705
Cl16  Cl    Cl    0.069503 0.253074 0.823458 -0.278617
Cl17  Cl    Cl    0.412176 0.808766 0.972728 -0.200629
Cl18  Cl    Cl    0.443271 0.198362 0.993808 -0.225414
Cl19  Cl    Cl    0.912092 0.308713 0.972328 -0.200623
Cl20  Cl    Cl    0.943161 0.698351 0.993747 -0.225472
N37   N     N_R   0.856697 0.175624 0.819185 0.269479
O9    O     O_R   0.783532 0.168661 0.720523 -0.266881
O10   O     O_R   0.917666 0.209295 0.835446 -0.204402
N38   N     N_R   0.771939 0.845701 0.795507 0.219407
O11   O     O_R   0.784011 0.832229 0.721465 -0.238223
O12   O     O_R   0.693739 0.866545 0.764768 -0.367235
N39   N     N_R   0.356674 0.675637 0.819191 0.269407
O13   O     O_R   0.283487 0.668693 0.720536 -0.267003
O14   O     O_R   0.417628 0.709321 0.835452 -0.204441
N40   N     N_R   0.271954 0.345690 0.795496 0.219409
O15   O     O_R   0.284054 0.332222 0.721478 -0.238186
O16   O     O_R   0.193735 0.366518 0.764727 -0.367120
Cl21  Cl    Cl    0.253093 0.874133 0.931350 -0.349347
Cl22  Cl    Cl    0.310937 0.115309 0.961033 -0.273298
Cl23  Cl    Cl    0.753046 0.374108 0.930974 -0.349206
Cl24  Cl    Cl    0.810838 0.615322 0.961051 -0.273385
Cl25  Cl    Cl    0.745431 0.134572 0.021898 -0.450112
Cl26  Cl    Cl    0.715736 0.851617 0.999027 -0.320774
Cl27  Cl    Cl    0.245335 0.634493 0.021568 -0.450180
Cl28  Cl    Cl    0.215709 0.351572 0.998989 -0.320735
Cl29  Cl    Cl    0.653546 0.209424 0.092241 -0.256230
Cl30  Cl    Cl    0.637131 0.766826 0.065138 -0.276277
Cl31  Cl    Cl    0.153220 0.709187 0.091713 -0.255634
Cl32  Cl    Cl    0.137127 0.266760 0.065081 -0.276369
N41   N     N_R   0.445564 0.782360 0.162001 0.241157
O17   O     O_R   0.527325 0.794297 0.192811 -0.140903
O18   O     O_R   0.433918 0.777087 0.238504 -0.341591
N42   N     N_R   0.460234 0.221834 0.175801 0.250514
O19   O     O_R   0.544272 0.208745 0.215264 -0.124720
O20   O     O_R   0.441312 0.229185 0.245827 -0.327717
N43   N     N_R   0.945680 0.282431 0.161757 0.241161
O21   O     O_R   0.027426 0.294291 0.192413 -0.140902
O22   O     O_R   0.934145 0.277245 0.238366 -0.341435
N44   N     N_R   0.960204 0.721844 0.175780 0.250540
O23   O     O_R   0.044221 0.708713 0.215218 -0.124626
O24   O     O_R   0.941311 0.729227 0.245826 -0.327746
N45   N     N_R   0.453723 0.946362 0.315955 0.302884
O25   O     O_R   0.520741 0.961316 0.312931 -0.231249
O26   O     O_R   0.381144 0.927095 0.227089 -0.299222
N46   N     N_R   0.436999 0.063618 0.307241 0.294444
O27   O     O_R   0.481500 0.101538 0.299394 -0.239452
O28   O     O_R   0.370377 0.041038 0.217353 -0.298867
N47   N     N_R   0.953791 0.446461 0.315836 0.302906
O29   O     O_R   0.020859 0.461393 0.312892 -0.231277
O30   O     O_R   0.881153 0.427310 0.226872 -0.298986
N48   N     N_R   0.937032 0.563705 0.307262 0.294424
O31   O     O_R   0.981535 0.601648 0.299479 -0.239448
O32   O     O_R   0.870404 0.541156 0.217335 -0.298892
Cl33  Cl    Cl    0.386922 0.939245 0.558321 -0.402234
Cl34  Cl    Cl    0.354942 0.051263 0.544498 -0.360841
Cl35  Cl    Cl    0.886969 0.439176 0.558180 -0.402219
Cl36  Cl    Cl    0.854923 0.551187 0.544452 -0.360883
Cl37  Cl    Cl    0.574994 0.967916 0.750136 -0.310759
Cl38  Cl    Cl    0.551906 0.077984 0.691419 -0.427743
Cl39  Cl    Cl    0.074995 0.467871 0.750052 -0.310738
Cl40  Cl    Cl    0.051875 0.577947 0.691390 -0.427534
Cl41  Cl    Cl    0.845901 0.091692 0.637113 -0.450711
Cl42  Cl    Cl    0.857431 0.903910 0.627988 -0.488005
Cl43  Cl    Cl    0.345895 0.591695 0.637125 -0.450847
Cl44  Cl    Cl    0.357463 0.403895 0.628002 -0.487973
N49   N     N_R   0.989426 0.821393 0.819417 0.259134
O33   O     O_R   0.977474 0.818246 0.725917 -0.215545
O34   O     O_R   0.947514 0.787698 0.840234 -0.239014
N50   N     N_R   0.065420 0.125221 0.800839 0.198126
O35   O     O_R   0.001843 0.154019 0.718999 -0.255298
O36   O     O_R   0.115970 0.093582 0.787813 -0.309346
N51   N     N_R   0.489517 0.321382 0.819477 0.259122
O37   O     O_R   0.477496 0.318218 0.725936 -0.215529
O38   O     O_R   0.447595 0.287727 0.840350 -0.239157
N52   N     N_R   0.565344 0.625285 0.800812 0.198172
O39   O     O_R   0.501752 0.654091 0.719001 -0.255114
O40   O     O_R   0.615866 0.593651 0.787730 -0.309413
N53   N     N_R   0.233914 0.156399 0.200782 0.212858
O41   O     O_R   0.322252 0.153736 0.256598 -0.386789
O42   O     O_R   0.198006 0.174926 0.248250 -0.245416
N54   N     N_R   0.218668 0.835473 0.202135 0.216971
O43   O     O_R   0.184669 0.806442 0.240504 -0.224420
O44   O     O_R   0.306879 0.839402 0.258611 -0.379061
N55   N     N_R   0.733856 0.656437 0.200779 0.212886
O45   O     O_R   0.822196 0.653786 0.256608 -0.386790
O46   O     O_R   0.697934 0.674938 0.248247 -0.245405
N56   N     N_R   0.719068 0.335653 0.202234 0.216804
O47   O     O_R   0.685148 0.307225 0.241478 -0.224851
O48   O     O_R   0.807259 0.339545 0.258410 -0.379385
Cl45  Cl    Cl    0.067357 0.088165 0.480226 -0.386441
Cl46  Cl    Cl    0.820119 0.917644 0.250285 -0.457184
Cl47  Cl    Cl    0.567318 0.588195 0.480208 -0.386369
Cl48  Cl    Cl    0.320160 0.417630 0.250316 -0.457196

loop_
_geom_bond_atom_site_label_1
_geom_bond_atom_site_label_2
_geom_bond_distance
_ccdc_geom_bond_type
N56   O48   1.299670 A    
C100  C108  1.589795 S    
C66   C72   1.503358 S    
C11   C22   1.372079 A    
N49   O33   1.299113 A    
N21   Ni5   1.907573 S    
N40   O16   1.303463 A    
N43   O21   1.303304 A    
C13   H5    1.071754 S    
N38   O11   1.299873 A    
C14   N14   1.322997 A    
N44   O23   1.303523 A    
C5    N5    1.332637 A    
N6    Ni6   1.932676 S    
C7    N7    1.332724 A    
C78   C96   1.540496 S    
C80   C84   1.574934 S    
C32   Cl44  1.749285 S    
C100  N48   1.480926 S    
C79   C83   1.590454 S    
C69   Cl15  1.805246 S    
N29   Ni2   1.932673 S    
N31   Ni4   1.932673 S    
N19   N20   1.423948 A    
C51   Cl47  1.811940 S    
C30   C43   1.371939 A    
C6    C17   1.407370 A    
C106  Cl36  1.810919 S    
C66   H26   1.072298 S    
N28   N31   1.397727 A    
C46   C86   1.486341 S    
C31   N23   1.331617 A    
N33   O2    1.299860 A    
N52   O40   1.297324 A    
C38   N54   1.429958 S    
C98   C107  1.589790 S    
C88   C92   1.573678 S    
C30   N22   1.339674 A    
C98   N46   1.480930 S    
C12   N12   1.313494 A    
C92   H44   1.102414 S    
C35   C47   1.400231 A    
C31   C44   1.372124 A    
C9    H1    1.064781 S    
N54   O43   1.297286 A    
C103  C110  1.563150 S    
C11   H3    1.064797 S    
N13   N14   1.423948 A    
C80   C94   1.540453 S    
C38   N30   1.330644 A    
C23   C59   1.488660 S    
C70   C86   1.546595 S    
C52   Cl48  1.796714 S    
C75   C91   1.579256 S    
C65   H25   1.110428 S    
C1    C17   1.406228 A    
N42   O20   1.300722 A    
C15   C24   1.387597 A    
C76   N44   1.483876 S    
N26   N29   1.397727 A    
C50   C59   1.574361 S    
C10   C21   1.371592 A    
C94   H38   1.092130 S    
C101  H53   1.112983 S    
C76   Cl20  1.810440 S    
N30   Ni1   1.907778 S    
C9    N9    1.307089 A    
N48   O32   1.300872 A    
C28   H12   1.070182 S    
C25   H9    1.069979 S    
N24   Ni8   1.931770 S    
N17   Ni1   1.947641 S    
C27   H11   1.069944 S    
C104  H56   1.109867 S    
C41   C107  1.450639 S    
N19   Ni3   1.947641 S    
C57   C59   1.546416 S    
N7    Ni7   1.907778 S    
C29   N21   1.331625 A    
C61   C63   1.610087 S    
C51   H15   1.113081 S    
C98   C102  1.528668 S    
N51   O38   1.299040 A    
C68   C70   1.503418 S    
C112  Cl40  1.812539 S    
C85   C89   1.591772 S    
C69   C85   1.563290 S    
N55   O46   1.297220 A    
C89   H41   1.103317 S    
C5    N37   1.427658 S    
N20   Ni4   1.927538 S    
C79   Cl27  1.810947 S    
C99   N47   1.477234 S    
N9    Ni6   1.927539 S    
C33   N49   1.425819 S    
C13   C23   1.387645 A    
C16   H8    1.066329 S    
N54   O44   1.299753 A    
C9    C21   1.372060 A    
N25   Ni6   1.927439 S    
N26   Ni5   1.948246 S    
N27   N32   1.397727 A    
N53   O42   1.297231 A    
C92   Cl24  1.803015 S    
C93   Cl31  1.790998 S    
C25   N17   1.312654 A    
C94   Cl32  1.806268 S    
N37   O9    1.298032 A    
C95   Cl29  1.791071 S    
C43   C61   1.512521 S    
C77   C81   1.590576 S    
C28   N20   1.309933 A    
C71   H31   1.100187 S    
C74   Cl18  1.810560 S    
C71   Cl13  1.805237 S    
C63   Cl6   1.808142 S    
C54   H18   1.109093 S    
C68   H28   1.072326 S    
N1    Ni1   1.948247 S    
N50   O36   1.297322 A    
N45   O25   1.302173 A    
C105  C107  1.593233 S    
C97   C107  1.574709 S    
C55   N35   1.475585 S    
C75   C81   1.587508 S    
N18   Ni2   1.927538 S    
C109  C111  1.575478 S    
C3    Cl3   1.748209 S    
C29   Cl41  1.745934 S    
C14   H6    1.066383 S    
C1    Cl1   1.748313 S    
C8    N8    1.311718 A    
N13   Ni2   1.931772 S    
C37   C46   1.395378 A    
N46   O27   1.302074 A    
C32   C44   1.371957 A    
C6    N6    1.311681 A    
N15   N16   1.423948 A    
C52   C56   1.561163 S    
N9    N10   1.423948 A    
N4    Ni4   1.927438 S    
C79   H35   1.106000 S    
C34   N26   1.315571 A    
C65   C71   1.530236 S    
C64   Cl8   1.808151 S    
C38   C45   1.389021 A    
C44   C62   1.512502 S    
C7    C20   1.390325 A    
C66   C82   1.578617 S    
C111  Cl37  1.808168 S    
N36   O8    1.299930 A    
N41   O18   1.300129 A    
C77   Cl25  1.810865 S    
C47   C87   1.504883 S    
C45   C85   1.505160 S    
C40   C47   1.389149 A    
C88   C96   1.573716 S    
C42   C108  1.450604 S    
C58   C60   1.546418 S    
C56   H20   1.109095 S    
C67   Cl11  1.808274 S    
C22   C110  1.453674 S    
C62   C64   1.610084 S    
C10   H2    1.071747 S    
C34   N50   1.423428 S    
C52   C60   1.574365 S    
C75   Cl19  1.819566 S    
C72   C88   1.546541 S    
C31   Cl43  1.745980 S    
C79   C93   1.539777 S    
C25   C41   1.373283 A    
C71   C87   1.563271 S    
C65   C81   1.597684 S    
N17   N18   1.423948 A    
C2    C18   1.390278 A    
C68   C84   1.578611 S    
N38   O12   1.303463 A    
N12   Ni7   1.947643 S    
N44   O24   1.300724 A    
C103  H51   1.110708 S    
N28   Ni7   1.948246 S    
C101  H49   1.110704 S    
N47   O29   1.302158 A    
C93   H37   1.094508 S    
C73   N41   1.487507 S    
C12   C22   1.371574 A    
C96   H40   1.092136 S    
C33   C45   1.400046 A    
C91   H43   1.103266 S    
C105  Cl34  1.810921 S    
C70   Cl16  1.819339 S    
C10   N10   1.313519 A    
C40   N32   1.330388 A    
N22   Ni6   1.931770 S    
C73   C89   1.579226 S    
N33   O1    1.302310 A    
C26   H10   1.070186 S    
C106  C108  1.593263 S    
C1    N1    1.329715 A    
C99   C108  1.574702 S    
C104  H52   1.112097 S    
C57   C63   1.537014 S    
C3    N3    1.329770 A    
C110  C112  1.575466 S    
C66   Cl10  1.815054 S    
C49   C53   1.529624 S    
C8    N40   1.426071 S    
C51   C55   1.529643 S    
C98   H46   1.112484 S    
C75   N43   1.487514 S    
C86   C90   1.573705 S    
C97   C101  1.523038 S    
N3    Ni3   1.948247 S    
C101  C109  1.563150 S    
C100  C104  1.528672 S    
C33   N25   1.337369 A    
C90   H42   1.102423 S    
C87   C95   1.554413 S    
C56   C62   1.575475 S    
C36   N28   1.315505 A    
N39   O14   1.299673 A    
N56   O47   1.297503 A    
C77   C95   1.539713 S    
C72   Cl14  1.819344 S    
C16   C24   1.383475 A    
C76   C82   1.606427 S    
N15   Ni4   1.931772 S    
C51   C60   1.558591 S    
N49   O34   1.299057 A    
N23   N24   1.423948 A    
C26   N18   1.309954 A    
C39   C48   1.395352 A    
C6    N38   1.426065 S    
C70   H30   1.090596 S    
C35   N51   1.425840 S    
N35   O5    1.302308 A    
C4    C20   1.390299 A    
N40   O15   1.299869 A    
N51   O37   1.299140 A    
C67   C69   1.530274 S    
C99   H47   1.109618 S    
C102  C109  1.546711 S    
C86   C94   1.573718 S    
C37   N29   1.324279 A    
C55   C62   1.599555 S    
N23   Ni7   1.907573 S    
C105  C111  1.579004 S    
C48   C88   1.486273 S    
C74   N42   1.483884 S    
N1    N6    1.397727 A    
N3    N8    1.397727 A    
N8    Ni8   1.932676 S    
N4    N7    1.397727 A    
C106  Cl35  1.811278 S    
C76   C92   1.574807 S    
C15   H7    1.071726 S    
C50   C54   1.561180 S    
C32   N24   1.339657 A    
N25   N30   1.397727 A    
C52   H16   1.110650 S    
C102  H54   1.109874 S    
C69   H29   1.100240 S    
N52   O39   1.298687 A    
C21   C109  1.453711 S    
C78   H34   1.108927 S    
C104  C110  1.546735 S    
C72   H32   1.090555 S    
N46   O28   1.300879 A    
N2    Ni2   1.927438 S    
C29   C43   1.372116 A    
C67   H27   1.110402 S    
C67   C83   1.597693 S    
C39   N31   1.324273 A    
N53   O41   1.298356 A    
C58   C64   1.537013 S    
C91   Cl23  1.808143 S    
N55   O45   1.298361 A    
N42   O19   1.303525 A    
C13   N13   1.323402 A    
C63   Cl5   1.791821 S    
C77   H33   1.105977 S    
C35   N27   1.337292 A    
C80   H36   1.108909 S    
N47   O30   1.299745 A    
C40   N56   1.429986 S    
C54   N34   1.473071 S    
N32   Ni3   1.907778 S    
C4    N4    1.327912 A    
C36   N52   1.423442 S    
N10   Ni5   1.947643 S    
C3    C19   1.406177 A    
C5    C18   1.390229 A    
C49   C59   1.558579 S    
N16   Ni3   1.907574 S    
C103  H55   1.112993 S    
C8    C19   1.407347 A    
C53   N33   1.475585 S    
N48   O31   1.302072 A    
C65   Cl9   1.808302 S    
H21   C57   1.112929 S    
C12   H4    1.071746 S    
C73   Cl17  1.819552 S    
C28   C42   1.366015 A    
C11   N11   1.307107 A    
N41   O17   1.303307 A    
C112  Cl39  1.808176 S    
C89   Cl21  1.808155 S    
C53   H17   1.110108 S    
C50   Cl46  1.796698 S    
C74   C90   1.574847 S    
C106  C112  1.578967 S    
C2    N2    1.327856 A    
C68   Cl12  1.815015 S    
H24   C58   1.110276 S    
C49   H13   1.113080 S    
C49   Cl45  1.811941 S    
C2    Cl2   1.754680 S    
N14   Ni1   1.907574 S    
C14   C23   1.383494 A    
C18   C81   1.511869 S    
N34   O3    1.301224 A    
C97   H45   1.109634 S    
C27   C42   1.373305 A    
C95   H39   1.094348 S    
C100  H48   1.112486 S    
N37   O10   1.299669 A    
H22   C57   1.110278 S    
C87   C91   1.591773 S    
N35   O6    1.299860 A    
C80   Cl28  1.810844 S    
N11   Ni8   1.927539 S    
C39   N55   1.430412 S    
N27   Ni8   1.927439 S    
C53   C61   1.599549 S    
N50   O35   1.298688 A    
N45   O26   1.299733 A    
C30   Cl42  1.749293 S    
C27   N19   1.312671 A    
C17   C82   1.509429 S    
C36   C48   1.403621 A    
H23   C58   1.112928 S    
N43   O22   1.300110 A    
C19   C84   1.509462 S    
C105  Cl33  1.811268 S    
N5    Ni5   1.907778 S    
C20   C83   1.512014 S    
C56   N36   1.473065 S    
C99   C103  1.523083 S    
C24   C60   1.488652 S    
N39   O13   1.298042 A    
C26   C41   1.366050 A    
C37   N53   1.430397 S    
C4    Cl4   1.754642 S    
C7    N39   1.427662 S    
C85   C93   1.554523 S    
C78   Cl26  1.810832 S    
N2    N5    1.397727 A    
C97   N45   1.477219 S    
C64   Cl7   1.791833 S    
C90   Cl22  1.802992 S    
C15   N15   1.323411 A    
C50   H14   1.110652 S    
C16   N16   1.323006 A    
C111  Cl38  1.812536 S    
C96   Cl30  1.806258 S    
N36   O7    1.301222 A    
C102  H50   1.112097 S    
C54   C61   1.575485 S    
C73   C83   1.587548 S    
C34   C46   1.403580 A    
C74   C84   1.606508 S    
N21   N22   1.423948 A    
C78   C82   1.574949 S    
N11   N12   1.423948 A    
C55   H19   1.110106 S    
N34   O4    1.299925 A    
