data_mof_unit_33057.cif
_audit_creation_date              2013-03-05T16:01:06-0500
_audit_creation_method            fapswitch 2.2
_symmetry_space_group_name_H-M    P1
_symmetry_Int_Tables_number       1
_space_group_crystal_system       triclinic
_cell_length_a                    14.679761
_cell_length_b                    14.528205
_cell_length_c                    15.8785
_cell_angle_alpha                 76.97166
_cell_angle_beta                  102.522692
_cell_angle_gamma                 114.768163
_cell_volume                      2966.94452907

loop_
_atom_site_label
_atom_site_type_symbol
_atom_site_description
_atom_site_fract_x
_atom_site_fract_y
_atom_site_fract_z
_atom_type_partial_charge
O1    O     O_R   0.977900 0.338120 0.529810 -0.534269
O2    O     O_R   0.022100 0.661880 0.470190 -0.534278
O3    O     O_R   0.839850 0.379180 0.491620 -0.598765
O4    O     O_R   0.160150 0.620820 0.508380 -0.598757
C1    C     C_R   0.880227 0.311227 0.516834 0.839183
C2    C     C_R   0.119773 0.688774 0.483164 0.839169
O5    O     O_R   0.069010 0.479460 0.640020 -0.577098
O6    O     O_R   0.930990 0.520540 0.359980 -0.577095
O7    O     O_R   0.930960 0.520530 0.601820 -0.580208
O8    O     O_R   0.069040 0.479470 0.398180 -0.580212
C3    C     C_R   0.999392 0.499989 0.659975 0.828822
C4    C     C_R   0.000607 0.500011 0.340025 0.828809
Cu1   Cu    Cu3+1 0.081740 0.475690 0.522610 0.998301
Cu2   Cu    Cu3+1 0.918260 0.524310 0.477390 0.998299
C5    C     C_3   0.970149 0.402502 0.042752 -0.251977
C6    C     C_3   0.029848 0.597494 0.957248 -0.251978
C7    C     C_3   0.907593 0.446073 0.966539 0.393750
C8    C     C_3   0.092404 0.553924 0.033461 0.393742
H1    H     H_    0.944061 0.322557 0.077694 0.192037
H2    H     H_    0.055936 0.677440 0.922307 0.192038
H3    H     H_    0.883085 0.575583 0.014649 0.194009
H4    H     H_    0.116912 0.424414 0.985352 0.194007
C9    C     C_1   0.998278 0.500066 0.749299 -0.118214
C10   C     C_1   0.001721 0.499932 0.250701 -0.118215
C11   C     C_3   0.063556 0.457544 0.992115 -0.246845
C12   C     C_3   0.936441 0.542452 0.007885 -0.246845
C13   C     C_3   0.998670 0.499763 0.916466 0.020066
C14   C     C_3   0.001327 0.500233 0.083534 0.020065
C15   C     C_1   0.998094 0.499951 0.824742 0.071353
C16   C     C_1   0.001904 0.500046 0.175258 0.071351
C17   C     C_R   0.812574 0.201310 0.531114 -0.200065
C18   C     C_R   0.187425 0.798690 0.468882 -0.200074
C19   C     C_R   0.779112 0.019574 0.582523 0.077053
C20   C     C_R   0.220882 0.980426 0.417474 0.077045
C21   C     C_R   0.847316 0.123572 0.575146 0.357261
C22   C     C_R   0.152680 0.876429 0.424856 0.357286
C23   C     C_R   0.709055 0.174967 0.504159 -0.257456
C24   C     C_R   0.290946 0.825035 0.495826 -0.257449
C25   C     C_R   0.639204 0.074051 0.520515 0.040345
C26   C     C_R   0.360794 0.925952 0.479470 0.040348
C27   C     C_R   0.675950 0.994724 0.544747 -0.051604
C28   C     C_R   0.324046 0.005279 0.455240 -0.051624
C29   C     C_R   0.533497 0.050407 0.506878 -0.002430
C30   C     C_R   0.466501 0.949598 0.493103 -0.002427
C31   C     C_R   0.507811 0.877165 0.490249 0.046620
C32   C     C_R   0.492187 0.122840 0.509730 0.046645
C33   C     C_R   0.610121 0.896071 0.524505 0.341297
C34   C     C_R   0.389878 0.103934 0.475476 0.341319
H5    H     H_    0.317630 0.766165 0.531105 0.197593
H6    H     H_    0.682372 0.233837 0.468876 0.197593
N1    N     N_R   0.795440 0.560790 0.443380 -0.194348
N2    N     N_R   0.204560 0.439210 0.556620 -0.194346
C35   C     C_R   0.703580 0.648046 0.339411 -0.167587
C36   C     C_R   0.296422 0.351967 0.660600 -0.167621
C37   C     C_R   0.791133 0.628991 0.370289 0.146917
C38   C     C_R   0.208870 0.371020 0.629719 0.146921
C39   C     C_R   0.716795 0.514279 0.491069 0.023387
C40   C     C_R   0.283203 0.485714 0.508929 0.023395
C41   C     C_R   0.628761 0.537467 0.467244 -0.008856
C42   C     C_R   0.371237 0.462527 0.532759 -0.008870
C43   C     C_R   0.619086 0.597288 0.384736 0.024612
C44   C     C_R   0.380912 0.402712 0.615270 0.024611
C45   C     C_R   0.548397 0.498670 0.519719 0.051037
C46   C     C_R   0.451602 0.501319 0.480286 0.051027
C47   C     C_R   0.438563 0.540768 0.389550 0.009430
C48   C     C_R   0.561433 0.459214 0.610454 0.009406
C49   C     C_R   0.524011 0.599490 0.346245 0.316937
C50   C     C_R   0.475982 0.400499 0.653757 0.316970
H7    H     H_    0.278016 0.543983 0.454789 0.138424
H8    H     H_    0.721980 0.456002 0.545202 0.138426
H9    H     H_    0.146051 0.335349 0.666791 0.186751
H10   H     H_    0.853955 0.664672 0.333220 0.186752
H11   H     H_    0.701735 0.699700 0.278807 0.202266
H12   H     H_    0.298272 0.300327 0.721211 0.202259
N3    N     N_R   0.804385 0.385790 0.930836 0.147175
O9    O     O_R   0.733429 0.345322 0.980639 -0.282523
O10   O     O_R   0.782642 0.371146 0.849825 -0.335950
N4    N     N_R   0.195612 0.614207 0.069164 0.147179
O11   O     O_R   0.266569 0.654675 0.019362 -0.282519
O12   O     O_R   0.217355 0.628850 0.150175 -0.335924
C51   C     C_3   0.336380 0.505936 0.332697 -0.664629
H13   H     H_    0.343486 0.486797 0.271156 0.271596
H14   H     H_    0.280615 0.434106 0.363758 0.229628
H15   H     H_    0.306858 0.567685 0.315584 0.255353
C52   C     C_3   0.663617 0.494017 0.667309 -0.664657
H16   H     H_    0.656522 0.513156 0.728855 0.271611
H17   H     H_    0.693116 0.432252 0.684413 0.255350
H18   H     H_    0.719394 0.565841 0.636256 0.229613
N5    N     N_R   0.649652 0.821196 0.523044 0.104647
O13   O     O_R   0.609320 0.728085 0.563338 -0.390197
O14   O     O_R   0.718008 0.842789 0.473438 -0.330802
N6    N     N_R   0.350349 0.178815 0.476929 0.104639
O15   O     O_R   0.390677 0.271919 0.436620 -0.390197
O16   O     O_R   0.282020 0.157241 0.526557 -0.330822
N7    N     N_R   0.050003 0.850172 0.383559 0.113896
O17   O     O_R   0.989469 0.878481 0.410507 -0.319697
O18   O     O_R   0.022204 0.812150 0.311051 -0.381162
N8    N     N_R   0.949989 0.149829 0.616456 0.113908
O19   O     O_R   0.010529 0.121509 0.589528 -0.319704
O20   O     O_R   0.977787 0.187886 0.688946 -0.381155
C53   C     C_3   0.815128 0.939516 0.640162 -0.618320
H19   H     H_    0.863959 0.969257 0.699965 0.239241
H20   H     H_    0.751467 0.870034 0.664183 0.231802
H21   H     H_    0.859255 0.918759 0.604480 0.278569
C54   C     C_3   0.184860 0.060485 0.359845 -0.618331
H22   H     H_    0.135987 0.030735 0.300059 0.239271
H23   H     H_    0.140776 0.081271 0.395549 0.278569
H24   H     H_    0.248517 0.129949 0.335794 0.231791
C55   C     C_3   0.451133 0.788929 0.438038 -0.713036
H25   H     H_    0.425382 0.714898 0.482490 0.225447
H26   H     H_    0.385987 0.798175 0.391884 0.238437
H27   H     H_    0.501406 0.786190 0.396384 0.275139
C56   C     C_3   0.548867 0.211081 0.561936 -0.713052
H28   H     H_    0.614011 0.201836 0.608093 0.238431
H29   H     H_    0.574620 0.285110 0.517481 0.225443
H30   H     H_    0.498595 0.213828 0.603587 0.275154
N9    N     N_R   0.510828 0.650480 0.258397 0.123901
O21   O     O_R   0.528583 0.620968 0.194289 -0.312913
O22   O     O_R   0.467035 0.715382 0.241067 -0.293305
N10   N     N_R   0.489154 0.349503 0.741604 0.123899
O23   O     O_R   0.471471 0.379063 0.805718 -0.312900
O24   O     O_R   0.532861 0.284526 0.758919 -0.293320

loop_
_geom_bond_atom_site_label_1
_geom_bond_atom_site_label_2
_geom_bond_distance
_ccdc_geom_bond_type
C48   C50   1.409589 A    
H3    C12   1.110114 S    
C53   H19   1.110195 S    
C13   C15   1.454014 S    
C2    C18   1.480994 S    
N7    O17   1.300902 A    
C20   C28   1.424467 A    
O7    Cu2   1.934252 S    
C48   C52   1.517829 S    
C51   H13   1.110895 S    
C25   C27   1.413577 A    
C24   H5    1.080874 S    
C52   H16   1.110895 S    
C30   C31   1.430135 A    
C5    H1    1.110129 S    
C54   H23   1.109695 S    
C19   C53   1.515067 S    
C7    C12   1.538836 S    
C9    C15   1.198134 T    
C55   H26   1.108600 S    
C31   C55   1.519609 S    
C39   C41   1.421965 A    
C40   C42   1.421963 A    
C42   C44   1.414650 A    
C31   C33   1.412231 A    
C3    C9    1.422237 S    
O4    Cu1   1.919921 S    
C36   H12   1.081681 S    
C35   C43   1.407712 A    
C47   C49   1.409589 A    
H4    C11   1.110113 S    
N1    C39   1.362934 A    
C18   C24   1.394074 A    
C39   H8    1.076550 S    
N5    O14   1.301277 A    
C21   N8    1.431712 S    
N1    C37   1.354586 A    
C37   H10   1.078383 S    
C8    N4    1.457204 S    
C56   H30   1.109886 S    
C6    C13   1.544776 S    
C52   H17   1.109607 S    
C45   C48   1.428614 A    
C53   H20   1.108302 S    
Cu1   Cu2   2.686674 S    
C33   N5    1.437631 S    
O2    C2    1.299894 A    
C8    C11   1.538836 S    
C51   H14   1.108878 S    
N10   O24   1.300915 A    
C32   C34   1.412225 A    
C35   C37   1.390165 A    
C6    C12   1.560629 S    
N2    C40   1.362932 A    
C54   H24   1.108304 S    
C36   C38   1.390153 A    
C41   C43   1.414665 A    
C7    C13   1.528282 S    
C8    C14   1.528280 S    
O4    C2    1.302098 A    
C55   H27   1.109883 S    
N4    O11   1.300168 A    
C25   C29   1.419163 A    
C36   C44   1.407704 A    
C17   C23   1.394081 A    
O5    C3    1.293135 A    
N3    O9    1.300167 A    
Cu1   N2    2.018068 S    
C49   N9    1.438448 S    
C43   C49   1.407541 A    
C47   C51   1.517827 S    
Cu2   N1    2.018068 S    
O5    Cu1   1.928525 S    
C6    H2    1.110129 S    
C38   H9    1.078384 S    
N6    O16   1.301276 A    
C27   C33   1.415582 A    
C28   C34   1.415579 A    
N3    O10   1.300092 A    
O3    Cu2   1.919919 S    
O8    C4    1.294440 A    
C53   H21   1.109703 S    
N8    O20   1.300505 A    
O7    C3    1.294440 A    
C29   C30   1.415742 A    
O1    C1    1.299893 A    
O1    Cu1   1.936771 S    
C18   C22   1.412959 A    
C51   H15   1.109603 S    
N10   O23   1.301269 A    
C56   H28   1.108598 S    
C52   H18   1.108878 S    
C5    C7    1.538894 S    
O6    Cu2   1.928524 S    
C32   C56   1.519609 S    
C20   C54   1.515068 S    
C12   C14   1.545178 S    
C35   H11   1.081682 S    
O3    C1    1.302093 A    
O8    Cu1   1.934252 S    
N7    O18   1.300507 A    
C40   H7    1.076551 S    
C11   C13   1.545178 S    
C54   H22   1.110196 S    
C4    C10   1.422237 S    
C41   C45   1.435649 A    
C44   C50   1.407525 A    
C42   C46   1.435638 A    
C19   C27   1.424477 A    
C46   C47   1.428600 A    
N9    O22   1.300875 A    
C14   C16   1.454015 S    
C23   C25   1.397333 A    
N9    O21   1.301329 A    
C50   N10   1.438432 S    
C24   C26   1.397336 A    
C23   H6    1.080871 S    
C22   N7    1.431701 S    
C5    C14   1.544775 S    
C17   C21   1.412959 A    
C26   C28   1.413584 A    
N6    O15   1.301060 A    
C19   C21   1.415106 A    
C20   C22   1.415096 A    
N4    O12   1.300092 A    
O2    Cu2   1.936770 S    
C29   C32   1.430137 A    
C10   C16   1.198133 T    
C5    C11   1.560630 S    
C45   C46   1.435856 A    
N2    C38   1.354584 A    
C26   C30   1.419161 A    
C6    C8    1.538893 S    
N8    O19   1.300910 A    
C34   N6    1.437633 S    
C7    N3    1.457203 S    
C1    C17   1.480988 S    
N5    O13   1.301059 A    
C55   H25   1.109352 S    
O6    C4    1.293133 A    
C56   H29   1.109352 S    
