data_mof_unit_24390.cif
_audit_creation_date              2012-12-10T17:37:18-0500
_audit_creation_method            fapswitch 2.2
_symmetry_space_group_name_H-M    P1
_symmetry_Int_Tables_number       1
_space_group_crystal_system       triclinic
_cell_length_a                    12.382933
_cell_length_b                    13.377124
_cell_length_c                    15.854938
_cell_angle_alpha                 76.949967
_cell_angle_beta                  101.716654
_cell_angle_gamma                 117.600327
_cell_volume                      2252.55998277

loop_
_atom_site_label
_atom_site_type_symbol
_atom_type_description
_atom_site_fract_x
_atom_site_fract_y
_atom_site_fract_z
_atom_type_partial_charge
C1    C     C_R   0.854164 0.286286 0.510969 0.806086
C2    C     C_3   0.999818 0.499062 0.917370 0.178370
C3    C     C_3   0.110150 0.573969 0.031456 -0.163219
C4    C     C_3   0.999154 0.499499 0.082550 0.183220
C5    C     C_3   0.024419 0.604324 0.955610 -0.158143
C6    C     C_3   0.913420 0.529853 0.008201 -0.150342
C7    C     C_1   0.000171 0.499076 0.825597 -0.048870
C8    C     C_1   0.999014 0.499862 0.174336 -0.070174
C9    C     C_R   0.289194 0.981929 0.587592 -0.186094
C10   C     C_R   0.230585 0.829366 0.505361 -0.041366
C11   C     C_R   0.811898 0.097807 0.478979 -0.193846
C12   C     C_R   0.000131 0.499821 0.659931 0.830574
C13   C     C_R   0.739817 0.981071 0.480197 -0.173951
C14   C     C_R   0.622250 0.927849 0.507592 0.091777
C15   C     C_R   0.572631 0.997892 0.524429 0.049536
C16   C     C_R   0.656016 0.109346 0.541845 0.058492
C17   C     C_R   0.446508 0.960525 0.531631 0.068343
C18   C     C_R   0.412735 0.018961 0.577781 0.152029
C19   C     C_R   0.503181 0.113064 0.614300 -0.221445
C20   C     C_R   0.623166 0.159860 0.594497 -0.186046
C21   C     C_R   0.352760 0.871156 0.490485 -0.228007
C22   C     C_R   0.198556 0.886409 0.552509 -0.192927
C23   C     C_R   0.145922 0.712704 0.491167 0.773838
C24   C     C_R   0.773016 0.162820 0.512268 -0.076728
C25   C     C_R   0.360243 0.345068 0.644786 -0.342143
C26   C     C_R   0.759291 0.641426 0.379731 0.083870
C27   C     C_R   0.661952 0.670540 0.350331 -0.267721
C28   C     C_R   0.557427 0.616833 0.393814 -0.212877
C29   C     C_R   0.550572 0.534457 0.468134 0.019552
C30   C     C_R   0.653608 0.508689 0.495787 0.286610
C31   C     C_R   0.447077 0.477002 0.517089 -0.018764
C32   C     C_R   0.454562 0.401242 0.593515 0.085768
C33   C     C_R   0.558122 0.382853 0.621018 -0.271086
C34   C     C_R   0.999900 0.500282 0.340025 0.808504
C35   C     C_R   0.652114 0.430693 0.570401 -0.172370
C36   C     C_R   0.338058 0.492712 0.496158 -0.079905
C37   C     C_R   0.256777 0.364135 0.624504 0.595220
C38   C     C_3   0.974548 0.394221 0.044299 -0.156314
C39   C     C_3   0.888816 0.424582 0.968434 -0.161326
C40   C     C_1   0.000312 0.499346 0.749906 -0.133255
C41   C     C_1   0.999215 0.500137 0.250016 -0.173670
C42   C     C_3   0.085547 0.468699 0.991691 -0.133373
Cu1   Cu    Cu3+1 0.098270 0.475420 0.519690 0.998438
Cu2   Cu    Cu3+1 0.901730 0.524580 0.480310 0.929835
H1    H     H_    0.797968 0.363255 0.941204 0.134773
H2    H     H_    0.372742 0.833447 0.445889 0.128718
H3    H     H_    0.901246 0.136311 0.455940 0.160098
H4    H     H_    0.778825 0.931257 0.463713 0.142452
H5    H     H_    0.692215 0.231149 0.624843 0.129324
H6    H     H_    0.566467 0.329705 0.682232 0.144072
H7    H     H_    0.370993 0.289629 0.703983 0.191937
H8    H     H_    0.326211 0.550157 0.439360 0.143311
H9    H     H_    0.839345 0.682835 0.344923 0.131717
H10   H     H_    0.954054 0.307953 0.082016 0.136582
H11   H     H_    0.484401 0.642025 0.369001 0.136039
H12   H     H_    0.667422 0.734519 0.293503 0.147231
H13   H     H_    0.722707 0.404714 0.591959 0.198018
H14   H     H_    0.842738 0.554965 0.016254 0.137295
H15   H     H_    0.044907 0.690581 0.917869 0.140950
H16   H     H_    0.201023 0.635322 0.058625 0.135350
H17   H     H_    0.156185 0.443585 0.983537 0.157337
H18   H     H_    0.104751 0.853873 0.565887 0.155912
H19   H     H_    0.479549 0.151122 0.656484 0.144382
H20   H     H_    0.263188 0.025230 0.624132 0.153185
N1    N     N_R   0.246280 0.438200 0.549540 -0.244057
N2    N     N_R   0.754330 0.561180 0.450980 -0.210195
O1    O     O_R   0.972510 0.318130 0.524770 -0.517464
O2    O     O_R   0.806530 0.359650 0.491510 -0.599716
O3    O     O_R   0.082970 0.479240 0.637550 -0.488126
O4    O     O_R   0.916990 0.520750 0.604290 -0.621027
O5    O     O_R   0.193470 0.640350 0.508490 -0.587146
O6    O     O_R   0.027490 0.681870 0.475230 -0.590919
O7    O     O_R   0.083010 0.479250 0.395710 -0.587817
O8    O     O_R   0.917030 0.520760 0.362450 -0.579206
C43   C     C_3   0.571506 0.800238 0.541428 -0.416747
C44   C     C_3   0.569778 0.778327 0.640722 -0.337665
C45   C     C_3   0.527397 0.652265 0.677688 -0.782903
H21   H     H_    0.431265 0.602513 0.650856 0.270620
H22   H     H_    0.587735 0.619993 0.661783 0.253991
H23   H     H_    0.531372 0.640588 0.749645 0.245285
H24   H     H_    0.663529 0.827353 0.672410 0.228060
H25   H     H_    0.506998 0.807194 0.657543 0.230485
H26   H     H_    0.479952 0.749784 0.509137 0.196831
H27   H     H_    0.631053 0.765550 0.527525 0.204338
S1    S     S_3+6 0.160663 0.303049 0.711090 0.009664
O9    O     O_2   0.180576 0.203565 0.764743 -0.325566
O10   O     O_2   0.200939 0.391764 0.769085 -0.313169
O11   O     O_3   0.009260 0.253806 0.681624 -0.523882
H28   H     H_    0.972869 0.236505 0.736354 0.351546

loop_
_geom_bond_atom_site_label_1
_geom_bond_atom_site_label_2
_ccdc_geom_bond_type
Cu1   O7    S    
C12   O3    A    
C3    C42   S    
C9    H20   S    
C6    H14   S    
Cu2   N2    S    
C19   C20   A    
C4    C8    S    
C45   H21   S    
C10   C22   A    
C26   C27   A    
C20   H5    S    
C30   C35   A    
C37   S1    S    
C28   C29   A    
C38   C42   S    
C31   C36   A    
C5    C6    S    
C33   C35   A    
C43   H27   S    
C45   H23   S    
C15   C16   A    
C11   C24   A    
C1    O2    A    
C18   C19   A    
C43   C44   S    
C25   C37   A    
C11   H3    S    
C2    C39   S    
C2    C7    S    
C19   H19   S    
C37   N1    A    
C7    C40   T    
Cu2   O4    S    
C36   H8    S    
Cu1   N1    S    
C39   H1    S    
C3    H16   S    
C25   C32   A    
S1    O10   D    
C16   C24   A    
C13   C14   A    
C34   C41   S    
C28   H11   S    
C45   H22   S    
C10   C21   A    
C5    H15   S    
C26   N2    A    
C23   O5    A    
C44   C45   S    
C4    C6    S    
C44   H25   S    
C36   N1    A    
C33   H6    S    
S1    O9    D    
C17   C21   A    
C12   C40   S    
Cu1   Cu2   S    
C25   H7    S    
C29   C30   A    
C22   H18   S    
C31   C32   A    
C38   H10   S    
C16   C20   A    
C14   C15   A    
C17   C18   A    
C8    C41   T    
Cu2   O8    S    
C42   H17   S    
C30   N2    A    
C34   O8    A    
C4    C38   S    
Cu2   O2    S    
C2    C5    S    
C3    C4    S    
C26   H9    S    
C21   H2    S    
S1    O11   S    
C15   C17   A    
C12   O4    A    
Cu1   O5    S    
C27   H12   S    
C23   O6    A    
C3    C5    S    
C44   H24   S    
C13   H4    S    
C10   C23   S    
C35   H13   S    
C14   C43   S    
C29   C31   A    
C32   C33   A    
C11   C13   A    
C43   H26   S    
C38   C39   S    
C2    C42   S    
C1    O1    A    
Cu2   O6    S    
C9    C22   A    
C34   O7    A    
C9    C18   A    
O11   H28   S    
C1    C24   S    
Cu1   O1    S    
C27   C28   A    
C6    C39   S    
Cu1   O3    S    
