data_mof_unit_25225.cif
_audit_creation_date              2012-10-26T18:34:24-0400
_audit_creation_method            fapswitch 2.2
_symmetry_space_group_name_H-M    P1
_symmetry_Int_Tables_number       1
_space_group_crystal_system       triclinic
_cell_length_a                    10.75776
_cell_length_b                    9.59822
_cell_length_c                    9.067723
_cell_angle_alpha                 89.710889
_cell_angle_beta                  91.356737
_cell_angle_gamma                 89.58445
_cell_volume                      935.991033295

loop_
_atom_site_label
_atom_site_type_symbol
_atom_type_description
_atom_site_fract_x
_atom_site_fract_y
_atom_site_fract_z
_atom_type_partial_charge
C1    C     C_R   0.262862 0.500406 0.499585 0.543717
C2    C     C_R   0.068781 0.500673 0.635751 -0.013034
C3    C     C_R   0.871278 0.498786 0.501014 0.029924
C4    C     C_R   0.128703 0.501130 0.498972 0.032467
C5    C     C_R   0.418413 0.076043 0.410929 0.198380
C6    C     C_R   0.580737 0.922804 0.589042 0.231416
C7    C     C_R   0.583375 0.070729 0.587086 0.184204
C8    C     C_R   0.418983 0.926366 0.410265 0.188168
C9    C     C_3   0.128854 0.501269 0.217138 -0.382875
C10   C     C_3   0.871104 0.498182 0.782830 -0.391987
C11   C     C_3   0.852732 0.498278 0.222276 -0.389844
C12   C     C_R   0.737131 0.499584 0.500402 0.538599
C13   C     C_3   0.147234 0.501498 0.777731 -0.389425
C14   C     C_R   0.500193 0.500211 0.220848 0.537080
C15   C     C_R   0.499785 0.499794 0.779151 0.529896
C16   C     C_1   0.500064 0.500294 0.065600 -0.070538
C17   C     C_1   0.499920 0.499710 0.934397 -0.072861
C18   C     C_R   0.061925 0.500446 0.362922 -0.005046
C19   C     C_R   0.938048 0.499299 0.637062 -0.006795
C20   C     C_R   0.931193 0.499148 0.364242 -0.013473
Cu1   Cu    Cu3+1 0.500000 0.640660 0.500000 0.990226
Cu2   Cu    Cu3+1 0.500000 0.359340 0.500000 0.954058
H1    H     H_    0.231394 0.503084 0.228466 0.152201
H2    H     H_    0.206376 0.595824 0.780471 0.141019
H3    H     H_    0.093284 0.501892 0.879850 0.115179
H4    H     H_    0.208061 0.407547 0.782434 0.141997
H5    H     H_    0.242959 0.125401 0.342289 0.205906
H6    H     H_    0.349784 0.125700 0.207275 0.203884
H7    H     H_    0.650932 0.876665 0.792481 0.222705
H8    H     H_    0.755947 0.870995 0.655996 0.226864
H9    H     H_    0.645767 0.208639 0.745349 0.270781
H10   H     H_    0.748493 0.173385 0.605461 0.256823
H11   H     H_    0.351104 0.880370 0.206120 0.204056
H12   H     H_    0.104907 0.406037 0.153847 0.124376
H13   H     H_    0.243916 0.879592 0.340808 0.206210
H14   H     H_    0.101226 0.595471 0.152401 0.123707
H15   H     H_    0.768571 0.496157 0.771478 0.143385
H16   H     H_    0.898855 0.403952 0.847444 0.122753
H17   H     H_    0.894903 0.593381 0.846248 0.128838
H18   H     H_    0.793565 0.403975 0.219601 0.141328
H19   H     H_    0.791932 0.592244 0.217534 0.141330
H20   H     H_    0.906670 0.497821 0.120146 0.114556
N1    N     N_R   0.500000 0.852070 0.500000 -0.195876
N2    N     N_R   0.500000 0.147930 0.500000 -0.205400
N3    N     N_3   0.333782 0.152766 0.316676 -0.558950
N4    N     N_3   0.664981 0.845852 0.683668 -0.547987
N5    N     N_3   0.680134 0.134508 0.673702 -0.660363
N6    N     N_3   0.334984 0.851803 0.315318 -0.562757
O1    O     O_R   0.319640 0.618740 0.499990 -0.476704
O2    O     O_R   0.680360 0.381260 0.500010 -0.520857
O3    O     O_R   0.680360 0.618740 0.500010 -0.474331
O4    O     O_R   0.319640 0.381260 0.499990 -0.471955
O5    O     O_R   0.500000 0.618760 0.288390 -0.474175
O6    O     O_R   0.500000 0.381240 0.711610 -0.517551
O7    O     O_R   0.500000 0.618760 0.711610 -0.471658
O8    O     O_R   0.500000 0.381240 0.288390 -0.471591

loop_
_geom_bond_atom_site_label_1
_geom_bond_atom_site_label_2
_ccdc_geom_bond_type
C9    H14   S    
C2    C4    A    
C8    N6    S    
C3    C19   A    
C6    C7    A    
Cu1   N1    S    
C5    C8    A    
C10   C19   S    
C14   O8    A    
C8    N1    A    
Cu2   O2    S    
H7    N4    S    
C10   H16   S    
C1    C4    S    
C4    C18   A    
H5    N3    S    
Cu1   O1    S    
C3    C20   A    
Cu2   O6    S    
H9    N5    S    
C7    N2    A    
Cu1   O5    S    
C2    C13   S    
C13   H3    S    
C14   O5    A    
C11   H18   S    
C5    N3    S    
C10   H15   S    
H13   N6    S    
C1    O4    A    
C5    N2    A    
C11   H19   S    
C18   C20   A    
C6    N1    A    
C9    H12   S    
H6    N3    S    
H10   N5    S    
C14   C16   S    
C13   H4    S    
C10   H17   S    
C15   C17   S    
C15   O6    A    
C9    C18   S    
Cu1   O3    S    
C12   O3    A    
C11   H20   S    
Cu2   O4    S    
Cu1   O7    S    
H11   N6    S    
Cu2   N2    S    
C16   C17   T    
Cu2   O8    S    
C3    C12   S    
C6    N4    S    
C2    C19   A    
Cu1   Cu2   S    
C1    O1    A    
C11   C20   S    
H8    N4    S    
C9    H1    S    
C13   H2    S    
C7    N5    S    
C12   O2    A    
C15   O7    A    
