data_mof_unit_64256.cif
_audit_creation_date              2013-03-05T16:18:58-0500
_audit_creation_method            fapswitch 2.2
_symmetry_space_group_name_H-M    P1
_symmetry_Int_Tables_number       1
_space_group_crystal_system       triclinic
_cell_length_a                    24.442507
_cell_length_b                    24.449199
_cell_length_c                    43.09009
_cell_angle_alpha                 89.999831
_cell_angle_beta                  89.932551
_cell_angle_gamma                 89.998473
_cell_volume                      25750.6077677

loop_
_atom_site_label
_atom_site_type_symbol
_atom_site_description
_atom_site_fract_x
_atom_site_fract_y
_atom_site_fract_z
_atom_type_partial_charge
Zn1   Zn    Zn3+2 0.500000 0.064990 0.224050 1.057111
Zn2   Zn    Zn3+2 0.500000 0.935010 0.775950 1.057737
Zn3   Zn    Zn3+2 0.935010 0.500000 0.224050 1.036376
Zn4   Zn    Zn3+2 0.064990 0.500000 0.775950 1.047346
Zn5   Zn    Zn3+2 0.500000 0.935010 0.224050 1.035978
Zn6   Zn    Zn3+2 0.500000 0.064990 0.775950 1.035244
Zn7   Zn    Zn3+2 0.064990 0.500000 0.224050 1.049809
Zn8   Zn    Zn3+2 0.935010 0.500000 0.775950 1.043995
Zn9   Zn    Zn3+2 0.000000 0.564990 0.724050 1.030201
Zn10  Zn    Zn3+2 0.000000 0.435010 0.275950 1.023804
Zn11  Zn    Zn3+2 0.435010 1.000000 0.724050 1.032532
Zn12  Zn    Zn3+2 0.564990 1.000000 0.275950 1.033323
Zn13  Zn    Zn3+2 0.000000 0.435010 0.724050 1.055116
Zn14  Zn    Zn3+2 0.000000 0.564990 0.275950 1.055404
Zn15  Zn    Zn3+2 0.564990 1.000000 0.724050 1.058809
Zn16  Zn    Zn3+2 0.435010 1.000000 0.275950 1.058672
C1    C     C_R   0.271332 0.228637 0.249979 0.105131
C2    C     C_R   0.728754 0.771391 0.750079 0.109444
C3    C     C_R   0.771327 0.271345 0.250012 0.106034
C4    C     C_R   0.228712 0.728615 0.749968 0.105861
C5    C     C_R   0.728755 0.771388 0.249917 0.110355
C6    C     C_R   0.271302 0.228623 0.750038 0.104918
C7    C     C_R   0.228786 0.728535 0.250090 0.105625
C8    C     C_R   0.771287 0.271361 0.749963 0.109315
C9    C     C_R   0.271371 0.771290 0.749977 0.108630
C10   C     C_R   0.728665 0.228674 0.250001 0.108573
C11   C     C_R   0.771422 0.728729 0.750087 0.102747
C12   C     C_R   0.228665 0.271302 0.249959 0.108305
C13   C     C_R   0.728635 0.228683 0.749965 0.104841
C14   C     C_R   0.271428 0.771223 0.250097 0.108854
C15   C     C_R   0.228625 0.271281 0.750046 0.107700
C16   C     C_R   0.771436 0.728737 0.249920 0.102156
O1    O     O_3   0.500000 1.000000 0.250000 -0.508768
O2    O     O_3   0.500000 0.000000 0.750000 -0.508603
O3    O     O_3   0.000000 0.500000 0.250000 -0.510181
O4    O     O_3   0.000000 0.500000 0.750000 -0.509594
O5    O     O_R   0.454480 1.000000 0.319300 -0.593686
O6    O     O_R   0.545520 0.000000 0.680700 -0.593453
O7    O     O_R   0.000000 0.454480 0.319300 -0.636547
O8    O     O_R   0.000000 0.545520 0.680700 -0.640723
O9    O     O_R   0.545520 1.000000 0.319300 -0.636743
O10   O     O_R   0.454480 0.000000 0.680700 -0.638826
O11   O     O_R   0.000000 0.545520 0.319300 -0.594329
O12   O     O_R   0.000000 0.454480 0.680700 -0.589998
O13   O     O_R   0.954480 0.500000 0.819300 -0.613459
O14   O     O_R   0.045520 0.500000 0.180700 -0.594336
O15   O     O_R   0.500000 0.954480 0.819300 -0.590459
O16   O     O_R   0.500000 0.045520 0.180700 -0.593447
O17   O     O_R   0.045520 0.500000 0.819300 -0.612829
O18   O     O_R   0.954480 0.500000 0.180700 -0.620262
O19   O     O_R   0.500000 0.045520 0.819300 -0.640997
O20   O     O_R   0.500000 0.954480 0.180700 -0.636289
O21   O     O_R   0.609440 0.064000 0.268180 -0.647583
O22   O     O_R   0.390560 0.936000 0.731820 -0.645897
O23   O     O_R   0.936000 0.609440 0.268180 -0.641388
O24   O     O_R   0.064000 0.390560 0.731820 -0.643512
O25   O     O_R   0.390560 0.936000 0.268180 -0.637742
O26   O     O_R   0.609440 0.064000 0.731820 -0.640260
O27   O     O_R   0.064000 0.390560 0.268180 -0.648157
O28   O     O_R   0.936000 0.609440 0.731820 -0.646142
O29   O     O_R   0.609440 0.936000 0.731820 -0.634572
O30   O     O_R   0.390560 0.064000 0.268180 -0.637041
O31   O     O_R   0.936000 0.390560 0.731820 -0.633896
O32   O     O_R   0.064000 0.609440 0.268180 -0.634542
O33   O     O_R   0.390560 0.064000 0.731820 -0.642128
O34   O     O_R   0.609440 0.936000 0.268180 -0.640769
O35   O     O_R   0.064000 0.609440 0.731820 -0.640259
O36   O     O_R   0.936000 0.390560 0.268180 -0.642977
O37   O     O_R   0.109440 0.564000 0.768180 -0.645943
O38   O     O_R   0.890560 0.436000 0.231820 -0.645471
O39   O     O_R   0.436000 0.109440 0.768180 -0.643140
O40   O     O_R   0.564000 0.890560 0.231820 -0.645174
O41   O     O_R   0.890560 0.436000 0.768180 -0.647753
O42   O     O_R   0.109440 0.564000 0.231820 -0.643042
O43   O     O_R   0.564000 0.890560 0.768180 -0.642382
O44   O     O_R   0.436000 0.109440 0.231820 -0.642306
O45   O     O_R   0.109440 0.436000 0.231820 -0.623477
O46   O     O_R   0.890560 0.564000 0.768180 -0.629912
O47   O     O_R   0.436000 0.890560 0.231820 -0.641419
O48   O     O_R   0.564000 0.109440 0.768180 -0.639791
O49   O     O_R   0.890560 0.564000 0.231820 -0.627303
O50   O     O_R   0.109440 0.436000 0.768180 -0.626866
O51   O     O_R   0.564000 0.109440 0.231820 -0.631552
O52   O     O_R   0.436000 0.890560 0.768180 -0.633231
C17   C     C_R   0.500446 0.998923 0.032632 0.143675
C18   C     C_R   0.499612 0.001062 0.967372 0.143813
C19   C     C_R   0.996430 0.496799 0.032594 0.146248
C20   C     C_R   0.997261 0.497490 0.967442 0.145455
C21   C     C_R   0.999593 0.501122 0.532635 0.143382
C22   C     C_R   0.000388 0.498933 0.467370 0.143516
C23   C     C_R   0.498979 0.999759 0.532637 0.143321
C24   C     C_R   0.501098 0.000498 0.467370 0.143474
C25   C     C_R   0.950460 0.494076 0.384253 0.266450
C26   C     C_R   0.049560 0.505791 0.615742 0.267224
C27   C     C_R   0.504723 0.950342 0.384245 0.267099
C28   C     C_R   0.495475 0.049780 0.615784 0.265900
C29   C     C_R   0.050402 0.505178 0.384243 0.263111
C30   C     C_R   0.949575 0.495047 0.615761 0.262508
C31   C     C_R   0.495824 0.050479 0.384249 0.263343
C32   C     C_R   0.503965 0.949605 0.615724 0.263655
C33   C     C_R   0.449670 0.993606 0.884336 0.262587
C34   C     C_R   0.550358 0.006271 0.115673 0.263286
C35   C     C_R   0.031609 0.460937 0.884415 0.277052
C36   C     C_R   0.967814 0.538639 0.115528 0.287118
C37   C     C_R   0.549304 0.007249 0.884174 0.268630
C38   C     C_R   0.450683 0.992945 0.115816 0.268306
C39   C     C_R   0.966838 0.537647 0.884502 0.280351
C40   C     C_R   0.030781 0.460638 0.115417 0.277407
C41   C     C_R   0.951346 0.492780 0.416743 -0.213503
C42   C     C_R   0.048666 0.507106 0.583252 -0.212905
C43   C     C_R   0.506053 0.951263 0.416734 -0.212796
C44   C     C_R   0.494149 0.048925 0.583294 -0.213089
C45   C     C_R   0.049669 0.503768 0.416729 -0.211761
C46   C     C_R   0.950308 0.496445 0.583274 -0.211271
C47   C     C_R   0.497251 0.049780 0.416735 -0.211768
C48   C     C_R   0.502585 0.950375 0.583237 -0.211471
C49   C     C_R   0.450426 0.994987 0.916821 -0.210956
C50   C     C_R   0.549622 0.004883 0.083188 -0.210649
C51   C     C_R   0.030852 0.461212 0.916861 -0.220126
C52   C     C_R   0.965904 0.536124 0.083081 -0.224396
C53   C     C_R   0.548428 0.008520 0.916666 -0.213139
C54   C     C_R   0.451578 0.991644 0.083325 -0.213621
C55   C     C_R   0.965839 0.535815 0.916937 -0.219893
C56   C     C_R   0.028210 0.459248 0.083088 -0.208924
H1    H     H_    0.913190 0.489217 0.429396 0.187148
H2    H     H_    0.086824 0.510562 0.570592 0.187371
H3    H     H_    0.508783 0.913074 0.429383 0.187177
H4    H     H_    0.491557 0.087144 0.570665 0.187267
H5    H     H_    0.087787 0.507187 0.429380 0.187563
H6    H     H_    0.912179 0.493155 0.570621 0.187738
H7    H     H_    0.494671 0.087976 0.429392 0.187593
H8    H     H_    0.505036 0.912199 0.570553 0.187787
H9    H     H_    0.412426 0.990609 0.929543 0.187527
H10   H     H_    0.587639 0.009163 0.070471 0.187525
H11   H     H_    0.054617 0.431064 0.929408 0.185440
H12   H     H_    0.942157 0.566141 0.070423 0.186925
H13   H     H_    0.586493 0.013077 0.929253 0.187090
H14   H     H_    0.413511 0.987199 0.070727 0.186913
H15   H     H_    0.941449 0.565380 0.929574 0.185574
H16   H     H_    0.051257 0.428363 0.070639 0.180467
C57   C     C_R   0.000498 0.498178 0.433094 -0.016824
C58   C     C_R   0.999493 0.501870 0.566908 -0.017271
C59   C     C_R   0.501780 0.000541 0.433093 -0.016843
C60   C     C_R   0.498259 0.999662 0.566911 -0.017109
C61   C     C_R   0.499456 0.001823 0.933099 -0.016985
C62   C     C_R   0.500582 0.998176 0.066903 -0.016803
C63   C     C_R   0.997890 0.498107 0.933227 -0.014068
C64   C     C_R   0.996381 0.497061 0.066775 -0.016510
C65   C     C_R   0.499931 0.000299 0.333945 0.974207
C66   C     C_R   0.500067 0.999723 0.666055 0.973729
C67   C     C_R   0.000371 0.500040 0.333943 0.974966
C68   C     C_R   0.999642 0.499963 0.666057 0.973084
C69   C     C_R   0.999944 0.500008 0.834000 0.947764
C70   C     C_R   0.000113 0.499721 0.165976 0.903523
C71   C     C_R   0.499548 0.999962 0.833944 0.971032
C72   C     C_R   0.500443 0.000041 0.166055 0.972109
C73   C     C_R   0.605151 0.105145 0.249990 0.819279
C74   C     C_R   0.394853 0.894851 0.750007 0.819248
C75   C     C_R   0.894873 0.605159 0.249992 0.830213
C76   C     C_R   0.105137 0.394841 0.750004 0.826145
C77   C     C_R   0.394842 0.894844 0.250013 0.822870
C78   C     C_R   0.605164 0.105144 0.749994 0.823925
C79   C     C_R   0.105159 0.394841 0.249984 0.808168
C80   C     C_R   0.894850 0.605154 0.750017 0.820811
C81   C     C_R   0.605164 0.894846 0.749992 0.825318
C82   C     C_R   0.394841 0.105144 0.250007 0.825730
C83   C     C_R   0.894828 0.394857 0.750000 0.813107
C84   C     C_R   0.105180 0.605128 0.250007 0.814986
C85   C     C_R   0.394861 0.105151 0.750002 0.814172
C86   C     C_R   0.605148 0.894846 0.249995 0.812682
C87   C     C_R   0.105150 0.605143 0.749991 0.808850
C88   C     C_R   0.894852 0.394854 0.250008 0.803610
C89   C     C_R   0.000346 0.500511 0.367861 -0.252857
C90   C     C_R   0.999655 0.499510 0.632138 -0.252300
C91   C     C_R   0.499399 0.000319 0.367863 -0.251673
C92   C     C_R   0.500595 0.999751 0.632138 -0.251910
C93   C     C_R   0.499585 0.999511 0.867865 -0.251976
C94   C     C_R   0.500420 0.000505 0.132134 -0.251954
C95   C     C_R   0.999652 0.499668 0.868015 -0.264491
C96   C     C_R   0.000385 0.500388 0.131932 -0.258259
C97   C     C_R   0.032150 0.537368 0.483543 -0.164173
C98   C     C_R   0.967824 0.462694 0.516464 -0.163666
C99   C     C_R   0.463404 0.033118 0.483604 -0.163984
C100  C     C_R   0.536678 0.967146 0.516406 -0.163940
C101  C     C_R   0.968206 0.461618 0.484115 -0.162438
C102  C     C_R   0.031777 0.538435 0.515892 -0.162657
C103  C     C_R   0.537719 0.967502 0.484057 -0.162244
C104  C     C_R   0.462372 0.032772 0.515954 -0.162389
C105  C     C_R   0.530758 0.039250 0.984070 -0.162473
C106  C     C_R   0.469299 0.960736 0.015937 -0.161993
C107  C     C_R   0.947718 0.502632 0.983725 -0.164546
C108  C     C_R   0.045921 0.491588 0.016317 -0.164538
C109  C     C_R   0.468909 0.961778 0.983589 -0.163653
C110  C     C_R   0.531157 0.038200 0.016418 -0.163986
C111  C     C_R   0.046342 0.491977 0.984016 -0.164278
C112  C     C_R   0.947319 0.502372 0.016070 -0.163815
H17   H     H_    0.056636 0.567148 0.471147 0.149432
H18   H     H_    0.943331 0.432924 0.528864 0.150018
H19   H     H_    0.434155 0.058257 0.471255 0.149593
H20   H     H_    0.565912 0.941995 0.528759 0.149949
H21   H     H_    0.943920 0.431135 0.472182 0.151877
H22   H     H_    0.056070 0.568908 0.527829 0.151671
H23   H     H_    0.567639 0.942537 0.472077 0.152087
H24   H     H_    0.432460 0.057740 0.527939 0.151841
H25   H     H_    0.554201 0.070382 0.972102 0.151406
H26   H     H_    0.445847 0.929615 0.027909 0.151955
H27   H     H_    0.909263 0.506204 0.971431 0.151814
H28   H     H_    0.084401 0.488155 0.028604 0.150379
H29   H     H_    0.445245 0.931339 0.971225 0.149747
H30   H     H_    0.554824 0.068633 0.028785 0.149495
H31   H     H_    0.085147 0.488847 0.971986 0.151782
H32   H     H_    0.908625 0.505872 0.028183 0.151883
C113  C     C_R   0.276760 0.193114 0.275415 -0.162884
C114  C     C_R   0.739656 0.823287 0.737523 -0.159654
C115  C     C_R   0.807091 0.276568 0.275335 -0.161822
C116  C     C_R   0.192946 0.723390 0.724645 -0.161268
C117  C     C_R   0.739608 0.823302 0.262443 -0.159469
C118  C     C_R   0.276687 0.192938 0.724668 -0.160844
C119  C     C_R   0.192995 0.723202 0.275438 -0.163410
C120  C     C_R   0.823293 0.260437 0.737521 -0.161734
C121  C     C_R   0.260388 0.823308 0.737625 -0.160957
C122  C     C_R   0.739640 0.176653 0.262352 -0.161368
C123  C     C_R   0.807002 0.723232 0.724656 -0.159284
C124  C     C_R   0.176738 0.260456 0.262527 -0.159833
C125  C     C_R   0.723352 0.192988 0.724599 -0.160809
C126  C     C_R   0.260408 0.823201 0.262511 -0.160623
C127  C     C_R   0.176674 0.260359 0.737594 -0.159510
C128  C     C_R   0.806925 0.723262 0.275350 -0.160509
C129  C     C_R   0.776855 0.693175 0.775509 -0.161154
C130  C     C_R   0.239552 0.323176 0.237369 -0.158945
C131  C     C_R   0.323373 0.760325 0.762351 -0.159316
C132  C     C_R   0.676662 0.239649 0.237632 -0.159028
C133  C     C_R   0.239541 0.323241 0.762494 -0.156735
C134  C     C_R   0.776985 0.693181 0.224502 -0.160307
C135  C     C_R   0.692913 0.223316 0.775343 -0.161627
C136  C     C_R   0.323450 0.760310 0.237672 -0.158612
C137  C     C_R   0.776599 0.307159 0.224694 -0.161501
C138  C     C_R   0.223435 0.692810 0.775289 -0.161635
C139  C     C_R   0.306933 0.223121 0.224558 -0.159673
C140  C     C_R   0.676797 0.760503 0.762594 -0.158546
C141  C     C_R   0.223551 0.692828 0.224726 -0.161193
C142  C     C_R   0.760313 0.323319 0.762416 -0.160227
C143  C     C_R   0.676844 0.760484 0.237409 -0.158445
C144  C     C_R   0.306977 0.223294 0.775394 -0.158356
H33   H     H_    0.250564 0.197050 0.295570 0.142140
H34   H     H_    0.779628 0.833160 0.728231 0.138040
H35   H     H_    0.803351 0.250205 0.295414 0.142181
H36   H     H_    0.196692 0.749745 0.704563 0.142088
H37   H     H_    0.779545 0.833190 0.271727 0.137574
H38   H     H_    0.250439 0.196725 0.704560 0.142093
H39   H     H_    0.196714 0.749475 0.295552 0.142495
H40   H     H_    0.833238 0.220467 0.728284 0.137306
H41   H     H_    0.220383 0.833249 0.728456 0.137730
H42   H     H_    0.779646 0.166705 0.271518 0.136936
H43   H     H_    0.803133 0.749390 0.704503 0.142085
H44   H     H_    0.166852 0.220545 0.271865 0.137852
H45   H     H_    0.749650 0.196799 0.704478 0.142525
H46   H     H_    0.220387 0.833097 0.271727 0.137730
H47   H     H_    0.166770 0.220384 0.728363 0.137369
H48   H     H_    0.802967 0.749431 0.295498 0.142292
H49   H     H_    0.750669 0.697098 0.795669 0.146498
H50   H     H_    0.279499 0.333022 0.228032 0.139796
H51   H     H_    0.333333 0.720312 0.771510 0.138443
H52   H     H_    0.666714 0.279664 0.228473 0.139176
H53   H     H_    0.279505 0.333150 0.771732 0.139604
H54   H     H_    0.750878 0.697089 0.204343 0.146228
H55   H     H_    0.696668 0.249581 0.795458 0.141308
H56   H     H_    0.333432 0.720325 0.228469 0.138640
H57   H     H_    0.750277 0.303461 0.204612 0.141284
H58   H     H_    0.249759 0.696509 0.795370 0.141459
H59   H     H_    0.303067 0.249249 0.204392 0.144639
H60   H     H_    0.666910 0.720576 0.771910 0.138682
H61   H     H_    0.249905 0.696610 0.204627 0.141864
H62   H     H_    0.720303 0.333224 0.771645 0.139345
H63   H     H_    0.666999 0.720544 0.228110 0.139010
H64   H     H_    0.303150 0.249556 0.795511 0.144458
C145  C     C_R   0.316754 0.152589 0.275319 -0.154616
C146  C     C_R   0.699238 0.863384 0.737279 -0.156508
C147  C     C_R   0.847613 0.316565 0.275228 -0.158209
C148  C     C_R   0.152412 0.683405 0.724759 -0.157107
C149  C     C_R   0.699188 0.863398 0.262671 -0.162125
C150  C     C_R   0.316705 0.152440 0.724764 -0.159103
C151  C     C_R   0.152464 0.683221 0.275307 -0.151130
C152  C     C_R   0.863416 0.300824 0.737331 -0.161039
C153  C     C_R   0.300766 0.863444 0.737436 -0.161073
C154  C     C_R   0.699253 0.136526 0.262547 -0.162160
C155  C     C_R   0.847490 0.683211 0.724746 -0.165304
C156  C     C_R   0.136621 0.300851 0.262728 -0.166697
C157  C     C_R   0.683376 0.152448 0.724717 -0.158949
C158  C     C_R   0.300766 0.863360 0.262694 -0.158874
C159  C     C_R   0.136560 0.300761 0.737375 -0.162677
C160  C     C_R   0.847428 0.683249 0.275263 -0.159541
C161  C     C_R   0.816834 0.652631 0.775386 -0.145525
C162  C     C_R   0.199157 0.363298 0.237157 -0.142454
C163  C     C_R   0.363478 0.800735 0.762576 -0.157462
C164  C     C_R   0.636547 0.199249 0.237412 -0.156323
C165  C     C_R   0.199154 0.363368 0.762689 -0.144548
C166  C     C_R   0.816977 0.652655 0.224627 -0.144699
C167  C     C_R   0.652420 0.183298 0.775245 -0.157089
C168  C     C_R   0.363533 0.800737 0.237444 -0.159437
C169  C     C_R   0.816596 0.347673 0.224806 -0.171044
C170  C     C_R   0.183424 0.652309 0.775184 -0.169986
C171  C     C_R   0.347447 0.183125 0.224679 -0.160938
C172  C     C_R   0.636649 0.800870 0.762754 -0.159748
C173  C     C_R   0.183537 0.652327 0.224811 -0.169525
C174  C     C_R   0.800710 0.363438 0.762637 -0.163136
C175  C     C_R   0.636690 0.800850 0.237235 -0.162057
C176  C     C_R   0.347519 0.183319 0.775271 -0.163561
H65   H     H_    0.320240 0.125783 0.295234 0.173329
H66   H     H_    0.708679 0.903126 0.727538 0.162480
H67   H     H_    0.874608 0.319874 0.295057 0.169687
H68   H     H_    0.125415 0.680096 0.704930 0.169543
H69   H     H_    0.708599 0.903152 0.272392 0.160935
H70   H     H_    0.320139 0.125505 0.704897 0.169031
H71   H     H_    0.125441 0.679828 0.295157 0.174092
H72   H     H_    0.903243 0.291362 0.727675 0.160664
H73   H     H_    0.291262 0.903276 0.727848 0.162356
H74   H     H_    0.708750 0.096692 0.272134 0.160646
H75   H     H_    0.874339 0.679682 0.704828 0.167462
H76   H     H_    0.096862 0.291453 0.272493 0.162378
H77   H     H_    0.680008 0.125511 0.704853 0.170354
H78   H     H_    0.291238 0.903165 0.272324 0.162284
H79   H     H_    0.096780 0.291307 0.727708 0.160408
H80   H     H_    0.874196 0.679725 0.295180 0.170547
H81   H     H_    0.820334 0.625804 0.795293 0.184780
H82   H     H_    0.208586 0.403020 0.227386 0.168927
H83   H     H_    0.403302 0.791245 0.772175 0.161260
H84   H     H_    0.596724 0.208748 0.227816 0.163048
H85   H     H_    0.208610 0.403156 0.772351 0.165485
H86   H     H_    0.820560 0.625827 0.204720 0.184506
H87   H     H_    0.625456 0.179878 0.795118 0.170010
H88   H     H_    0.403370 0.791286 0.227798 0.161327
H89   H     H_    0.819936 0.374706 0.204977 0.165399
H90   H     H_    0.180079 0.625284 0.795015 0.166158
H91   H     H_    0.374318 0.179585 0.204771 0.170448
H92   H     H_    0.596860 0.791437 0.772470 0.161288
H93   H     H_    0.180209 0.625382 0.204948 0.168760
H94   H     H_    0.791219 0.403226 0.772301 0.164187
H95   H     H_    0.596936 0.791403 0.227531 0.161616
H96   H     H_    0.374443 0.179926 0.795127 0.167331
C177  C     C_R   0.352472 0.147481 0.250004 -0.012813
C178  C     C_R   0.647548 0.852498 0.749997 -0.001023
C179  C     C_R   0.852489 0.352494 0.250015 -0.007303
C180  C     C_R   0.147525 0.647491 0.749977 -0.008788
C181  C     C_R   0.647538 0.852495 0.249969 -0.001872
C182  C     C_R   0.352499 0.147510 0.750011 -0.009751
C183  C     C_R   0.147599 0.647422 0.250041 -0.011480
C184  C     C_R   0.852449 0.352508 0.749995 -0.001289
C185  C     C_R   0.352498 0.852478 0.750012 -0.000418
C186  C     C_R   0.647518 0.147506 0.249978 -0.000465
C187  C     C_R   0.852514 0.647525 0.750051 -0.016262
C188  C     C_R   0.147513 0.352464 0.249951 -0.002138
C189  C     C_R   0.647529 0.147490 0.749985 -0.012284
C190  C     C_R   0.352510 0.852450 0.250052 -0.002029
C191  C     C_R   0.147482 0.352456 0.750019 -0.001442
C192  C     C_R   0.852559 0.647557 0.249961 -0.018680
N1    N     N_R   0.898691 0.488920 0.368484 0.208467
O53   O     O_R   0.889293 0.515052 0.342728 -0.410937
O54   O     O_R   0.858618 0.462361 0.381495 -0.369647
N2    N     N_R   0.101351 0.510803 0.631504 0.208461
O55   O     O_R   0.110665 0.484708 0.657282 -0.408177
O56   O     O_R   0.141509 0.537206 0.618475 -0.370244
N3    N     N_R   0.508799 0.898454 0.368474 0.209258
O57   O     O_R   0.482600 0.889596 0.342688 -0.407564
O58   O     O_R   0.534409 0.857834 0.381502 -0.367639
N4    N     N_R   0.491586 0.101652 0.631586 0.207793
O59   O     O_R   0.517868 0.110387 0.657359 -0.410927
O60   O     O_R   0.466076 0.142372 0.618595 -0.369997
N5    N     N_R   0.102288 0.510304 0.368511 0.204490
O61   O     O_R   0.106610 0.537738 0.342755 -0.407609
O62   O     O_R   0.146708 0.492168 0.381584 -0.366593
N6    N     N_R   0.897668 0.490149 0.631495 0.203868
O63   O     O_R   0.893254 0.462861 0.657296 -0.401641
O64   O     O_R   0.853311 0.508397 0.618403 -0.368141
N7    N     N_R   0.491703 0.102403 0.368515 0.204789
O65   O     O_R   0.464426 0.107164 0.342747 -0.409500
O66   O     O_R   0.510630 0.146498 0.381586 -0.366243
N8    N     N_R   0.507838 0.897630 0.631427 0.205095
O67   O     O_R   0.534916 0.892727 0.657253 -0.404428
O68   O     O_R   0.488836 0.853625 0.618292 -0.366368
N9    N     N_R   0.397859 0.987402 0.868712 0.203407
O69   O     O_R   0.394054 0.960073 0.842902 -0.401392
O70   O     O_R   0.353088 0.004480 0.881919 -0.369045
N10   N     N_R   0.602167 0.012375 0.131309 0.204181
O71   O     O_R   0.606013 0.039785 0.157090 -0.401826
O72   O     O_R   0.646908 0.995156 0.118129 -0.367387
N11   N     N_R   0.063357 0.419840 0.868638 0.221942
O73   O     O_R   0.043161 0.393857 0.844910 -0.404081
O74   O     O_R   0.109133 0.402751 0.880606 -0.370746
N12   N     N_R   0.938029 0.581277 0.131242 0.220890
O75   O     O_R   0.959498 0.606640 0.154826 -0.404363
O76   O     O_R   0.892568 0.599780 0.119566 -0.378663
N13   N     N_R   0.600905 0.013708 0.868316 0.208809
O77   O     O_R   0.610958 0.987734 0.842575 -0.409761
O78   O     O_R   0.640279 0.041356 0.881232 -0.372507
N14   N     N_R   0.399046 0.986715 0.131665 0.209907
O79   O     O_R   0.389079 0.012771 0.157390 -0.412606
O80   O     O_R   0.359560 0.959235 0.118744 -0.368980
N15   N     N_R   0.935828 0.579415 0.868849 0.219899
O81   O     O_R   0.956886 0.605958 0.845537 -0.408374
O82   O     O_R   0.889670 0.596286 0.880501 -0.377543
N16   N     N_R   0.062784 0.420004 0.131083 0.200127
O83   O     O_R   0.107278 0.434275 0.145494 -0.354730
O84   O     O_R   0.054684 0.368531 0.124972 -0.379749

loop_
_geom_bond_atom_site_label_1
_geom_bond_atom_site_label_2
_geom_bond_distance
_ccdc_geom_bond_type
C141  C173  1.391815 A    
C23   C104  1.403680 A    
Zn4   O4    1.943684 S    
C115  H35   1.082697 S    
N1    O53   1.301273 A    
C116  C148  1.391875 A    
C21   C102  1.403653 A    
C176  C182  1.402046 A    
C76   C191  1.464613 S    
C171  H91   1.083221 S    
C86   C181  1.464795 S    
C49   H9    1.083272 S    
C130  H50   1.082698 S    
C24   C103  1.403747 A    
C16   C134  1.404738 A    
C124  H44   1.082703 S    
C27   N3    1.442545 S    
O17   C69   1.280841 A    
N14   O80   1.301603 A    
C144  C176  1.391820 A    
C18   C109  1.404551 A    
C30   C46   1.400370 A    
O9    C65   1.279966 A    
N6    O63   1.300948 A    
C102  H22   1.083034 S    
C138  H58   1.082698 S    
C27   C91   1.417235 A    
C107  C112  1.393790 A    
C72   C94   1.461699 S    
C105  C110  1.394169 A    
C106  H26   1.083047 S    
O44   C82   1.278838 A    
C28   C92   1.417261 A    
Zn2   O2    1.942963 S    
N7    O66   1.301607 A    
C147  C179  1.402075 A    
C79   C188  1.464622 S    
C118  H38   1.082701 S    
O47   C77   1.278944 A    
C6    C144  1.404747 A    
Zn4   O37   1.933955 S    
C170  C180  1.402093 A    
C122  H42   1.082702 S    
C145  C177  1.401956 A    
Zn6   O39   1.934270 S    
C7    C119  1.404689 A    
C166  H86   1.083275 S    
C29   C89   1.417828 A    
C19   C64   1.472845 S    
C37   N13   1.442436 S    
C108  C111  1.391929 A    
C164  C186  1.402088 A    
N12   O76   1.301460 A    
Zn12  O34   1.933910 S    
C65   C91   1.461542 S    
C98   C101  1.394194 A    
C56   C64   1.398345 A    
Zn6   O48   1.933679 S    
Zn13  O31   1.933679 S    
Zn14  O32   1.933679 S    
Zn3   O38   1.933955 S    
C160  C192  1.401994 A    
Zn15  O29   1.934351 S    
C120  C152  1.391742 A    
C121  C153  1.391794 A    
C148  C180  1.402066 A    
C133  C165  1.391760 A    
C8    C120  1.404636 A    
C156  C188  1.402153 A    
C11   C129  1.404821 A    
C52   C64   1.399828 A    
C120  H40   1.082707 S    
N9    O69   1.300865 A    
C150  C182  1.402066 A    
N11   O73   1.301488 A    
O26   C78   1.279030 A    
C18   C61   1.476971 S    
C12   C130  1.404752 A    
C81   C178  1.464638 S    
C174  H94   1.083195 S    
N15   O82   1.301446 A    
C39   C95   1.417358 A    
C149  C181  1.402176 A    
C37   C93   1.417247 A    
N10   O72   1.301613 A    
N7    O65   1.301000 A    
Zn1   O16   1.927662 S    
Zn10  O36   1.934318 S    
Zn2   O15   1.927662 S    
C116  H36   1.082699 S    
N13   O77   1.301278 A    
C11   C123  1.404643 A    
Zn4   O17   1.927086 S    
O35   C87   1.279689 A    
C172  H92   1.083202 S    
C122  C154  1.391804 A    
C75   C192  1.464292 S    
C175  C181  1.402179 A    
C145  H65   1.083234 S    
C4    C138  1.404686 A    
C25   C89   1.417198 A    
C158  C190  1.402073 A    
C3    C115  1.404767 A    
C54   C62   1.399616 A    
C143  C175  1.391886 A    
C22   C57   1.477079 S    
C112  H32   1.083093 S    
O25   C77   1.279103 A    
Zn16  O30   1.934351 S    
Zn12  O1    1.943684 S    
C99   C104  1.394206 A    
C51   C63   1.399568 A    
Zn13  O12   1.927660 S    
Zn2   O43   1.933633 S    
Zn14  O11   1.927660 S    
C20   C107  1.404457 A    
C161  H81   1.083280 S    
C14   C126  1.404746 A    
C38   N14   1.442416 S    
C97   H17   1.083012 S    
C157  H77   1.083215 S    
C131  C163  1.391840 A    
C80   C187  1.464204 S    
O19   C71   1.280229 A    
O12   C68   1.278593 A    
C127  C159  1.391836 A    
Zn5   O40   1.934270 S    
C136  C168  1.391741 A    
O37   C87   1.279585 A    
C137  C169  1.391766 A    
O22   C74   1.279652 A    
C101  H21   1.083024 S    
N15   O81   1.301503 A    
C55   H15   1.083369 S    
O8    C68   1.280169 A    
C53   H13   1.083255 S    
C3    C10   1.475091 S    
C13   C135  1.404682 A    
C48   C60   1.399428 A    
C109  H29   1.083031 S    
Zn8   O13   1.928172 S    
C142  C174  1.391857 A    
Zn5   O1    1.942971 S    
Zn3   O49   1.933910 S    
Zn9   O4    1.942963 S    
Zn10  O3    1.942963 S    
Zn5   O47   1.933679 S    
C35   C95   1.416846 A    
Zn12  O21   1.933955 S    
C50   H10   1.083282 S    
C43   C59   1.399683 A    
C5    C143  1.404683 A    
Zn13  O24   1.934270 S    
O31   C83   1.278907 A    
Zn14  O23   1.934270 S    
C5    C117  1.404656 A    
C134  C166  1.391869 A    
C2    C114  1.404736 A    
C117  H37   1.082715 S    
C173  C183  1.402004 A    
C159  C191  1.402107 A    
N2    O55   1.301261 A    
Zn3   O18   1.927086 S    
C2    C140  1.404603 A    
C32   N8    1.442821 S    
C135  H55   1.082705 S    
C121  H41   1.082702 S    
Zn7   O14   1.928172 S    
C78   C189  1.464331 S    
C114  H34   1.082708 S    
O52   C74   1.279671 A    
C104  H24   1.083032 S    
Zn9   O35   1.934318 S    
C110  H30   1.083037 S    
C88   C179  1.464530 S    
C48   H8    1.083253 S    
C22   C97   1.404544 A    
Zn3   O3    1.943688 S    
C12   C124  1.404626 A    
C38   C54   1.400555 A    
C152  C184  1.402152 A    
C107  H27   1.082997 S    
C113  H33   1.082697 S    
O48   C78   1.278890 A    
Zn11  O22   1.933955 S    
C42   H2    1.083240 S    
C139  C171  1.391707 A    
C174  C184  1.402078 A    
O30   C82   1.279020 A    
C125  C157  1.391848 A    
C34   C94   1.418059 A    
Zn15  O26   1.934400 S    
C143  H63   1.082713 S    
C8    C142  1.404747 A    
C136  H56   1.082704 S    
N16   O83   1.300662 A    
C131  H51   1.082738 S    
C132  H52   1.082698 S    
C140  C172  1.391769 A    
Zn1   O44   1.933633 S    
N11   O74   1.301426 A    
C97   C102  1.394180 A    
C128  H48   1.082707 S    
C147  H67   1.083212 S    
C129  H49   1.082708 S    
C118  C150  1.391798 A    
C157  C189  1.402013 A    
C100  C103  1.394172 A    
C114  C146  1.391836 A    
N8    O67   1.300995 A    
C26   N2    1.442509 S    
C154  C186  1.402132 A    
C151  H71   1.083229 S    
C28   N4    1.442525 S    
C148  H68   1.083210 S    
O28   C80   1.278910 A    
C45   C57   1.399437 A    
O29   C81   1.279156 A    
O27   C79   1.279028 A    
C133  H53   1.082700 S    
C31   C91   1.417746 A    
C25   N1    1.442474 S    
C144  H64   1.082698 S    
C163  H83   1.083202 S    
C19   C108  1.403397 A    
C41   C57   1.399700 A    
C14   C136  1.404646 A    
C23   C100  1.404444 A    
C38   C94   1.417226 A    
C25   C41   1.400570 A    
N5    O62   1.301603 A    
C69   C95   1.465720 S    
C70   C96   1.467027 S    
C46   H6    1.083264 S    
C30   N6    1.442807 S    
C32   C48   1.400414 A    
C39   C55   1.398512 A    
O41   C83   1.279158 A    
C126  H46   1.082701 S    
O42   C84   1.279053 A    
C146  H66   1.083192 S    
C119  C151  1.391785 A    
C15   C133  1.404682 A    
C67   C89   1.461587 S    
C4    C116  1.404774 A    
C169  C179  1.402088 A    
C40   C56   1.394942 A    
C23   C60   1.476939 S    
C15   C127  1.404729 A    
C3    C137  1.404688 A    
C84   C183  1.464359 S    
C31   C47   1.400413 A    
C17   C110  1.404493 A    
C4    C9    1.475091 S    
C29   N5    1.442776 S    
C21   C58   1.476939 S    
C103  H23   1.083020 S    
Zn11  O10   1.927086 S    
C49   C61   1.399340 A    
Zn8   O4    1.941533 S    
C141  H61   1.082700 S    
C176  H96   1.083204 S    
C24   C59   1.477100 S    
O38   C88   1.279609 A    
C8    C13   1.475011 S    
C106  C109  1.394164 A    
C16   C128  1.404731 A    
C105  H25   1.083039 S    
C32   C92   1.417770 A    
N3    O57   1.301248 A    
O39   C85   1.279668 A    
C74   C185  1.464620 S    
Zn15  O2    1.941534 S    
Zn16  O5    1.928172 S    
O23   C75   1.279670 A    
O16   C72   1.278554 A    
N1    O54   1.301590 A    
C119  H39   1.082705 S    
C20   C111  1.403361 A    
C73   C186  1.464615 S    
C87   C180  1.464526 S    
Zn7   O42   1.934400 S    
C113  C145  1.391856 A    
C138  C170  1.391771 A    
C167  H87   1.083220 S    
O14   C70   1.279088 A    
C153  H73   1.083194 S    
C155  H75   1.083214 S    
N14   O79   1.301290 A    
C156  H76   1.083192 S    
C17   C106  1.403620 A    
C26   C42   1.400580 A    
Zn9   O8    1.927662 S    
C51   H11   1.083389 S    
Zn6   O2    1.942966 S    
O33   C85   1.279580 A    
Zn10  O7    1.927662 S    
C52   H12   1.083397 S    
Zn12  O9    1.927086 S    
N13   O78   1.301621 A    
Zn2   O52   1.934318 S    
C54   H14   1.083256 S    
C34   N10   1.442863 S    
C172  C178  1.402196 A    
O13   C69   1.279752 A    
C82   C177  1.464185 S    
N8    O68   1.301608 A    
C175  H95   1.083195 S    
O11   C67   1.278517 A    
C9    C131  1.404743 A    
C164  H84   1.083196 S    
C56   H16   1.083777 S    
C167  C189  1.402067 A    
O5    C65   1.278335 A    
C33   N9    1.442924 S    
C160  H80   1.083217 S    
N12   O75   1.301506 A    
C22   C101  1.403718 A    
C139  H59   1.082703 S    
Zn1   O51   1.934318 S    
Zn9   O28   1.933633 S    
C33   C49   1.400337 A    
C21   C98   1.404476 A    
Zn10  O27   1.933633 S    
O32   C84   1.278881 A    
C100  H20   1.083020 S    
O36   C88   1.279676 A    
C140  H60   1.082713 S    
Zn8   O41   1.934400 S    
C20   C63   1.474445 S    
C40   N16   1.433798 S    
Zn16  O25   1.934400 S    
C44   H4    1.083242 S    
C33   C93   1.418095 A    
C165  H85   1.083198 S    
C83   C184  1.464594 S    
C130  C162  1.391830 A    
N9    O70   1.301630 A    
C137  H57   1.082700 S    
C71   C93   1.461680 S    
C36   C52   1.400324 A    
O45   C79   1.279072 A    
C66   C92   1.461507 S    
C162  H82   1.083199 S    
O46   C80   1.278963 A    
O49   C75   1.279501 A    
O7    C67   1.280245 A    
C98   H18   1.083021 S    
C13   C125  1.404768 A    
N10   O71   1.300898 A    
C158  H78   1.083192 S    
N2    O56   1.301594 A    
Zn1   O1    1.942963 S    
C47   H7    1.083243 S    
C28   C44   1.400558 A    
C40   C96   1.414791 A    
C45   H5    1.083254 S    
C171  C177  1.402033 A    
C19   C112  1.403026 A    
C30   C90   1.417881 A    
C134  H54   1.082710 S    
C39   N15   1.439940 S    
O50   C76   1.279594 A    
C161  C187  1.402039 A    
C168  H88   1.083205 S    
C173  H93   1.083207 S    
C42   C58   1.399633 A    
C163  C185  1.402101 A    
C168  C190  1.402138 A    
N6    O64   1.301612 A    
O51   C73   1.279685 A    
C165  C191  1.402133 A    
Zn5   O20   1.927660 S    
C9    C121  1.404679 A    
Zn6   O19   1.927660 S    
C34   C50   1.400334 A    
C127  H47   1.082699 S    
C68   C90   1.461597 S    
C6    C118  1.404721 A    
C115  C147  1.391880 A    
Zn8   O46   1.934351 S    
N3    O58   1.301590 A    
C149  H69   1.083199 S    
C1    C113  1.404822 A    
N16   O84   1.300932 A    
C152  H72   1.083207 S    
C5    C16   1.475025 S    
C47   C59   1.399472 A    
C6    C15   1.475068 S    
C31   N7    1.442778 S    
C7    C14   1.475017 S    
C50   C62   1.399304 A    
C17   C62   1.476840 S    
C142  H62   1.082702 S    
Zn13  O4    1.942971 S    
O43   C81   1.278946 A    
C77   C190  1.464565 S    
Zn14  O3    1.942966 S    
C170  H90   1.083203 S    
C10   C132  1.404740 A    
C35   N11   1.439681 S    
C99   H19   1.083004 S    
O40   C86   1.279748 A    
Zn15  O6    1.928172 S    
C10   C122  1.404682 A    
C166  C192  1.402104 A    
Zn16  O1    1.941533 S    
C132  C164  1.391827 A    
C150  H70   1.083215 S    
C111  H31   1.083044 S    
C117  C149  1.391803 A    
C159  H79   1.083198 S    
C85   C182  1.464432 S    
C37   C53   1.400545 A    
C128  C160  1.391803 A    
C135  C167  1.391750 A    
C129  C161  1.391922 A    
C36   N12   1.440127 S    
C26   C90   1.417260 A    
C123  C155  1.391676 A    
C41   H1    1.083231 S    
C124  C156  1.391722 A    
C55   C63   1.399167 A    
C108  H28   1.083132 S    
C154  H74   1.083200 S    
C43   H3    1.083226 S    
C53   C61   1.399649 A    
C7    C141  1.404763 A    
C29   C45   1.400356 A    
C1    C139  1.404662 A    
N5    O61   1.300965 A    
C46   C58   1.399369 A    
C18   C105  1.403681 A    
C1    C12   1.475005 S    
Zn7   O3    1.941534 S    
O34   C86   1.279694 A    
Zn11  O2    1.943688 S    
C35   C51   1.398235 A    
C2    C11   1.474968 S    
C24   C99   1.404523 A    
O20   C72   1.280289 A    
O21   C73   1.279634 A    
Zn7   O45   1.934351 S    
C44   C60   1.399620 A    
C125  H45   1.082703 S    
O24   C76   1.279747 A    
C27   C43   1.400555 A    
C153  C185  1.402120 A    
C36   C96   1.417521 A    
O15   C71   1.278609 A    
O18   C70   1.282574 A    
C155  C187  1.402013 A    
C126  C158  1.391856 A    
C146  C178  1.402084 A    
O10   C66   1.279927 A    
N4    O60   1.301586 A    
C151  C183  1.402090 A    
C123  H43   1.082709 S    
Zn4   O50   1.933910 S    
C162  C188  1.402109 A    
C169  H89   1.083203 S    
N4    O59   1.301253 A    
O6    C66   1.278356 A    
Zn11  O33   1.933910 S    
