data_mof_unit_56740.cif
_audit_creation_date              2012-12-11T16:34:04-0500
_audit_creation_method            fapswitch 2.2
_symmetry_space_group_name_H-M    P1
_symmetry_Int_Tables_number       1
_space_group_crystal_system       triclinic
_cell_length_a                    8.234867
_cell_length_b                    17.409816
_cell_length_c                    27.016384
_cell_angle_alpha                 95.748842
_cell_angle_beta                  92.569509
_cell_angle_gamma                 83.750183
_cell_volume                      3828.63276941

loop_
_atom_site_label
_atom_site_type_symbol
_atom_type_description
_atom_site_fract_x
_atom_site_fract_y
_atom_site_fract_z
_atom_type_partial_charge
Ba1   Ba    Ba6+2 0.856110 0.463800 0.523550 1.643715
Ba2   Ba    Ba6+2 0.333710 0.536130 0.476450 1.653387
C1    C     C_3   0.652152 0.188224 0.654913 -0.368372
C2    C     C_R   0.941099 0.583643 0.181188 0.607525
C3    C     C_2   0.766878 0.558006 0.272498 -0.088422
C4    C     C_3   0.161260 0.291569 0.658858 0.288291
C5    C     C_3   0.742598 0.580977 0.327331 -0.059827
C6    C     C_1   0.984529 0.490212 0.343525 0.043137
C7    C     C_2   0.025625 0.484645 0.295917 -0.079712
C8    C     C_2   0.910151 0.518871 0.257056 0.206119
C9    C     C_R   0.032971 0.511708 0.103218 -0.115578
C10   C     C_R   0.053371 0.443520 0.128068 -0.029318
C11   C     C_R   0.113280 0.373532 0.101603 -0.055129
C12   C     C_3   0.657793 0.266966 0.635706 0.344894
C13   C     C_R   0.975578 0.582682 0.129963 -0.020139
C14   C     C_2   0.852392 0.532608 0.360846 -0.280277
C15   C     C_2   0.349404 0.478708 0.641657 -0.280010
C16   C     C_3   0.130532 0.272542 0.711059 -0.337506
C17   C     C_R   0.182141 0.436236 0.975060 0.018802
C18   C     C_R   0.069960 0.573078 0.974142 0.027467
C19   C     C_R   0.144648 0.503439 0.949106 0.050815
C20   C     C_R   0.265173 0.369766 0.949146 -0.101321
C21   C     C_R   0.305746 0.368843 0.899461 -0.060605
C22   C     C_R   0.264359 0.433825 0.872941 -0.030647
C23   C     C_3   0.501125 0.655727 0.627401 0.295780
C24   C     C_R   0.182550 0.501113 0.897620 -0.079111
C25   C     C_R   0.139415 0.566271 0.870909 -0.034059
C26   C     C_R   0.177697 0.563292 0.820083 0.590209
C27   C     C_R   0.304068 0.432933 0.822324 0.580040
C28   C     C_3   0.199382 0.300028 0.416649 0.311294
C29   C     C_2   0.456753 0.480184 0.729479 -0.072617
C30   C     C_3   0.498349 0.485965 0.675794 -0.053985
C31   C     C_1   0.208129 0.513152 0.657056 0.045362
C32   C     C_2   0.169004 0.514094 0.704471 -0.104892
C33   C     C_2   0.299497 0.495621 0.743804 0.202289
C34   C     C_3   0.474471 0.685952 0.681567 -0.375291
C35   C     C_R   0.136934 0.437849 0.025832 0.026887
C36   C     C_R   0.070612 0.508787 0.051614 0.047844
C37   C     C_R   0.041876 0.576827 0.026255 0.001462
C38   C     C_R   0.154785 0.370697 0.051906 -0.099715
C39   C     C_R   0.955784 0.650817 0.104790 0.170122
C40   C     C_3   0.210550 0.212624 0.403576 -0.377569
C41   C     C_R   0.024535 0.636696 0.945807 -0.101546
C42   C     C_R   0.058530 0.633242 0.895529 -0.063006
C43   C     C_R   0.988144 0.647124 0.054181 -0.129318
C44   C     C_R   0.410147 0.278867 0.520412 -0.288465
C45   C     C_3   0.976040 0.750099 0.343188 0.285562
C46   C     C_R   0.551181 0.254387 0.494268 0.064098
C47   C     C_R   0.607055 0.175055 0.487705 -0.113671
C48   C     C_R   0.520023 0.120266 0.506999 -0.004754
C49   C     C_R   0.374547 0.145563 0.532119 -0.132593
C50   C     C_R   0.318869 0.225076 0.538051 0.010142
C51   C     C_R   0.586439 0.834998 0.506431 -0.125249
C52   C     C_3   0.016996 0.705524 0.584519 0.319588
C53   C     C_R   0.640747 0.755600 0.502650 0.046571
C54   C     C_R   0.874229 0.778725 0.457283 0.017771
C55   C     C_R   0.820883 0.858671 0.460599 -0.117929
C56   C     C_3   0.008413 0.770160 0.291320 -0.308831
C57   C     C_R   0.675388 0.887018 0.485080 -0.006362
C58   C     C_1   0.622619 0.969546 0.491974 -0.002046
C59   C     C_1   0.576082 0.038191 0.498765 0.004262
C60   C     C_R   0.780425 0.727792 0.476737 -0.264587
C61   C     C_3   0.076161 0.785602 0.597559 -0.137966
C62   C     C_3   0.680481 0.372095 0.375868 0.299215
C63   C     C_3   0.684950 0.353402 0.319705 -0.355161
C64   C     C_3   0.493754 0.742672 0.354853 0.470438
C65   C     C_3   0.439770 0.818014 0.330664 0.101928
C66   C     C_R   0.011716 0.446253 0.178701 0.591491
H1    H     H_    0.766796 0.263747 0.612490 0.100615
H2    H     H_    0.586036 0.421593 0.384182 0.084657
H3    H     H_    0.643991 0.143152 0.623021 0.075821
H4    H     H_    0.784266 0.306482 0.310195 0.133897
H5    H     H_    0.707274 0.405562 0.301714 0.069763
H6    H     H_    0.566113 0.334333 0.305080 0.134214
H7    H     H_    0.545053 0.279865 0.612778 -0.038966
H8    H     H_    0.543610 0.189372 0.678049 0.125476
H9    H     H_    0.383030 0.638822 0.610773 0.018741
H10   H     H_    0.593810 0.604284 0.625724 0.041441
H11   H     H_    0.388754 0.739954 0.683650 0.131788
H12   H     H_    0.289289 0.195698 0.371123 0.130303
H13   H     H_    0.420942 0.642446 0.701323 0.079482
H14   H     H_    0.592702 0.698519 0.700361 0.127594
H15   H     H_    0.764623 0.173170 0.677691 0.133109
H16   H     H_    0.172589 0.318229 0.738639 0.130231
H17   H     H_    0.945129 0.689424 0.340531 0.025805
H18   H     H_    0.872124 0.790898 0.357524 -0.033457
H19   H     H_    0.112160 0.730709 0.275341 0.170947
H20   H     H_    0.898010 0.764144 0.266917 0.133433
H21   H     H_    0.037027 0.831215 0.292792 0.089698
H22   H     H_    0.629377 0.733185 0.355001 -0.176902
H23   H     H_    0.263693 0.181949 0.435403 0.063919
H24   H     H_    0.454512 0.749688 0.394039 0.032833
H25   H     H_    0.101867 0.350996 0.654710 0.082599
H26   H     H_    0.304664 0.827355 0.329236 0.139350
H27   H     H_    0.144766 0.456780 0.285039 0.122327
H28   H     H_    0.128955 0.320003 0.119391 0.120971
H29   H     H_    0.554983 0.469923 0.756961 0.102482
H30   H     H_    0.369993 0.316348 0.881745 0.121004
H31   H     H_    0.304423 0.317598 0.966593 0.069440
H32   H     H_    0.197264 0.314106 0.034565 0.068115
H33   H     H_    0.678960 0.582925 0.245841 0.111403
H34   H     H_    0.086648 0.194552 0.394302 0.127591
H35   H     H_    0.958414 0.689944 0.961074 0.069023
H36   H     H_    0.295043 0.290055 0.654519 -0.016084
H37   H     H_    0.020998 0.683908 0.875908 0.121768
H38   H     H_    0.043504 0.529567 0.715215 0.127394
H39   H     H_    0.973823 0.701718 0.038091 0.066555
H40   H     H_    0.836614 0.545102 0.400604 0.079439
H41   H     H_    0.357262 0.444591 0.605747 0.068765
H42   H     H_    0.479201 0.856423 0.527523 0.080704
H43   H     H_    0.303148 0.103842 0.545684 0.078821
H44   H     H_    0.894665 0.898416 0.445936 0.071816
H45   H     H_    0.882783 0.711819 0.578118 -0.003438
H46   H     H_    0.715271 0.156004 0.466553 0.084821
H47   H     H_    0.365908 0.339920 0.524401 0.068050
H48   H     H_    0.997724 0.270225 0.715437 0.143048
H49   H     H_    0.823256 0.666619 0.475208 0.053585
H50   H     H_    0.197697 0.215638 0.718151 0.119356
H51   H     H_    0.323506 0.317258 0.424928 0.002706
H52   H     H_    0.122926 0.315223 0.449750 0.062794
H53   H     H_    0.077036 0.888021 0.567272 0.185278
H54   H     H_    0.892219 0.856872 0.568425 0.170962
H55   H     H_    0.448525 0.861698 0.263374 0.192216
H56   H     H_    0.076198 0.678140 0.550119 0.069133
H57   H     H_    0.622999 0.810500 0.280656 0.181654
H58   H     H_    0.627217 0.875560 0.364954 0.167419
H59   H     H_    0.449585 0.891663 0.394822 0.169288
H60   H     H_    0.794311 0.747235 0.112057 0.172567
H61   H     H_    0.990760 0.762451 0.127111 0.172828
H62   H     H_    0.034768 0.809925 0.635157 0.105076
H63   H     H_    0.212022 0.779535 0.598691 0.118434
H64   H     H_    0.801000 0.388261 0.390068 0.005411
N1    N     N_R   0.955084 0.515826 0.204804 -0.428621
N2    N     N_R   0.259060 0.497010 0.796125 -0.424665
N3    N     N_3   0.014628 0.838570 0.561011 -0.510146
N4    N     N_3   0.495804 0.811586 0.279665 -0.465923
N5    N     N_3   0.500466 0.885383 0.359673 -0.518817
N6    N     N_3   0.901535 0.724941 0.130137 -0.437316
O1    O     O_2   0.910880 0.540430 0.617910 -0.459638
O2    O     O_2   0.212418 0.772783 0.466423 -0.470062
O3    O     O_3   0.116249 0.758025 0.373767 -0.592838
O4    O     O_3   0.142880 0.540370 0.557740 -0.491669
O5    O     O_3   0.562610 0.408580 0.475460 -0.489633
O6    O     O_2   0.365880 0.685750 0.523280 -0.460084
O7    O     O_3   0.557064 0.714595 0.602997 -0.644112
O8    O     O_2   0.427504 0.528330 0.322697 -0.487264
O9    O     O_3   0.421593 0.680152 0.328508 -0.570388
O10   O     O_2   0.024112 0.386394 0.199269 -0.596406
O11   O     O_2   0.378268 0.374848 0.801579 -0.601326
O12   O     O_3   0.644139 0.306322 0.397253 -0.634459
O13   O     O_2   0.899741 0.645314 0.205072 -0.591529
O14   O     O_2   0.140902 0.620367 0.797412 -0.597816
O15   O     O_3   0.675650 0.402220 0.588450 -0.487818
O16   O     O_2   0.837487 0.439674 0.673082 -0.498479
O17   O     O_3   0.054441 0.663630 0.625891 -0.645413
O18   O     O_3   0.666667 0.323783 0.676147 -0.592226
O19   O     O_2   0.823810 0.314230 0.476690 -0.458025
O20   O     O_3   0.086630 0.363340 0.564170 -0.490592
O21   O     O_2   0.981032 0.226297 0.532841 -0.485332
O22   O     O_3   0.094697 0.236810 0.624296 -0.601992
O23   O     O_2   0.278810 0.459550 0.382060 -0.457535
O24   O     O_3   0.046820 0.459570 0.442260 -0.495607
O25   O     O_3   0.514050 0.597710 0.411540 -0.476728
O26   O     O_3   0.130537 0.336124 0.375643 -0.627412
O27   O     O_3   0.627090 0.591350 0.524530 -0.472129
O28   O     O_3   0.103080 0.636600 0.435820 -0.468896
P1    P     P_3+3 0.078810 0.562990 0.610370 0.994817
P2    P     P_3+3 0.645380 0.325580 0.462150 0.988409
P3    P     P_3+3 0.120387 0.262056 0.564315 0.936426
P4    P     P_3+3 0.110900 0.436950 0.389630 0.996634
P5    P     P_3+3 0.075054 0.737768 0.433649 0.971829
P6    P     P_3+3 0.670281 0.414482 0.653475 0.968149
P7    P     P_3+3 0.550808 0.688482 0.538779 0.949816
P8    P     P_3+3 0.525804 0.594007 0.346833 0.974788

loop_
_geom_bond_atom_site_label_1
_geom_bond_atom_site_label_2
_ccdc_geom_bond_type
C51   H42   S    
C19   C24   A    
C53   C60   A    
H58   N5    S    
C40   H12   S    
Ba2   O6    S    
O26   P4    S    
C8    N1    S    
C28   O26   S    
C56   H19   S    
Ba2   O24   S    
C51   C57   A    
O9    P8    S    
C64   H22   S    
C42   H37   S    
C10   C11   A    
C10   C66   A    
C24   C25   A    
C44   H47   S    
C23   H9    S    
C45   H17   S    
Ba1   O20   S    
C17   C19   A    
C22   C24   A    
Ba1   Ba2   S    
C35   C38   A    
C36   C37   A    
C55   C57   A    
C55   H44   S    
C28   H51   S    
Ba1   P1    S    
O27   P7    S    
C52   H45   S    
C44   C50   A    
O3    P5    S    
C63   H5    S    
C54   C55   A    
C33   N2    S    
C32   C33   S    
C61   H62   S    
H60   N6    S    
C22   C27   A    
C53   P7    S    
C60   H49   S    
C52   H56   S    
Ba1   O4    S    
C17   C35   A    
O4    P1    S    
C9    C13   A    
C25   C42   A    
H61   N6    S    
C62   H64   S    
C34   H14   S    
C6    C7    D    
C11   C38   A    
O24   P4    S    
O6    P7    D    
C65   H26   S    
C16   H16   S    
O22   P3    S    
Ba2   O23   S    
C62   H2    S    
C7    C8    S    
C7    H27   S    
C66   O10   D    
C37   C43   A    
C64   C65   S    
C30   P6    S    
O28   P5    S    
C6    C14   D    
Ba2   O5    S    
C31   P1    S    
C15   C31   D    
C40   H34   S    
O19   P2    D    
C6    P4    S    
C31   C32   D    
C44   C46   A    
C51   C53   A    
C4    C16   S    
C3    H33   S    
C11   H28   S    
C49   C50   A    
C32   H38   S    
C45   H18   S    
C17   C20   A    
C13   C39   A    
C16   H48   S    
C52   O17   S    
C3    C5    S    
C18   C37   A    
C14   H40   S    
C64   H24   S    
Ba1   P2    S    
O18   P6    S    
C63   H6    S    
C23   H10   S    
C62   O12   S    
C58   C59   T    
C61   N3    S    
C50   P3    S    
C9    C36   A    
C1    H3    S    
C41   C42   A    
C35   C36   A    
Ba1   O5    S    
C29   C30   S    
C46   P2    S    
Ba1   O27   S    
C34   H13   S    
C21   C22   A    
C4    H25   S    
O12   P2    S    
C48   C49   A    
C39   N6    S    
O16   P6    D    
H53   N3    S    
Ba1   O15   S    
C1    H8    S    
Ba2   O27   S    
C64   O9    S    
C1    C12   S    
Ba2   P4    S    
O23   P4    D    
H57   N4    S    
C46   C47   A    
O7    P7    S    
Ba1   O24   S    
C26   O14   D    
O2    P5    D    
C61   H63   S    
C54   P5    S    
C1    H15   S    
Ba2   O4    S    
C12   H1    S    
C29   C33   D    
C26   N2    Am   
C18   C41   A    
O1    P1    D    
Ba1   O1    S    
C15   C30   S    
C2    O13   D    
Ba2   O28   S    
C66   N1    Am   
C49   H43   S    
C20   H31   S    
O21   P3    D    
C12   O18   S    
C5    C14   S    
H54   N3    S    
C34   H11   S    
C15   H41   S    
Ba2   O25   S    
C38   H32   S    
C4    O22   S    
C9    C10   A    
O20   P3    S    
C16   H50   S    
C63   H4    S    
C45   O3    S    
C4    H36   S    
H55   N4    S    
C62   C63   S    
C2    C13   A    
Ba1   O19   S    
C65   N4    S    
C3    C8    D    
C12   H7    S    
C45   C56   S    
C47   H46   S    
C28   H52   S    
O8    P8    D    
O15   P6    S    
C5    P8    S    
C27   N2    Am   
C54   C60   A    
C29   H29   S    
C65   N5    S    
C56   H21   S    
C41   H35   S    
O5    P2    S    
O17   P1    S    
C23   C34   S    
C27   O11   D    
C43   H39   S    
C57   C58   S    
C21   H30   S    
C18   C19   A    
C47   C48   A    
C52   C61   S    
C25   C26   A    
C48   C59   S    
C39   C43   A    
C20   C21   A    
C28   C40   S    
C23   O7    S    
H59   N5    S    
O25   P8    S    
C56   H20   S    
C40   H23   S    
C2    N1    Am   
