data_mof_unit_61309.cif
_audit_creation_date              2012-12-10T17:53:56-0500
_audit_creation_method            fapswitch 2.2
_symmetry_space_group_name_H-M    P1
_symmetry_Int_Tables_number       1
_space_group_crystal_system       triclinic
_cell_length_a                    15.945291
_cell_length_b                    11.730758
_cell_length_c                    10.474553
_cell_angle_alpha                 89.999864
_cell_angle_beta                  90.062466
_cell_angle_gamma                 89.999524
_cell_volume                      1959.26763985

loop_
_atom_site_label
_atom_site_type_symbol
_atom_type_description
_atom_site_fract_x
_atom_site_fract_y
_atom_site_fract_z
_atom_type_partial_charge
C1    C     C_R   0.500000 0.283327 0.500000 0.814579
C2    C     C_1   0.749378 0.499559 0.500419 -0.120203
C3    C     C_1   0.250621 0.499598 0.499576 -0.120207
C4    C     C_3   0.083048 0.498417 0.497965 -0.025099
C5    C     C_3   0.916952 0.498315 0.501979 -0.025016
C6    C     C_3   0.950245 0.625044 0.495424 0.497519
C7    C     C_3   0.049749 0.624696 0.511545 0.497592
C8    C     C_1   0.824589 0.498993 0.501173 0.056770
C9    C     C_1   0.175411 0.499070 0.498804 0.056888
C10   C     C_R   0.339830 0.500007 0.499918 0.827227
C11   C     C_R   0.660170 0.500003 0.500082 0.827260
C12   C     C_1   0.500001 0.059735 0.500000 0.031468
C13   C     C_1   0.500000 0.161949 0.500000 -0.155631
C14   C     C_1   0.500000 0.499989 0.072079 0.115199
C15   C     C_1   0.500000 0.499989 0.927921 0.115610
C16   C     C_R   0.500000 0.716683 0.500000 0.844286
C17   C     C_3   0.049923 0.424847 0.613223 -0.015632
C18   C     C_3   0.047310 0.447981 0.369675 -0.020113
C19   C     C_3   0.952692 0.442270 0.627312 -0.020616
C20   C     C_3   0.950082 0.429938 0.382783 -0.015467
C21   C     C_1   0.500001 0.940274 0.500000 0.040843
C22   C     C_1   0.500000 0.838060 0.500000 -0.133298
Cu1   Cu    Cu3+1 0.500000 0.500000 0.625300 1.019904
Cu2   Cu    Cu3+1 0.500000 0.500000 0.374700 1.019187
H1    H     H_    0.057489 0.511934 0.292610 0.169553
H2    H     H_    0.080182 0.454711 0.703158 0.151017
H3    H     H_    0.919818 0.463736 0.294615 0.151792
H4    H     H_    0.942506 0.502733 0.707832 0.168522
N1    N     N_1   0.500000 0.499990 0.186410 -0.135411
N2    N     N_1   0.500000 0.499990 0.813590 -0.135284
O1    O     O_R   0.500000 0.337200 0.605810 -0.571111
O2    O     O_R   0.500000 0.337200 0.394190 -0.570997
O3    O     O_R   0.379430 0.500010 0.605860 -0.565517
O4    O     O_R   0.379430 0.500010 0.394140 -0.568724
O5    O     O_R   0.620570 0.500010 0.605860 -0.568016
O6    O     O_R   0.620570 0.500010 0.394140 -0.566252
O7    O     O_R   0.500000 0.662810 0.605810 -0.561886
O8    O     O_R   0.500000 0.662810 0.394190 -0.562076
Cl1   Cl    Cl    0.083377 0.681782 0.663677 -0.493478
Cl2   Cl    Cl    0.100781 0.717380 0.397574 -0.457795
Cl3   Cl    Cl    0.899207 0.712561 0.614399 -0.458286
Cl4   Cl    Cl    0.916613 0.688787 0.346647 -0.491903
N3    N     N_3   0.909523 0.335616 0.661281 -0.491102
H5    H     H_    0.846247 0.352800 0.678474 0.219602
H6    H     H_    0.932312 0.308658 0.749936 0.221434
N4    N     N_3   0.928159 0.308214 0.391917 -0.427597
H7    H     H_    0.863806 0.300204 0.408364 0.227221
H8    H     H_    0.937022 0.270397 0.302597 0.226527
N5    N     N_3   0.071856 0.303681 0.597351 -0.427214
H9    H     H_    0.136214 0.296421 0.580513 0.227113
H10   H     H_    0.062976 0.261951 0.684455 0.227636
N6    N     N_3   0.090487 0.342969 0.329829 -0.491712
H11   H     H_    0.153757 0.360915 0.313578 0.219999
H12   H     H_    0.067686 0.319946 0.239800 0.220897

loop_
_geom_bond_atom_site_label_1
_geom_bond_atom_site_label_2
_ccdc_geom_bond_type
C5    C8    S    
Cu2   O8    S    
C7    Cl2   S    
Cu2   O2    S    
C17   H2    S    
C6    C7    S    
C3    C9    T    
C20   H3    S    
C18   C20   S    
C14   C15   S    
C16   O7    A    
N3    H5    S    
C4    C18   S    
N5    H10   S    
C11   O5    A    
C18   N6    S    
C10   O4    A    
C3    C10   S    
C16   O8    A    
C21   C22   T    
C12   C13   T    
Cu2   N1    S    
C19   H4    S    
N3    H6    S    
Cu2   O6    S    
C18   H1    S    
C4    C7    S    
C5    C19   S    
C2    C11   S    
C11   O6    A    
C17   C19   S    
C19   N3    S    
C10   O3    A    
Cu1   O5    S    
C5    C6    S    
N4    H8    S    
C1    C13   S    
C4    C17   S    
Cu1   Cu2   S    
Cu1   N2    S    
C20   N4    S    
C1    O1    A    
N6    H11   S    
C15   N2    T    
N5    H9    S    
C6    Cl4   S    
C17   N5    S    
C5    C20   S    
C7    Cl1   S    
N4    H7    S    
C16   C22   S    
C14   N1    T    
C2    C8    T    
C4    C9    S    
Cu1   O7    S    
C12   C21   S    
C1    O2    A    
Cu2   O4    S    
N6    H12   S    
Cu1   O3    S    
C6    Cl3   S    
Cu1   O1    S    
