data_mof_unit_56057.cif
_audit_creation_date              2012-12-11T14:37:41-0500
_audit_creation_method            fapswitch 2.2
_symmetry_space_group_name_H-M    P1
_symmetry_Int_Tables_number       1
_space_group_crystal_system       triclinic
_cell_length_a                    14.493095
_cell_length_b                    15.803782
_cell_length_c                    6.959579
_cell_angle_alpha                 89.883213
_cell_angle_beta                  80.520007
_cell_angle_gamma                 89.893105
_cell_volume                      1572.28675894

loop_
_atom_site_label
_atom_site_type_symbol
_atom_type_description
_atom_site_fract_x
_atom_site_fract_y
_atom_site_fract_z
_atom_type_partial_charge
O1    O     O_R   0.337080 0.165770 0.524980 -0.535028
O2    O     O_R   0.662920 0.834230 0.475020 -0.533210
O3    O     O_R   0.662920 0.665770 0.475020 -0.537333
O4    O     O_R   0.337080 0.334230 0.524980 -0.516692
O5    O     O_R   0.348340 0.341430 0.191390 -0.537832
O6    O     O_R   0.651660 0.658570 0.808610 -0.564021
O7    O     O_R   0.651660 0.841430 0.808610 -0.537505
O8    O     O_R   0.348340 0.158570 0.191390 -0.551208
O9    O     O_R   0.165780 0.339950 0.082750 -0.543377
O10   O     O_R   0.834220 0.660050 0.917250 -0.544971
O11   O     O_R   0.834220 0.839950 0.917250 -0.544800
O12   O     O_R   0.165780 0.160050 0.082750 -0.545191
C1    C     C_R   0.370032 0.364749 0.355574 0.575320
C2    C     C_R   0.629858 0.635471 0.644439 0.689874
C3    C     C_R   0.629757 0.864779 0.644200 0.669685
C4    C     C_R   0.370293 0.135366 0.355812 0.577875
H1    H     H_    0.465365 0.332137 0.846621 0.171760
H2    H     H_    0.377136 0.600474 0.598915 0.141256
H3    H     H_    0.478380 0.893791 0.050060 0.155225
H4    H     H_    0.537995 0.065373 0.547768 0.144234
O13   O     O_3   0.191540 0.250000 0.407620 -0.357972
O14   O     O_3   0.808460 0.750000 0.592380 -0.366511
V1    V     V_3+5 0.262540 0.250000 0.108780 1.459427
V2    V     V_3+5 0.737460 0.750000 0.891220 1.465730
O15   O     O_R   0.154530 0.164290 0.756910 -0.530311
O16   O     O_R   0.845470 0.835710 0.243090 -0.527481
O17   O     O_R   0.845470 0.664290 0.243090 -0.532391
O18   O     O_R   0.154530 0.335710 0.756910 -0.523205
C5    C     C_R   0.132485 0.133221 0.932353 0.766510
C6    C     C_R   0.867732 0.866619 0.067570 0.786479
C7    C     C_R   0.868331 0.633851 0.067536 0.762190
C8    C     C_R   0.132810 0.366976 0.931919 0.802610
V3    V     V_3+5 0.240320 0.250000 0.616280 1.498323
V4    V     V_3+5 0.759680 0.750000 0.383720 1.494929
O19   O     O_3   0.311330 0.250000 0.867310 -0.380450
O20   O     O_3   0.688670 0.750000 0.132690 -0.373210
C9    C     C_3   0.045719 0.492245 0.154054 -0.268215
C10   C     C_3   0.957271 0.509773 0.844853 -0.257490
C11   C     C_3   0.963936 0.985187 0.837028 -0.266241
C12   C     C_3   0.036622 0.014457 0.162944 -0.250798
C13   C     C_3   0.044801 0.572418 0.027590 0.710257
C14   C     C_3   0.958003 0.429640 0.971644 0.718330
C15   C     C_3   0.958764 0.069257 0.950609 0.711390
C16   C     C_3   0.041842 0.930354 0.049361 0.723045
H5    H     H_    0.082878 0.486017 0.280762 0.148737
H6    H     H_    0.920298 0.516008 0.717887 0.152090
H7    H     H_    0.933343 0.974255 0.703040 0.152895
H8    H     H_    0.067134 0.025457 0.297011 0.152664
C17   C     C_3   0.939092 0.563355 0.033606 -0.173792
C18   C     C_3   0.063613 0.438576 0.965500 -0.198881
C19   C     C_3   0.062613 0.062087 0.966684 -0.173580
C20   C     C_3   0.937911 0.937532 0.033297 -0.194766
C21   C     C_3   0.938579 0.482840 0.159907 -0.286306
C22   C     C_3   0.064502 0.519185 0.839292 -0.292475
C23   C     C_3   0.069320 0.977626 0.853873 -0.288307
C24   C     C_3   0.931233 0.022035 0.146132 -0.301367
C25   C     C_2   0.435332 0.556814 0.585920 -0.361349
C26   C     C_2   0.523281 0.355750 0.742316 -0.240806
C27   C     C_2   0.582682 0.052889 0.409830 -0.342294
C28   C     C_2   0.444810 0.894358 0.201417 -0.249710
H9    H     H_    0.888250 0.468151 0.293705 0.146328
H10   H     H_    0.116773 0.534480 0.708574 0.143988
H11   H     H_    0.126004 0.959187 0.734079 0.130296
H12   H     H_    0.874544 0.040670 0.265969 0.145139
C29   C     C_2   0.437738 0.487064 0.696276 0.357419
C30   C     C_2   0.520585 0.430044 0.650956 0.340112
C31   C     C_2   0.561311 0.994641 0.282910 0.375655
C32   C     C_2   0.475051 0.942795 0.337500 0.344248
O21   O     O_3   0.600778 0.456797 0.530124 -0.579931
C33   C     C_3   0.595871 0.433113 0.336754 0.068051
H13   H     H_    0.539327 0.468991 0.282484 0.103260
H14   H     H_    0.582938 0.363849 0.325688 0.109476
C34   C     C_3   0.689027 0.454126 0.208842 -0.301053
H15   H     H_    0.707775 0.520998 0.232579 0.190377
H16   H     H_    0.744054 0.412254 0.250612 0.219059
C35   C     C_3   0.684830 0.441505 0.993533 -0.720238
H17   H     H_    0.669950 0.374242 0.965223 0.240291
H18   H     H_    0.752991 0.458880 0.904965 0.243678
H19   H     H_    0.629710 0.482481 0.948972 0.216116
O22   O     O_3   0.362980 0.460875 0.837433 -0.577709
C36   C     C_3   0.314441 0.527651 0.946778 0.097251
H20   H     H_    0.258087 0.497996 0.052642 0.149733
H21   H     H_    0.277792 0.569607 0.855744 0.125208
C37   C     C_3   0.377217 0.577614 0.063637 -0.369411
H22   H     H_    0.415885 0.532776 0.144189 0.189615
H23   H     H_    0.428923 0.615711 0.964054 0.183793
C38   C     C_3   0.319679 0.637140 0.208828 -0.752187
H24   H     H_    0.277932 0.681264 0.133162 0.278440
H25   H     H_    0.367670 0.674673 0.283683 0.216592
H26   H     H_    0.271769 0.600436 0.319402 0.228125
O23   O     O_3   0.433068 0.940501 0.533438 -0.588971
C39   C     C_3   0.334479 0.930647 0.560785 0.091414
H27   H     H_    0.302415 0.956515 0.437903 0.073641
H28   H     H_    0.304045 0.968387 0.690429 0.122717
C40   C     C_3   0.306302 0.837841 0.598473 -0.281684
H29   H     H_    0.228832 0.832876 0.618640 0.186865
H30   H     H_    0.335346 0.798796 0.470686 0.191251
C41   C     C_3   0.339939 0.802418 0.779113 -0.660293
H31   H     H_    0.417507 0.803884 0.760818 0.214875
H32   H     H_    0.316748 0.735726 0.800871 0.210757
H33   H     H_    0.309942 0.839486 0.910116 0.240908
O24   O     O_3   0.618976 0.977267 0.105130 -0.579094
C42   C     C_3   0.682528 0.042830 0.035523 0.125297
H34   H     H_    0.734537 0.015587 0.916438 0.139252
H35   H     H_    0.723492 0.065126 0.147374 0.136536
C43   C     C_3   0.632235 0.116282 0.951417 -0.401253
H36   H     H_    0.590011 0.090953 0.845394 0.198796
H37   H     H_    0.584072 0.148604 0.069399 0.187316
C44   C     C_3   0.701719 0.180900 0.849366 -0.666767
H38   H     H_    0.741627 0.209975 0.955460 0.286432
H39   H     H_    0.663426 0.231556 0.784760 0.216074
H40   H     H_    0.751015 0.150300 0.730505 0.254067
F1    F     F_    0.089648 0.647189 0.057613 -0.662806
F2    F     F_    0.913161 0.354828 0.941826 -0.655396
F3    F     F_    0.916437 0.142223 0.898209 -0.668306
F4    F     F_    0.084954 0.857648 0.101320 -0.655106

loop_
_geom_bond_atom_site_label_1
_geom_bond_atom_site_label_2
_ccdc_geom_bond_type
C38   H24   S    
O12   C5    A    
C34   H15   S    
C40   H29   S    
C37   C38   S    
C32   O23   S    
C36   H20   S    
C40   C41   S    
O1    V3    S    
C10   C17   S    
C19   C23   S    
O12   V1    S    
C26   C30   D    
V2    O20   S    
C35   H18   S    
C16   F4    S    
C37   H23   S    
C10   C14   S    
C44   H39   S    
C14   C21   S    
C30   O21   S    
O13   V3    S    
C43   H36   S    
O7    V2    S    
C41   H31   S    
O11   V2    S    
O8    V1    S    
C27   C31   D    
O4    C1    A    
O9    C8    A    
C15   F3    S    
C21   H9    S    
O10   C7    A    
O16   V4    S    
C11   C23   S    
O11   C6    A    
C12   C24   S    
C10   C22   S    
C24   H12   S    
C33   H13   S    
O5    C1    A    
H1    C26   S    
C9    C21   S    
O2    V4    S    
O7    C3    A    
C11   C20   S    
O8    C4    A    
C29   O22   S    
C34   H16   S    
O21   C33   S    
C7    C17   S    
C13   C17   S    
C36   H21   S    
C14   F2    S    
O17   V4    S    
O15   C5    A    
O14   V4    S    
O17   C7    A    
C31   C32   S    
O18   C8    A    
C35   H17   S    
C44   H40   S    
C25   C29   D    
O23   C39   S    
O9    V1    S    
C11   C15   S    
C22   H10   S    
O3    V4    S    
O10   V2    S    
C39   C40   S    
C23   H11   S    
O6    C2    A    
H2    C25   S    
O5    V1    S    
O6    V2    S    
C33   C34   S    
C39   H28   S    
C42   H35   S    
O1    C4    A    
C18   C22   S    
C37   H22   S    
H4    C27   S    
O2    C3    A    
C8    C18   S    
O3    C2    A    
C14   C18   S    
O18   V3    S    
O16   C6    A    
V1    O19   S    
O13   V1    S    
C34   C35   S    
O14   V2    S    
C9    H5    S    
C12   C19   S    
C36   C37   S    
C11   H7    S    
C5    C19   S    
C12   H8    S    
C6    C20   S    
O4    V3    S    
C13   F1    S    
O22   C36   S    
C16   C20   S    
C40   H30   S    
H3    C28   S    
C41   H33   S    
C41   H32   S    
C38   H25   S    
C44   H38   S    
C9    C18   S    
C16   C23   S    
C15   C19   S    
C43   H37   S    
C17   C21   S    
C39   H27   S    
V3    O19   S    
C42   C43   S    
V4    O20   S    
C9    C13   S    
O24   C42   S    
C13   C22   S    
C10   H6    S    
C15   C24   S    
C12   C16   S    
C35   H19   S    
C28   C32   D    
C29   C30   S    
C38   H26   S    
C42   H34   S    
C33   H14   S    
C20   C24   S    
C31   O24   S    
O15   V3    S    
C43   C44   S    
