data_mof_unit_54811.cif
_audit_creation_date              2012-10-26T21:14:55-0400
_audit_creation_method            fapswitch 2.2
_symmetry_space_group_name_H-M    P1
_symmetry_Int_Tables_number       1
_space_group_crystal_system       triclinic
_cell_length_a                    15.03195
_cell_length_b                    10.86023
_cell_length_c                    13.763061
_cell_angle_alpha                 90.063655
_cell_angle_beta                  91.393012
_cell_angle_gamma                 89.04869
_cell_volume                      2245.85150263

loop_
_atom_site_label
_atom_site_type_symbol
_atom_type_description
_atom_site_fract_x
_atom_site_fract_y
_atom_site_fract_z
_atom_type_partial_charge
C1    C     C_R   0.496107 0.262312 0.499468 0.531620
C2    C     C_R   0.552747 0.882504 0.681090 0.049978
C3    C     C_R   0.499234 0.107029 0.236739 -0.090017
C4    C     C_R   0.503872 0.899337 0.766007 -0.100555
C5    C     C_R   0.470514 0.158131 0.147948 -0.115899
C6    C     C_R   0.535020 0.849020 0.854146 -0.124118
C7    C     C_R   0.388451 0.220242 0.140459 -0.109351
C8    C     C_R   0.614732 0.780984 0.858148 -0.101435
C9    C     C_R   0.480979 0.933239 0.415129 -0.142737
C10   C     C_R   0.511653 0.066052 0.585580 -0.152162
C11   C     C_R   0.503610 0.871544 0.501690 0.001609
C12   C     C_R   0.502496 0.737661 0.500504 0.547949
C13   C     C_R   0.492401 0.128226 0.498426 0.001458
C14   C     C_R   0.520941 0.938973 0.588027 -0.021534
C15   C     C_R   0.474930 0.060744 0.412152 -0.028684
C16   C     C_R   0.328767 0.500417 0.499318 0.576610
C17   C     C_R   0.671160 0.497496 0.500978 0.568672
C18   C     C_R   0.568419 0.440181 0.795417 0.401556
C19   C     C_R   0.435459 0.566487 0.204326 0.400960
C20   C     C_R   0.436015 0.564535 0.791889 0.008325
C21   C     C_R   0.564471 0.436007 0.208373 0.011806
C22   C     C_R   0.437038 0.569750 0.894322 -0.027972
C23   C     C_R   0.046897 0.342047 0.372738 0.369108
C24   C     C_R   0.566795 0.436321 0.105918 -0.031724
C25   C     C_R   0.501588 0.501630 0.948224 0.012032
C26   C     C_R   0.501657 0.502986 0.051756 0.012523
C27   C     C_R   0.568660 0.437358 0.899008 -0.004864
C28   C     C_R   0.438175 0.573934 0.100922 -0.010911
C29   C     C_R   0.377754 0.646524 0.943841 -0.158435
C30   C     C_R   0.634318 0.374189 0.056627 -0.151269
C31   C     C_R   0.380440 0.652059 0.045522 -0.149616
C32   C     C_R   0.636466 0.377187 0.954975 -0.135961
C33   C     C_R   0.814177 0.562774 0.571326 -0.157860
C34   C     C_R   0.953128 0.640286 0.636944 0.369693
C35   C     C_R   0.185873 0.422532 0.436393 -0.183990
C36   C     C_R   0.767689 0.492284 0.503145 -0.017053
C37   C     C_R   0.232122 0.500526 0.499346 -0.026133
C38   C     C_R   0.812939 0.417904 0.436768 0.367069
C39   C     C_R   0.186691 0.575173 0.565497 0.368978
C40   C     C_R   0.906385 0.414230 0.437943 -0.013539
C41   C     C_R   0.093586 0.571129 0.569795 -0.011994
C42   C     C_R   0.953357 0.489973 0.504978 -0.118575
C43   C     C_R   0.046765 0.492967 0.504390 -0.115157
C44   C     C_R   0.906771 0.564194 0.571771 -0.022929
C45   C     C_R   0.334506 0.230102 0.221484 -0.105701
C46   C     C_R   0.093326 0.418918 0.437422 -0.018651
C47   C     C_R   0.954030 0.337527 0.373682 0.310749
C48   C     C_R   0.046055 0.643023 0.637479 0.308939
C49   C     C_3   0.656436 0.280262 0.736408 -0.012145
C50   C     C_3   0.755172 0.245906 0.736556 -0.379825
C51   C     C_3   0.286486 0.582211 0.237843 -0.004923
C52   C     C_3   0.216395 0.667907 0.280375 -0.354938
C53   C     C_3   0.905321 0.143329 0.347492 0.048078
C54   C     C_3   0.847894 0.063999 0.280821 -0.343062
C55   C     C_3   0.101668 0.666484 0.791297 0.044372
C56   C     C_R   0.664165 0.764715 0.774289 -0.076876
C57   C     C_3   0.137957 0.760321 0.863448 -0.345820
C58   C     C_R   0.362875 0.178896 0.310375 -0.051327
C59   C     C_R   0.633892 0.816271 0.686190 -0.054145
C60   C     C_R   0.445816 0.117950 0.318754 0.057319
Cu1   Cu    Cu3+1 0.500010 0.499980 0.597420 1.010264
Cu2   Cu    Cu3+1 0.499990 0.500020 0.402580 1.021339
F1    F     F_    0.765182 0.348675 0.372499 -0.630336
F2    F     F_    0.233913 0.652925 0.623698 -0.622589
F3    F     F_    0.091476 0.271640 0.307595 -0.655130
F4    F     F_    0.908301 0.714114 0.699578 -0.653209
H1    H     H_    0.777639 0.619278 0.622077 0.179125
H2    H     H_    0.691658 0.331041 0.921493 0.141227
H3    H     H_    0.366575 0.260370 0.071816 0.114619
H4    H     H_    0.638208 0.740980 0.926256 0.125513
H5    H     H_    0.270452 0.276685 0.215181 0.142573
H6    H     H_    0.726112 0.712561 0.777763 0.166116
H7    H     H_    0.320342 0.185882 0.372556 0.112314
H8    H     H_    0.673196 0.804225 0.621856 0.103397
H9    H     H_    0.563044 0.059352 0.241748 0.105422
H10   H     H_    0.441658 0.951128 0.763815 0.114599
H11   H     H_    0.512019 0.150000 0.085015 0.112328
H12   H     H_    0.222438 0.363447 0.387607 0.156588
H13   H     H_    0.497095 0.862205 0.919293 0.118714
H14   H     H_    0.630714 0.254796 0.663823 0.178590
H15   H     H_    0.622512 0.224494 0.792044 0.092365
H16   H     H_    0.788509 0.272053 0.806096 0.151171
H17   H     H_    0.763390 0.144979 0.726020 0.118393
H18   H     H_    0.788047 0.294024 0.676276 0.164683
H19   H     H_    0.282862 0.490519 0.272041 0.153655
H20   H     H_    0.268233 0.567740 0.160235 0.101847
H21   H     H_    0.213533 0.755843 0.239225 0.148844
H22   H     H_    0.150125 0.624294 0.275534 0.118616
H23   H     H_    0.465508 0.881937 0.349348 0.161503
H24   H     H_    0.233027 0.688213 0.357665 0.183490
H25   H     H_    0.874480 0.145537 0.420401 0.133936
H26   H     H_    0.972781 0.099773 0.354100 0.163089
H27   H     H_    0.843728 0.969748 0.311416 0.093422
H28   H     H_    0.779684 0.104507 0.273828 0.184575
H29   H     H_    0.877374 0.058100 0.207710 0.163895
H30   H     H_    0.150542 0.588661 0.786348 0.144897
H31   H     H_    0.038082 0.631464 0.819826 0.149727
H32   H     H_    0.199286 0.801589 0.835273 0.173699
H33   H     H_    0.087665 0.834717 0.874705 0.173231
H34   H     H_    0.522531 0.116462 0.652472 0.112376
H35   H     H_    0.153753 0.714957 0.934218 0.081132
H36   H     H_    0.386093 0.616249 0.750347 0.184081
H37   H     H_    0.614237 0.384262 0.250086 0.188857
H38   H     H_    0.330928 0.704971 0.903813 0.111757
H39   H     H_    0.686446 0.324617 0.096755 0.137996
H40   H     H_    0.336239 0.717283 0.080277 0.140917
N1    N     N_R   0.499960 0.499900 0.743810 -0.237168
N2    N     N_R   0.500040 0.500100 0.256190 -0.236312
O1    O     O_R   0.500000 0.319630 0.582270 -0.529949
O2    O     O_3   0.371888 0.633686 0.253901 -0.532513
O3    O     O_3   0.910206 0.262676 0.307472 -0.469516
O4    O     O_3   0.089081 0.723704 0.699775 -0.464253
O5    O     O_R   0.500000 0.680370 0.417730 -0.480721
O6    O     O_R   0.499990 0.319660 0.417730 -0.496112
O7    O     O_R   0.500010 0.680340 0.582270 -0.492469
O8    O     O_R   0.370260 0.499960 0.582280 -0.467345
O9    O     O_R   0.629740 0.500040 0.417720 -0.467897
O10   O     O_R   0.370250 0.499990 0.417740 -0.494473
O11   O     O_R   0.629750 0.500010 0.582260 -0.469018
O12   O     O_3   0.646423 0.408970 0.748839 -0.533392

loop_
_geom_bond_atom_site_label_1
_geom_bond_atom_site_label_2
_ccdc_geom_bond_type
C40   C47   A    
C38   C40   A    
C22   C29   A    
C55   O4    S    
Cu1   O11   S    
C15   C60   S    
C52   H24   S    
Cu1   O1    S    
C34   F4    S    
C50   H18   S    
C39   C41   A    
C53   C54   S    
C39   F2    S    
C50   H16   S    
C7    C45   A    
C35   C37   A    
C24   C26   A    
Cu2   O6    S    
C11   C14   A    
C49   O12   S    
Cu2   N2    S    
C58   C60   A    
C57   H33   S    
C33   C36   A    
C49   H15   S    
C18   N1    A    
Cu2   O9    S    
C1    O1    A    
C54   H27   S    
C22   C25   A    
Cu1   O7    S    
C17   C36   S    
C3    H9    S    
C17   O9    A    
C16   C37   S    
C32   H2    S    
C20   N1    A    
C3    C60   A    
C53   O3    S    
C40   C42   A    
C23   C46   A    
C41   C43   A    
C8    C56   A    
C42   C44   A    
Cu1   O8    S    
C2    C14   S    
C16   O8    A    
C51   H20   S    
C50   H17   S    
C52   H21   S    
C45   C58   A    
C23   C47   A    
C51   C52   S    
C52   H22   S    
C34   C44   A    
Cu2   O5    S    
C4    C6    A    
C10   C14   A    
C9    H23   S    
C5    C7    A    
C2    C59   A    
C6    C8    A    
C56   H6    S    
C25   C26   A    
C29   H38   S    
C2    C4    A    
C53   H25   S    
C16   O10   A    
C55   H31   S    
C53   H26   S    
C10   H34   S    
C19   C28   A    
C9    C11   A    
C59   H8    S    
C54   H29   S    
C48   O4    S    
C20   C22   A    
C51   O2    S    
C55   C57   S    
C30   H39   S    
C31   H40   S    
C34   C48   A    
C1    O6    A    
C5    H11   S    
C18   O12   S    
C45   H5    S    
C33   H1    S    
C38   F1    S    
C19   O2    S    
C27   C32   A    
C33   C44   A    
C26   C28   A    
C28   C31   A    
C18   C27   A    
C55   H30   S    
C3    C5    A    
C10   C13   A    
C7    H3    S    
C11   C12   S    
C49   H14   S    
C25   C27   A    
C57   H35   S    
C35   H12   S    
C8    H4    S    
C56   C59   A    
C12   O7    A    
C13   C15   A    
C9    C15   A    
C37   C39   A    
C19   N2    A    
C30   C32   A    
C20   H36   S    
C23   F3    S    
C6    H13   S    
C47   O3    S    
C57   H32   S    
C36   C38   A    
C41   C48   A    
C12   O5    A    
Cu1   Cu2   S    
Cu1   N1    S    
C43   C46   A    
C24   C30   A    
C54   H28   S    
C21   N2    A    
C17   O11   A    
C21   H37   S    
C1    C13   S    
C4    H10   S    
C29   C31   A    
C49   C50   S    
C42   C43   A    
C21   C24   A    
C51   H19   S    
C35   C46   A    
Cu2   O10   S    
C58   H7    S    
