data_mof_unit_51857.cif
_audit_creation_date              2012-12-10T16:33:54-0500
_audit_creation_method            fapswitch 2.2
_symmetry_space_group_name_H-M    P1
_symmetry_Int_Tables_number       1
_space_group_crystal_system       triclinic
_cell_length_a                    28.21392
_cell_length_b                    18.471236
_cell_length_c                    17.092775
_cell_angle_alpha                 90.115781
_cell_angle_beta                  60.60425
_cell_angle_gamma                 90.357922
_cell_volume                      7760.79262362

loop_
_atom_site_label
_atom_site_type_symbol
_atom_type_description
_atom_site_fract_x
_atom_site_fract_y
_atom_site_fract_z
_atom_type_partial_charge
C1    C     C_R   0.701884 0.268880 0.675777 0.891608
C2    C     C_R   0.298115 0.731104 0.324265 0.891009
C3    C     C_R   0.299290 0.266415 0.323886 0.881227
C4    C     C_R   0.701413 0.732201 0.675925 0.911641
C5    C     C_R   0.201872 0.768867 0.675743 0.894435
C6    C     C_R   0.798134 0.231121 0.324234 0.890175
C7    C     C_R   0.799340 0.766308 0.323871 0.882936
C8    C     C_R   0.201422 0.232174 0.675914 0.913633
C9    C     C_R   0.082601 0.381665 0.414343 -0.208113
C10   C     C_R   0.967891 0.632556 0.446254 -0.236508
C11   C     C_R   0.978355 0.373111 0.413228 -0.214892
C12   C     C_R   0.037679 0.626206 0.528281 -0.223988
C13   C     C_R   0.581457 0.881505 0.417618 -0.207176
C14   C     C_R   0.466828 0.132317 0.450169 -0.238943
C15   C     C_R   0.477246 0.872832 0.417111 -0.223619
C16   C     C_R   0.536526 0.125896 0.532393 -0.229084
C17   C     C_R   0.721125 0.266334 0.953417 -0.055605
C18   C     C_R   0.278889 0.734418 0.046955 -0.057468
C19   C     C_R   0.281015 0.255059 0.047028 -0.059437
C20   C     C_R   0.724512 0.729937 0.949179 -0.060215
C21   C     C_R   0.221781 0.765895 0.952197 -0.053816
C22   C     C_R   0.779621 0.236030 0.046250 -0.051102
C23   C     C_R   0.781370 0.754296 0.046767 -0.059312
C24   C     C_R   0.224269 0.230390 0.949360 -0.058874
C25   C     C_R   0.738132 0.195242 0.956522 0.489822
C26   C     C_R   0.222115 0.722712 0.087686 0.490335
C27   C     C_R   0.223483 0.247956 0.092644 0.502664
C28   C     C_R   0.782051 0.730984 0.904345 0.490471
C29   C     C_R   0.278728 0.776630 0.910334 0.506067
C30   C     C_R   0.761264 0.306992 0.045937 0.507016
C31   C     C_R   0.723866 0.746801 0.092465 0.504827
C32   C     C_R   0.281801 0.231085 0.904666 0.488591
C33   C     C_R   0.767801 0.181040 0.001106 -0.364154
C34   C     C_R   0.194188 0.739478 0.040832 -0.366658
C35   C     C_R   0.196140 0.240133 0.042842 -0.371061
C36   C     C_R   0.809548 0.745400 0.952683 -0.357544
C37   C     C_R   0.306487 0.761367 0.958561 -0.383205
C38   C     C_R   0.733232 0.321523 0.997957 -0.386018
C39   C     C_R   0.696456 0.739154 0.042750 -0.372331
C40   C     C_R   0.309256 0.245694 0.953019 -0.360944
C41   C     C_R   0.644217 0.327939 0.945366 -0.238195
C42   C     C_R   0.356308 0.673433 0.054061 -0.234713
C43   C     C_R   0.355821 0.324542 0.055653 -0.218369
C44   C     C_R   0.647148 0.668519 0.941678 -0.233777
C45   C     C_R   0.144185 0.827365 0.945574 -0.210133
C46   C     C_R   0.856667 0.173750 0.053834 -0.210470
C47   C     C_R   0.856031 0.824123 0.055499 -0.214365
C48   C     C_R   0.146963 0.168825 0.941861 -0.228787
C49   C     C_R   0.616867 0.347787 0.898102 -0.064866
C50   C     C_R   0.383365 0.652716 0.101617 -0.065261
C51   C     C_R   0.383062 0.346863 0.102479 -0.074636
C52   C     C_R   0.617983 0.651020 0.896744 -0.064010
C53   C     C_R   0.116873 0.847649 0.898239 -0.072853
C54   C     C_R   0.883570 0.152934 0.101537 -0.073891
C55   C     C_R   0.883159 0.846688 0.102422 -0.074815
C56   C     C_R   0.117905 0.151126 0.896808 -0.064173
C57   C     C_R   0.633303 0.322190 0.813314 -0.266489
C58   C     C_R   0.366606 0.677579 0.186819 -0.265512
C59   C     C_R   0.367358 0.321584 0.187114 -0.265582
C60   C     C_R   0.633098 0.678327 0.813268 -0.262941
C61   C     C_R   0.133483 0.822568 0.813169 -0.267159
C62   C     C_R   0.866916 0.178066 0.186612 -0.261876
C63   C     C_R   0.867429 0.821482 0.187102 -0.263311
C64   C     C_R   0.133092 0.178300 0.813242 -0.258512
C65   C     C_R   0.679669 0.281689 0.770887 -0.089776
C66   C     C_R   0.320355 0.718282 0.229229 -0.087419
C67   C     C_R   0.323118 0.276701 0.228272 -0.077800
C68   C     C_R   0.679301 0.719615 0.770728 -0.093681
C69   C     C_R   0.179709 0.781847 0.770735 -0.075940
C70   C     C_R   0.820576 0.218627 0.229036 -0.078368
C71   C     C_R   0.823289 0.776415 0.228191 -0.077917
C72   C     C_R   0.179290 0.219602 0.770712 -0.093556
C73   C     C_R   0.707979 0.260719 0.816711 -0.123127
C74   C     C_R   0.292264 0.739837 0.183354 -0.129506
C75   C     C_R   0.297427 0.249526 0.180933 -0.144306
C76   C     C_R   0.708117 0.740926 0.815709 -0.140891
C77   C     C_R   0.207892 0.760473 0.816497 -0.139492
C78   C     C_R   0.792518 0.240083 0.183043 -0.133466
C79   C     C_R   0.797788 0.748915 0.180707 -0.142622
C80   C     C_R   0.208059 0.240994 0.815728 -0.141472
C81   C     C_R   0.690251 0.283770 0.905112 0.123404
C82   C     C_R   0.310013 0.717178 0.094862 0.118886
C83   C     C_R   0.312186 0.275152 0.094620 0.136041
C84   C     C_R   0.692699 0.714308 0.901805 0.118564
C85   C     C_R   0.190487 0.783635 0.904701 0.147063
C86   C     C_R   0.810686 0.218118 0.094141 0.151161
C87   C     C_R   0.812527 0.774509 0.094372 0.136340
C88   C     C_R   0.192531 0.214574 0.901936 0.118184
C89   C     C_R   0.691358 0.129241 0.533881 0.897550
C90   C     C_R   0.308876 0.870634 0.464739 0.898686
C91   C     C_R   0.308439 0.129295 0.465987 0.897168
C92   C     C_R   0.696694 0.872157 0.517463 0.912014
C93   C     C_R   0.191449 0.629173 0.533417 0.894619
C94   C     C_R   0.808953 0.370606 0.464466 0.896560
C95   C     C_R   0.808491 0.629325 0.465758 0.895984
C96   C     C_R   0.196859 0.372149 0.516867 0.912145
C97   C     C_R   0.074718 0.098762 0.933272 0.915076
C98   C     C_R   0.925200 0.901135 0.066776 0.913423
C99   C     C_R   0.925956 0.099575 0.066085 0.913482
C100  C     C_R   0.074207 0.900618 0.933807 0.912729
C101  C     C_R   0.574751 0.598721 0.933241 0.914315
C102  C     C_R   0.425192 0.401159 0.066780 0.915399
C103  C     C_R   0.425875 0.599496 0.066130 0.912756
C104  C     C_R   0.574185 0.400635 0.933780 0.912495
C105  C     C_R   0.556732 0.002170 0.478895 0.019289
C106  C     C_R   0.468364 0.001740 0.445503 0.018675
C107  C     C_R   0.057926 0.502446 0.475043 0.018551
C108  C     C_R   0.969510 0.501989 0.441642 0.022427
C109  C     C_R   0.526930 0.066109 0.490775 0.047125
C110  C     C_R   0.497171 0.937077 0.435437 0.049136
C111  C     C_R   0.486990 0.067370 0.463830 0.047563
C112  C     C_R   0.544716 0.939229 0.444165 0.039429
C113  C     C_R   0.028208 0.566423 0.486559 0.036859
C114  C     C_R   0.998437 0.437372 0.431302 0.050190
C115  C     C_R   0.988261 0.567652 0.459606 0.044444
C116  C     C_R   0.045996 0.439529 0.440174 0.038958
C117  C     C_R   0.631498 0.939377 0.483599 0.052109
C118  C     C_R   0.395318 0.067089 0.438204 0.066767
C119  C     C_R   0.397137 0.935181 0.431701 0.070169
C120  C     C_R   0.611958 0.064062 0.534276 0.077150
C121  C     C_R   0.132171 0.439383 0.481378 0.052441
C122  C     C_R   0.895814 0.567204 0.436097 0.065685
C123  C     C_R   0.897659 0.435255 0.429677 0.069064
C124  C     C_R   0.112632 0.564178 0.531589 0.072964
C125  C     C_R   0.670004 0.937687 0.514758 -0.115974
C126  C     C_R   0.342873 0.065432 0.444641 -0.128750
C127  C     C_R   0.343580 0.935343 0.442327 -0.128813
C128  C     C_R   0.659303 0.064085 0.544371 -0.134057
C129  C     C_R   0.170327 0.437662 0.513384 -0.114346
C130  C     C_R   0.843041 0.565481 0.443806 -0.128418
C131  C     C_R   0.843778 0.435338 0.441522 -0.128653
C132  C     C_R   0.159588 0.564058 0.542838 -0.134513
C133  C     C_R   0.683453 0.999822 0.544122 -0.299616
C134  C     C_R   0.318921 0.000164 0.444294 -0.299712
C135  C     C_R   0.183598 0.499801 0.542946 -0.299575
C136  C     C_R   0.818968 0.500166 0.443997 -0.297722
C137  C     C_R   0.599600 0.001624 0.499878 0.072744
C138  C     C_R   0.420361 0.001267 0.438006 0.072307
C139  C     C_R   0.100501 0.501787 0.496817 0.072000
C140  C     C_R   0.921116 0.501413 0.435221 0.072187
C141  C     C_R   0.125546 0.382293 0.432506 -0.166154
C142  C     C_R   0.924839 0.631862 0.428757 -0.177154
C143  C     C_R   0.929267 0.372208 0.412020 -0.183610
C144  C     C_R   0.078150 0.624382 0.552313 -0.166943
C145  C     C_R   0.624784 0.882403 0.434677 -0.162614
C146  C     C_R   0.424273 0.131693 0.431473 -0.180786
C147  C     C_R   0.428626 0.872084 0.414582 -0.188912
C148  C     C_R   0.577392 0.124210 0.555562 -0.174553
H1    H     H_    0.715933 0.999247 0.560785 0.195468
H2    H     H_    0.278411 0.999794 0.452050 0.199450
H3    H     H_    0.215776 0.499202 0.560325 0.193513
H4    H     H_    0.778251 0.499773 0.452623 0.199330
H5    H     H_    0.153969 0.338153 0.405259 0.192052
H6    H     H_    0.915810 0.682925 0.408810 0.180521
H7    H     H_    0.917734 0.321505 0.394493 0.174333
H8    H     H_    0.080942 0.670098 0.589445 0.168442
H9    H     H_    0.653441 0.838600 0.406404 0.192525
H10   H     H_    0.415675 0.182762 0.410909 0.179416
H11   H     H_    0.417483 0.821459 0.396261 0.175505
H12   H     H_    0.580580 0.170023 0.592201 0.167563
H13   H     H_    0.079904 0.336548 0.376798 0.153710
H14   H     H_    0.986526 0.684199 0.445053 0.148629
H15   H     H_    0.998675 0.321864 0.403355 0.139776
H16   H     H_    0.012499 0.673950 0.546281 0.144559
H17   H     H_    0.578704 0.836383 0.380093 0.151647
H18   H     H_    0.485391 0.183937 0.449321 0.143615
H19   H     H_    0.497392 0.821509 0.407766 0.138128
H20   H     H_    0.511284 0.173595 0.550679 0.142206
H21   H     H_    0.722101 0.376567 0.992982 0.160083
H22   H     H_    0.349553 0.772949 0.928479 0.162719
H23   H     H_    0.353280 0.248264 0.916442 0.173903
H24   H     H_    0.652423 0.740040 0.078295 0.168540
H25   H     H_    0.150548 0.731171 0.073952 0.176268
H26   H     H_    0.780814 0.126082 0.001664 0.178477
H27   H     H_    0.853560 0.748270 0.915998 0.174427
H28   H     H_    0.152109 0.241201 0.078248 0.168477
H29   H     H_    0.630452 0.348056 0.012678 0.150767
H30   H     H_    0.369614 0.652869 0.987075 0.152918
H31   H     H_    0.367408 0.347529 0.990421 0.157066
H32   H     H_    0.635624 0.644124 0.006197 0.147935
H33   H     H_    0.131004 0.848123 0.012431 0.157629
H34   H     H_    0.870659 0.154093 0.986274 0.159801
H35   H     H_    0.867600 0.847108 0.990276 0.158781
H36   H     H_    0.135358 0.144617 0.006509 0.150145
H37   H     H_    0.612046 0.338228 0.777773 0.178136
H38   H     H_    0.387596 0.660973 0.222588 0.177823
H39   H     H_    0.387353 0.340949 0.223598 0.179083
H40   H     H_    0.611017 0.663061 0.778630 0.178100
H41   H     H_    0.112363 0.838950 0.777531 0.178603
H42   H     H_    0.887903 0.161502 0.222398 0.177711
H43   H     H_    0.887303 0.841066 0.223684 0.179976
H44   H     H_    0.111069 0.162924 0.778543 0.179768
H45   H     H_    0.745113 0.229697 0.782454 0.184803
H46   H     H_    0.255983 0.772578 0.216958 0.185031
H47   H     H_    0.265267 0.210022 0.212669 0.177280
H48   H     H_    0.743252 0.776206 0.782668 0.197499
H49   H     H_    0.243970 0.727378 0.783047 0.156815
H50   H     H_    0.755151 0.270546 0.217587 0.160748
H51   H     H_    0.765763 0.709221 0.212385 0.177187
H52   H     H_    0.243237 0.276205 0.782662 0.195960
O1    O     O_R   0.746490 0.236330 0.638080 -0.631340
O2    O     O_R   0.253510 0.763670 0.361920 -0.630022
O3    O     O_R   0.253510 0.236330 0.361920 -0.656310
O4    O     O_R   0.746490 0.763670 0.638080 -0.629943
O5    O     O_R   0.246490 0.736330 0.638080 -0.645542
O6    O     O_R   0.753510 0.263670 0.361920 -0.640700
O7    O     O_R   0.753510 0.736330 0.361920 -0.655523
O8    O     O_R   0.246490 0.263670 0.638080 -0.631261
O9    O     O_R   0.674170 0.186160 0.516270 -0.637026
O10   O     O_R   0.325830 0.813840 0.483730 -0.643571
O11   O     O_R   0.325830 0.186160 0.483730 -0.645996
O12   O     O_R   0.674170 0.813840 0.516270 -0.643565
O13   O     O_R   0.174170 0.686160 0.516270 -0.635058
O14   O     O_R   0.825830 0.313840 0.483730 -0.636380
O15   O     O_R   0.825830 0.686160 0.483730 -0.645622
O16   O     O_R   0.174170 0.313840 0.516270 -0.640758
O17   O     O_R   0.739960 0.127620 0.525000 -0.619290
O18   O     O_R   0.260040 0.872380 0.475000 -0.624427
O19   O     O_R   0.260040 0.127620 0.475000 -0.626903
O20   O     O_R   0.739960 0.872380 0.525000 -0.627040
O21   O     O_R   0.239960 0.627620 0.525000 -0.621510
O22   O     O_R   0.760040 0.372380 0.475000 -0.626617
O23   O     O_R   0.760040 0.627620 0.475000 -0.627443
O24   O     O_R   0.239960 0.372380 0.525000 -0.629073
O25   O     O_R   0.680700 0.294870 0.629350 -0.631153
O26   O     O_R   0.319300 0.705130 0.370650 -0.632575
O27   O     O_R   0.319300 0.294870 0.370650 -0.637408
O28   O     O_R   0.680700 0.705130 0.629350 -0.621874
O29   O     O_R   0.180700 0.794870 0.629350 -0.629270
O30   O     O_R   0.819300 0.205130 0.370650 -0.631794
O31   O     O_R   0.819300 0.794870 0.370650 -0.636263
O32   O     O_R   0.180700 0.205130 0.629350 -0.619696
O33   O     O_R   0.062020 0.072840 0.007170 -0.631055
O34   O     O_R   0.937980 0.927160 0.992830 -0.626062
O35   O     O_R   0.937980 0.072840 0.992830 -0.625594
O36   O     O_R   0.062020 0.927160 0.007170 -0.628366
O37   O     O_R   0.562020 0.572840 0.007170 -0.632565
O38   O     O_R   0.437980 0.427160 0.992830 -0.627139
O39   O     O_R   0.437980 0.572840 0.992830 -0.628937
O40   O     O_R   0.562020 0.427160 0.007170 -0.632040
O41   O     O_R   0.947860 0.073950 0.109290 -0.624311
O42   O     O_R   0.052140 0.926050 0.890710 -0.622927
O43   O     O_R   0.052140 0.073950 0.890710 -0.622463
O44   O     O_R   0.947860 0.926050 0.109290 -0.624498
O45   O     O_R   0.447860 0.573950 0.109290 -0.623687
O46   O     O_R   0.552140 0.426050 0.890710 -0.622846
O47   O     O_R   0.552140 0.573950 0.890710 -0.623714
O48   O     O_R   0.447860 0.426050 0.109290 -0.624611
Zn1   Zn    Zn3+2 0.792340 0.208750 0.507670 0.955522
Zn2   Zn    Zn3+2 0.207660 0.791250 0.492330 0.954557
Zn3   Zn    Zn3+2 0.207660 0.208750 0.492330 0.936701
Zn4   Zn    Zn3+2 0.792340 0.791250 0.507670 0.950695
Zn5   Zn    Zn3+2 0.292340 0.708750 0.507670 0.928773
Zn6   Zn    Zn3+2 0.707660 0.291250 0.492330 0.937438
Zn7   Zn    Zn3+2 0.707660 0.708750 0.492330 0.930933
Zn8   Zn    Zn3+2 0.292340 0.291250 0.507670 0.943710
Zn9   Zn    Zn3+2 0.505960 0.500000 0.080520 0.919929
Zn10  Zn    Zn3+2 0.494040 0.500000 0.919480 0.932066
Zn11  Zn    Zn3+2 0.005960 1.000000 0.080520 0.932502
Zn12  Zn    Zn3+2 0.994040 1.000000 0.919480 0.945903
O49   O     O_3   0.727532 0.139392 0.913351 -0.616842
C149  C     C_3   0.678653 0.104910 0.975619 0.092909
H53   H     H_    0.644283 0.144014 0.005127 0.138418
H54   H     H_    0.683136 0.079141 0.030500 0.144994
C150  C     C_3   0.664721 0.046150 0.927640 -0.797590
H55   H     H_    0.697827 0.005539 0.898468 0.260025
H56   H     H_    0.626277 0.018576 0.975936 0.205198
H57   H     H_    0.659470 0.070430 0.872986 0.253746
O50   O     O_3   0.192896 0.698470 0.175348 -0.618409
C151  C     C_3   0.189616 0.622218 0.174946 0.082550
H58   H     H_    0.230915 0.597614 0.140866 0.145582
H59   H     H_    0.166625 0.604129 0.140796 0.142315
C152  C     C_3   0.159736 0.594940 0.271427 -0.767814
H60   H     H_    0.118081 0.617824 0.307082 0.258677
H61   H     H_    0.156668 0.534940 0.272256 0.210864
H62   H     H_    0.182060 0.611439 0.307080 0.260000
O51   O     O_3   0.193372 0.252370 0.185473 -0.613548
C153  C     C_3   0.167915 0.184378 0.219662 0.067652
H63   H     H_    0.198150 0.139598 0.193256 0.127323
H64   H     H_    0.135522 0.173280 0.201982 0.143587
C154  C     C_3   0.141354 0.183629 0.321553 -0.839080
H65   H     H_    0.105379 0.219350 0.351078 0.235546
H66   H     H_    0.127604 0.127820 0.346951 0.202302
H67   H     H_    0.170527 0.201995 0.343297 0.275421
O52   O     O_3   0.812111 0.721408 0.812467 -0.623330
C155  C     C_3   0.823816 0.647099 0.794380 0.072223
H68   H     H_    0.785830 0.613809 0.824394 0.143420
H69   H     H_    0.850651 0.628324 0.820943 0.146168
C156  C     C_3   0.853269 0.635339 0.693183 -0.766390
H70   H     H_    0.891850 0.666946 0.660986 0.252364
H71   H     H_    0.862853 0.577056 0.677893 0.207493
H72   H     H_    0.827157 0.652913 0.664918 0.266087
O53   O     O_3   0.304892 0.811185 0.827456 -0.604852
C157  C     C_3   0.350743 0.771505 0.765376 0.053931
H73   H     H_    0.341554 0.712425 0.768335 0.122182
H74   H     H_    0.385471 0.780354 0.777828 0.149909
C158  C     C_3   0.367994 0.798242 0.670849 -0.769127
H75   H     H_    0.378607 0.856745 0.664872 0.259378
H76   H     H_    0.404107 0.767694 0.621187 0.194789
H77   H     H_    0.334386 0.790208 0.655493 0.271251
O54   O     O_3   0.776589 0.362433 0.084129 -0.603022
C159  C     C_3   0.731169 0.404455 0.142965 0.071365
H78   H     H_    0.694710 0.370110 0.185050 0.122668
H79   H     H_    0.721321 0.444160 0.104355 0.142135
C160  C     C_3   0.745035 0.446787 0.205632 -0.822418
H80   H     H_    0.780700 0.482631 0.166056 0.260256
H81   H     H_    0.709868 0.480658 0.251600 0.195846
H82   H     H_    0.754688 0.408972 0.246240 0.258486
O55   O     O_3   0.693819 0.750956 0.185307 -0.610162
C161  C     C_3   0.668471 0.682882 0.219315 0.065686
H83   H     H_    0.698782 0.638179 0.193014 0.125135
H84   H     H_    0.636171 0.671674 0.201451 0.141265
C162  C     C_3   0.641736 0.682193 0.321213 -0.845102
H85   H     H_    0.606484 0.719193 0.350438 0.236966
H86   H     H_    0.626952 0.626689 0.346741 0.197160
H87   H     H_    0.671160 0.699139 0.343050 0.276187
O56   O     O_3   0.311905 0.220858 0.812900 -0.626159
C163  C     C_3   0.323303 0.146403 0.795650 0.076068
H88   H     H_    0.285174 0.113406 0.825842 0.149125
H89   H     H_    0.349948 0.127713 0.822625 0.144918
C164  C     C_3   0.352875 0.133919 0.694587 -0.765706
H90   H     H_    0.391595 0.165218 0.662239 0.250767
H91   H     H_    0.362216 0.075511 0.679972 0.209701
H92   H     H_    0.326959 0.151388 0.665905 0.265950

loop_
_geom_bond_atom_site_label_1
_geom_bond_atom_site_label_2
_ccdc_geom_bond_type
C74   H46   S    
C58   H38   S    
C2    O2    A    
C79   C87   A    
C27   O51   S    
O54   C159  S    
C154  H67   S    
O34   Zn12  S    
C2    O26   A    
C89   O17   A    
C13   C112  A    
C152  H62   S    
C62   C70   A    
C148  H12   S    
C107  C113  A    
C18   C26   A    
O40   Zn9   S    
C98   O44   A    
C163  C164  S    
C50   C103  S    
C10   H14   S    
C61   H41   S    
O18   Zn2   S    
C76   C84   A    
C41   C49   A    
C136  H4    S    
C16   C109  A    
C159  H79   S    
O22   Zn6   S    
C161  H84   S    
C52   C101  S    
C94   O14   A    
O33   Zn11  S    
C57   C65   A    
C48   H36   S    
C20   C28   A    
C27   C35   A    
C21   C29   A    
C23   C31   A    
C24   C32   A    
C26   O50   S    
C145  H9    S    
C102  O48   A    
C7    O7    A    
C105  C112  A    
C63   C71   A    
C120  C148  A    
O20   Zn4   S    
C151  H59   S    
C100  O36   A    
C100  O42   A    
O24   Zn8   S    
C38   H21   S    
C90   O10   A    
C104  O40   A    
C155  C156  S    
C9    C116  A    
C125  C133  A    
C96   O16   A    
C17   C25   A    
C80   C88   A    
C155  H69   S    
C42   H30   S    
C55   C98   S    
C18   C82   S    
O43   Zn12  S    
C126  C134  A    
C36   H27   S    
C23   C36   A    
C78   H50   S    
C118  C138  A    
C11   C143  A    
C40   H23   S    
C96   C129  S    
C113  C115  A    
C121  C139  A    
C43   C83   A    
C124  C139  A    
C69   C77   A    
C127  C134  A    
C13   C145  A    
O11   Zn8   S    
C75   C83   A    
C92   C125  S    
C49   C104  S    
C71   C79   A    
C51   C102  S    
C30   C38   A    
C103  O45   A    
C108  C115  A    
C41   H29   S    
C109  C111  A    
O49   C149  S    
C135  H3    S    
C162  H86   S    
C66   C74   A    
C49   C57   A    
C124  C132  A    
C163  H89   S    
C52   C60   A    
C59   C67   A    
C129  C135  A    
C53   C61   A    
O35   Zn12  S    
C160  H81   S    
C55   C63   A    
C95   C130  S    
C1    C65   S    
C56   C64   A    
C59   H39   S    
C14   H18   S    
C93   C132  S    
C44   C52   A    
C22   C86   S    
C77   C85   A    
O51   C153  S    
C158  H76   S    
C15   H19   S    
O17   Zn1   S    
C56   C97   S    
C19   C83   S    
C106  C111  A    
O21   Zn5   S    
C101  O37   A    
C91   O11   A    
C131  C136  A    
C29   O53   S    
C4    C68   S    
C89   O9    A    
C95   O23   A    
C47   C87   A    
C144  H8    S    
O10   Zn5   S    
O53   C157  S    
C143  H7    S    
C98   O34   A    
C164  H92   S    
O14   Zn1   S    
C11   H15   S    
C156  H70   S    
C142  H6    S    
C9    H13   S    
C33   H26   S    
C150  H56   S    
C60   C68   A    
C42   C50   A    
O3    Zn3   S    
C32   O56   S    
C164  H90   S    
C104  O46   A    
C20   C84   S    
C54   C99   S    
C92   O12   A    
C67   C75   A    
O5    Zn5   S    
C105  C109  A    
C22   C30   A    
C119  C138  A    
C57   H37   S    
C2    C66   S    
C114  C116  A    
O27   Zn8   S    
C146  H10   S    
C154  H66   S    
O1    Zn1   S    
C46   H34   S    
O12   Zn7   S    
C6    O30   A    
C122  C140  A    
C72   C80   A    
C141  H5    S    
O16   Zn3   S    
C152  H61   S    
C153  H64   S    
C17   C38   A    
C107  C139  A    
C110  C112  A    
C107  C116  A    
C6    O6    A    
C19   C40   A    
C105  C137  A    
C60   H40   S    
C94   O22   A    
C153  H63   S    
C117  C125  A    
C161  C162  S    
C25   C33   A    
C119  C127  A    
C73   H45   S    
C3    O3    A    
C15   C110  A    
C1    O1    A    
C44   H32   S    
C149  C150  S    
C45   H33   S    
C7    O31   A    
C31   O55   S    
C43   H31   S    
C157  H73   S    
C119  C147  A    
C156  H72   S    
C117  C145  A    
C10   C142  A    
C108  C114  A    
C5    C69   S    
C76   H48   S    
C64   H44   S    
O26   Zn5   S    
C153  C154  S    
C90   C127  S    
C48   C88   A    
O30   Zn1   S    
O45   Zn9   S    
O19   Zn3   S    
O50   C151  S    
C151  C152  S    
C74   C82   A    
C5    O5    A    
C53   C100  S    
C21   C85   S    
C8    C72   S    
C79   H51   S    
C93   O13   A    
C50   C58   A    
C121  C141  A    
C157  C158  S    
C20   C39   A    
C21   C34   A    
C54   C62   A    
O52   C155  S    
O9    Zn6   S    
C12   H16   S    
O28   Zn7   S    
C25   O49   S    
C30   O54   S    
C13   H17   S    
C41   C81   A    
C46   C54   A    
O32   Zn3   S    
C24   C88   S    
C149  H53   S    
C73   C81   A    
C47   H35   S    
O37   Zn9   S    
O15   Zn4   S    
C68   C76   A    
C101  O47   A    
C3    O27   A    
O47   Zn10  S    
C1    O25   A    
C6    C70   S    
C161  H83   S    
C123  C131  A    
C121  C129  A    
C44   C84   A    
C120  C128  A    
C94   C131  S    
C34   H25   S    
C15   C147  A    
C43   C51   A    
C162  H85   S    
C63   H43   S    
C17   C81   S    
C4    O28   A    
C106  C138  A    
C28   C36   A    
C103  O39   A    
C160  H80   S    
C29   C37   A    
C151  H58   S    
C120  C137  A    
C77   H49   S    
C89   C128  S    
C75   H47   S    
C91   C126  S    
C70   C78   A    
C95   O15   A    
C158  H75   S    
O39   Zn10  S    
C42   C82   A    
C147  H11   S    
O55   C161  S    
C159  C160  S    
C39   H24   S    
C35   H28   S    
C18   C37   A    
C7    C71   S    
C155  H68   S    
C4    O4    A    
C80   H52   S    
C65   C73   A    
C92   O20   A    
C8    O8    A    
C11   C114  A    
O7    Zn7   S    
C26   C34   A    
O25   Zn6   S    
C96   O24   A    
C19   C27   A    
C150  H55   S    
O29   Zn2   S    
C78   C86   A    
C64   C72   A    
C23   C87   S    
O44   Zn11  S    
C130  C136  A    
O31   Zn4   S    
C58   C66   A    
C14   C111  A    
C102  O38   A    
C24   C35   A    
C90   O18   A    
C118  C146  A    
C133  H1    S    
C37   H22   S    
C108  C140  A    
C9    C141  A    
C162  H87   S    
C149  H54   S    
C164  H91   S    
C154  H65   S    
C117  C137  A    
C123  C140  A    
C12   C144  A    
C99   O41   A    
C45   C85   A    
C163  H88   S    
O46   Zn10  S    
C97   O43   A    
C99   O35   A    
C160  H82   S    
C97   O33   A    
C62   H42   S    
C152  H60   S    
O13   Zn2   S    
C28   O52   S    
O2    Zn2   S    
C158  H77   S    
C5    O29   A    
C51   C59   A    
C122  C142  A    
O6    Zn6   S    
C47   C55   A    
C12   C113  A    
C106  C110  A    
C61   C69   A    
C48   C56   A    
C22   C33   A    
C159  H78   S    
O36   Zn11  S    
O41   Zn11  S    
C134  H2    S    
O42   Zn12  S    
C3    C67   S    
O8    Zn8   S    
C14   C146  A    
C16   C148  A    
C128  C133  A    
C157  H74   S    
C8    O32   A    
C16   H20   S    
C132  C135  A    
C156  H71   S    
C31   C39   A    
O38   Zn10  S    
C32   C40   A    
C91   O19   A    
O56   C163  S    
C150  H57   S    
C45   C53   A    
O48   Zn9   S    
O4    Zn4   S    
O23   Zn7   S    
C123  C143  A    
C124  C144  A    
C93   O21   A    
C118  C126  A    
C122  C130  A    
C10   C115  A    
C46   C86   A    
