data_mof_unit_9649.cif
_audit_creation_date              2012-12-10T17:22:04-0500
_audit_creation_method            fapswitch 2.2
_symmetry_space_group_name_H-M    P1
_symmetry_Int_Tables_number       1
_space_group_crystal_system       triclinic
_cell_length_a                    10.260218
_cell_length_b                    10.3546
_cell_length_c                    15.754062
_cell_angle_alpha                 91.070068
_cell_angle_beta                  82.223878
_cell_angle_gamma                 94.5605
_cell_volume                      1653.02420787

loop_
_atom_site_label
_atom_site_type_symbol
_atom_type_description
_atom_site_fract_x
_atom_site_fract_y
_atom_site_fract_z
_atom_type_partial_charge
C1    C     C_R   0.554373 0.735194 0.497569 0.806694
C2    C     C_3   0.370301 0.561902 0.062980 0.038724
C3    C     C_3   0.496315 0.489880 0.083397 0.057785
C4    C     C_3   0.488386 0.340006 0.050659 -0.233654
C5    C     C_3   0.463293 0.339344 0.950780 -0.161410
C6    C     C_1   0.496186 0.493944 0.175562 -0.043788
C7    C     C_1   0.498533 0.491287 0.824601 0.158018
C8    C     C_1   0.501231 0.495724 0.749380 -0.067720
C9    C     C_2   0.581536 0.874653 0.504804 -0.207424
C10   C     C_2   0.521837 0.936666 0.574778 0.158419
C11   C     C_2   0.421143 0.126794 0.526210 -0.227314
C12   C     C_R   0.500829 0.499962 0.661120 0.869202
C13   C     C_2   0.505255 0.075105 0.572966 -0.004444
C14   C     C_2   0.924382 0.474292 0.522348 0.182742
C15   C     C_2   0.071545 0.470009 0.501867 0.020256
C16   C     C_R   0.445916 0.264728 0.508350 0.816374
C17   C     C_R   0.499105 0.499802 0.338862 0.890834
C18   C     C_3   0.381357 0.578553 0.960667 -0.079017
C19   C     C_3   0.639005 0.542490 0.937406 0.160679
C20   C     C_3   0.632703 0.563779 0.038911 0.177021
C21   C     C_1   0.496802 0.497201 0.250607 -0.144496
C22   C     C_3   0.494747 0.487434 0.916836 0.096458
H1    H     H_    0.575165 0.137555 0.604142 0.173297
N1    N     N_2   0.842720 0.448890 0.465540 -0.156812
N2    N     N_2   0.157250 0.551040 0.534500 -0.205118
O1    O     O_R   0.431050 0.692470 0.506940 -0.593012
O2    O     O_R   0.651130 0.659650 0.484820 -0.571129
O3    O     O_R   0.389910 0.516410 0.633920 -0.592189
O4    O     O_R   0.609990 0.483590 0.611800 -0.654069
O5    O     O_R   0.348870 0.340350 0.515180 -0.621075
O6    O     O_R   0.568950 0.307530 0.493060 -0.563450
O7    O     O_R   0.390010 0.516410 0.388200 -0.620844
O8    O     O_R   0.610090 0.483590 0.366080 -0.581382
Zn1   Zn    Zn3+2 0.353060 0.521920 0.514770 0.980313
Zn2   Zn    Zn3+2 0.646940 0.478080 0.485230 1.012680
N3    N     N_3   0.361203 0.688733 0.108721 -0.377294
H2    H     H_    0.268590 0.723024 0.105680 0.205455
H3    H     H_    0.427478 0.763611 0.083558 0.233637
C23   C     C_2   0.245815 0.552441 0.928574 0.371815
H4    H     H_    0.155450 0.564540 0.971310 0.054600
O9    O     O_2   0.235828 0.537255 0.852627 -0.525003
C24   C     C_2   0.243603 0.482776 0.102019 0.322043
H5    H     H_    0.187866 0.415986 0.065081 0.042806
O10   O     O_2   0.202658 0.492395 0.178302 -0.540282
C25   C     C_2   0.613613 0.279163 0.070585 0.521441
H6    H     H_    0.627592 0.269543 0.137329 0.068435
O11   O     O_2   0.699954 0.242755 0.016591 -0.565334
N4    N     N_3   0.472013 0.870085 0.653261 -0.426065
H7    H     H_    0.391090 0.806498 0.643938 0.218307
H8    H     H_    0.546155 0.816963 0.671382 0.164551
C26   C     C_2   0.314596 0.051538 0.487365 0.465940
H9    H     H_    0.265074 0.097348 0.440682 0.099253
O12   O     O_2   0.279433 0.939728 0.507608 -0.534659
C27   C     C_2   0.661050 0.941616 0.430048 0.433482
H10   H     H_    0.684459 0.888031 0.370772 0.076904
O13   O     O_2   0.704622 0.054428 0.434191 -0.533201
C28   C     C_2   0.116940 0.355009 0.452882 0.376624
H11   H     H_    0.204429 0.362105 0.406333 0.117633
O14   O     O_2   0.053336 0.250273 0.462603 -0.561244
N5    N     N_3   0.875750 0.493268 0.610747 -0.436001
H12   H     H_    0.816709 0.410865 0.633169 0.233153
H13   H     H_    0.824229 0.576628 0.617150 0.239895
C29   C     C_2   0.120376 0.670053 0.574201 0.653741
H14   H     H_    0.176962 0.713537 0.622058 0.058479
O15   O     O_2   0.032393 0.728562 0.551411 -0.560926
N6    N     N_3   0.419979 0.714718 0.936819 -0.455568
H15   H     H_    0.343904 0.774000 0.958295 0.189968
H16   H     H_    0.433701 0.724084 0.870101 0.214640
C30   C     C_2   0.895794 0.460876 0.377453 0.607460
H17   H     H_    0.951163 0.385469 0.344734 0.048760
O16   O     O_2   0.877277 0.555979 0.337446 -0.546020
N7    N     N_3   0.733814 0.445797 0.906983 -0.358129
H18   H     H_    0.742383 0.439658 0.840158 0.224548
H19   H     H_    0.829429 0.477320 0.917783 0.204146
N8    N     N_3   0.686743 0.662575 0.888516 -0.487363
H20   H     H_    0.646505 0.746525 0.913121 0.235250
H21   H     H_    0.788378 0.681147 0.888932 0.181589
N9    N     N_3   0.638010 0.702735 0.061540 -0.466192
H22   H     H_    0.629776 0.713908 0.128130 0.202071
H23   H     H_    0.730546 0.748141 0.038759 0.184622
N10   N     N_3   0.748574 0.512412 0.069832 -0.433408
H24   H     H_    0.835072 0.566306 0.044245 0.178388
H25   H     H_    0.744493 0.525061 0.136073 0.201049
C31   C     C_2   0.322432 0.290254 0.936287 0.353019
H26   H     H_    0.247940 0.254831 0.987127 0.118414
O17   O     O_2   0.291800 0.281728 0.863881 -0.495709
C32   C     C_2   0.539740 0.235316 0.899290 0.626656
H27   H     H_    0.539698 0.140286 0.927389 0.108246
O18   O     O_2   0.589663 0.249524 0.824886 -0.597630
C33   C     C_2   0.383860 0.252175 0.105720 0.220834
H28   H     H_    0.333948 0.285311 0.166227 0.149675
O19   O     O_2   0.363299 0.138072 0.086512 -0.578651

loop_
_geom_bond_atom_site_label_1
_geom_bond_atom_site_label_2
_ccdc_geom_bond_type
N6    H16   S    
C32   H27   S    
C29   O15   D    
C12   O4    A    
C2    C18   S    
C19   C20   S    
C18   C23   S    
C3    C6    S    
N10   H24   S    
C28   H11   S    
C7    C8    T    
C23   O9    D    
C25   H6    S    
C16   O6    A    
C24   O10   D    
C12   O3    A    
N3    H2    S    
C31   O17   D    
N9    H23   S    
C28   O14   D    
C16   O5    A    
C13   H1    S    
N5    H13   S    
N2    C29   S    
C14   N1    D    
C30   O16   D    
O1    Zn1   S    
C5    C22   S    
C9    C10   D    
N2    Zn1   S    
N4    H8    S    
N6    H15   S    
O3    Zn1   S    
C20   N10   S    
C15   C28   S    
C19   N7    S    
C17   O8    A    
N10   H25   S    
N1    C30   S    
C4    C33   S    
C4    C25   S    
C25   O11   D    
C27   O13   D    
N1    Zn2   S    
O5    Zn1   S    
C26   H9    S    
C19   C22   S    
C1    C9    S    
C31   H26   S    
N7    H19   S    
C23   H4    S    
C5    C31   S    
N9    H22   S    
C4    C5    S    
O2    Zn2   S    
C6    C21   T    
C17   C21   S    
N5    H12   S    
C26   O12   D    
O7    Zn1   S    
N8    H20   S    
C11   C16   S    
C33   O19   D    
C8    C12   S    
C3    C20   S    
N8    H21   S    
N4    H7    S    
C32   O18   D    
C10   N4    S    
C1    O1    A    
O6    Zn2   S    
C24   H5    S    
C3    C4    S    
C2    N3    S    
C27   H10   S    
C18   C22   S    
N7    H18   S    
C10   C13   S    
C18   N6    S    
C7    C22   S    
C14   N5    S    
O4    Zn2   S    
C20   N9    S    
N3    H3    S    
C2    C3    S    
C11   C13   D    
C33   H28   S    
C2    C24   S    
C19   N8    S    
O8    Zn2   S    
C30   H17   S    
C11   C26   S    
C29   H14   S    
C5    C32   S    
C15   N2    D    
C1    O2    A    
C17   O7    A    
C14   C15   S    
C9    C27   S    
