data_mof_unit_60940.cif
_audit_creation_date              2012-12-10T18:23:50-0500
_audit_creation_method            fapswitch 2.2
_symmetry_space_group_name_H-M    P1
_symmetry_Int_Tables_number       1
_space_group_crystal_system       tetragonal
_cell_length_a                    35.622452
_cell_length_b                    35.622452
_cell_length_c                    55.827658
_cell_angle_alpha                 90.0
_cell_angle_beta                  90.0
_cell_angle_gamma                 90.0
_cell_volume                      70843.0138967

loop_
_atom_site_label
_atom_site_type_symbol
_atom_type_description
_atom_site_fract_x
_atom_site_fract_y
_atom_site_fract_z
_atom_type_partial_charge
C1    C     C_R   0.500000 0.927603 0.500000 0.830794
C2    C     C_R   0.072397 0.500000 0.500000 0.830793
C3    C     C_R   0.500000 0.072397 0.500000 0.830793
C4    C     C_R   0.927603 0.500000 0.500000 0.830794
C5    C     C_R   1.000000 0.427603 1.000000 0.830794
C6    C     C_R   0.572397 0.000000 0.000000 0.830793
C7    C     C_R   1.000000 0.572397 0.000000 0.830793
C8    C     C_R   0.427603 1.000000 1.000000 0.830794
C9    C     C_R   0.532840 0.990201 0.610586 0.256375
C10   C     C_R   0.009799 0.532840 0.610586 0.256375
C11   C     C_R   0.467160 0.009799 0.610586 0.256375
C12   C     C_R   0.990201 0.467160 0.610586 0.256375
C13   C     C_R   0.532840 0.009799 0.389414 0.256375
C14   C     C_R   0.009799 0.467160 0.389414 0.256375
C15   C     C_R   0.467160 0.990201 0.389414 0.256374
C16   C     C_R   0.990201 0.532840 0.389414 0.256375
C17   C     C_R   0.032840 0.490201 0.110586 0.256374
C18   C     C_R   0.509799 0.032840 0.110586 0.256375
C19   C     C_R   0.967160 0.509799 0.110586 0.256375
C20   C     C_R   0.490201 0.967160 0.110586 0.256375
C21   C     C_R   0.032840 0.509799 0.889414 0.256375
C22   C     C_R   0.509799 0.967160 0.889414 0.256375
C23   C     C_R   0.967160 0.490201 0.889414 0.256375
C24   C     C_R   0.490201 0.032840 0.889414 0.256375
C25   C     C_R   0.532744 0.990959 0.585483 -0.275339
C26   C     C_R   0.009041 0.532744 0.585483 -0.275340
C27   C     C_R   0.467256 0.009041 0.585483 -0.275339
C28   C     C_R   0.990959 0.467256 0.585483 -0.275339
C29   C     C_R   0.532744 0.009041 0.414517 -0.275339
C30   C     C_R   0.009041 0.467255 0.414517 -0.275339
C31   C     C_R   0.467256 0.990959 0.414517 -0.275338
C32   C     C_R   0.990959 0.532744 0.414517 -0.275339
C33   C     C_R   0.032744 0.490959 0.085483 -0.275339
C34   C     C_R   0.509041 0.032744 0.085483 -0.275340
C35   C     C_R   0.967256 0.509041 0.085483 -0.275339
C36   C     C_R   0.490959 0.967256 0.085483 -0.275339
C37   C     C_R   0.032744 0.509041 0.914517 -0.275339
C38   C     C_R   0.509041 0.967256 0.914517 -0.275339
C39   C     C_R   0.967256 0.490959 0.914517 -0.275339
C40   C     C_R   0.490959 0.032744 0.914517 -0.275339
C41   C     C_R   0.500000 0.000000 0.572787 -0.098239
C42   C     C_R   0.000000 0.500000 0.572787 -0.098239
C43   C     C_R   0.500000 0.000000 0.427213 -0.098239
C44   C     C_R   0.000000 0.500000 0.427213 -0.098239
C45   C     C_R   0.000000 0.500000 0.072787 -0.098239
C46   C     C_R   0.500000 0.000000 0.072787 -0.098240
C47   C     C_R   0.000000 0.500000 0.927213 -0.098239
C48   C     C_R   0.500000 0.000000 0.927213 -0.098239
C49   C     C_R   0.500000 0.000000 0.623301 0.303130
C50   C     C_R   0.000000 0.500000 0.623301 0.303130
C51   C     C_R   0.500000 0.000000 0.376699 0.303131
C52   C     C_R   0.000000 0.500000 0.376699 0.303130
C53   C     C_R   0.000000 0.500000 0.123300 0.303131
C54   C     C_R   0.500000 0.000000 0.123300 0.303130
C55   C     C_R   1.000000 0.500000 0.876699 0.303131
C56   C     C_R   0.500000 0.000000 0.876699 0.303130
C57   C     C_R   0.427885 0.500000 0.500000 0.880768
C58   C     C_R   0.500000 0.427885 0.500000 0.880768
C59   C     C_R   0.572115 0.500000 0.500000 0.880767
C60   C     C_R   0.500000 0.572115 0.500000 0.880767
C61   C     C_R   0.927885 0.000000 0.000000 0.880768
C62   C     C_R   0.000000 0.927885 0.000000 0.880768
C63   C     C_R   0.072115 1.000000 1.000000 0.880767
C64   C     C_R   0.000000 0.072115 1.000000 0.880767
C65   C     C_R   0.472974 0.672744 0.486872 -0.133843
C66   C     C_R   0.327256 0.472974 0.486872 -0.133843
C67   C     C_R   0.527026 0.327256 0.486872 -0.133843
C68   C     C_R   0.672744 0.527026 0.486872 -0.133842
C69   C     C_R   0.472974 0.327256 0.513128 -0.133843
C70   C     C_R   0.327256 0.527026 0.513128 -0.133843
C71   C     C_R   0.527026 0.672744 0.513128 -0.133843
C72   C     C_R   0.672744 0.472974 0.513128 -0.133843
C73   C     C_R   0.972974 0.172744 0.986872 -0.133843
C74   C     C_R   0.827256 0.972974 0.986872 -0.133843
C75   C     C_R   0.027026 0.827256 0.986872 -0.133843
C76   C     C_R   0.172744 0.027026 0.986872 -0.133842
C77   C     C_R   0.972974 0.827256 0.013128 -0.133843
C78   C     C_R   0.827256 0.027026 0.013128 -0.133843
C79   C     C_R   0.027026 0.172744 0.013128 -0.133843
C80   C     C_R   0.172744 0.972974 0.013128 -0.133843
C81   C     C_R   0.472788 0.633488 0.486759 0.236060
C82   C     C_R   0.366512 0.472788 0.486759 0.236060
C83   C     C_R   0.527212 0.366512 0.486759 0.236060
C84   C     C_R   0.633488 0.527212 0.486759 0.236059
C85   C     C_R   0.472788 0.366512 0.513240 0.236060
C86   C     C_R   0.366512 0.527212 0.513240 0.236059
C87   C     C_R   0.527212 0.633488 0.513240 0.236059
C88   C     C_R   0.633488 0.472788 0.513240 0.236060
C89   C     C_R   0.972788 0.133488 0.986759 0.236060
C90   C     C_R   0.866512 0.972788 0.986759 0.236060
C91   C     C_R   0.027212 0.866512 0.986759 0.236060
C92   C     C_R   0.133488 0.027212 0.986759 0.236059
C93   C     C_R   0.972788 0.866512 0.013240 0.236060
C94   C     C_R   0.866512 0.027212 0.013240 0.236059
C95   C     C_R   0.027212 0.133488 0.013240 0.236059
C96   C     C_R   0.133488 0.972788 0.013240 0.236060
C97   C     C_R   0.500000 0.613447 0.500000 -0.146182
C98   C     C_R   0.386553 0.500000 0.500000 -0.146182
C99   C     C_R   0.500000 0.386553 0.500000 -0.146182
C100  C     C_R   0.613447 0.500000 0.500000 -0.146182
C101  C     C_R   0.000000 0.113447 1.000000 -0.146182
C102  C     C_R   0.886553 0.000000 0.000000 -0.146182
C103  C     C_R   1.000000 0.886553 0.000000 -0.146182
C104  C     C_R   0.113447 1.000000 1.000000 -0.146182
C105  C     C_R   0.500000 0.692356 0.500000 0.004676
C106  C     C_R   0.307644 0.500000 0.500000 0.004676
C107  C     C_R   0.500000 0.307644 0.500000 0.004676
C108  C     C_R   0.692356 0.500000 0.500000 0.004676
C109  C     C_R   0.000000 0.192356 1.000000 0.004676
C110  C     C_R   0.807644 0.000000 0.000000 0.004676
C111  C     C_R   1.000000 0.807644 0.000000 0.004676
C112  C     C_R   0.192356 1.000000 1.000000 0.004676
C113  C     C_1   0.500000 0.732700 0.500000 0.068699
C114  C     C_1   0.267300 0.500000 0.500000 0.068699
C115  C     C_1   0.500000 0.267300 0.500000 0.068699
C116  C     C_1   0.732700 0.500000 0.500000 0.068699
C117  C     C_1   1.000000 0.232700 1.000000 0.068699
C118  C     C_1   0.767300 0.000000 0.000000 0.068699
C119  C     C_1   1.000000 0.767300 0.000000 0.068699
C120  C     C_1   0.232700 1.000000 1.000000 0.068699
C121  C     C_R   0.500000 0.000000 0.546342 0.836820
C122  C     C_R   0.000000 0.500000 0.546342 0.836820
C123  C     C_R   0.500000 0.000000 0.453658 0.836820
C124  C     C_R   0.000000 0.500000 0.453658 0.836820
C125  C     C_R   0.000000 0.500000 0.046342 0.836820
C126  C     C_R   0.500000 0.000000 0.046342 0.836820
C127  C     C_R   0.000000 0.500000 0.953658 0.836820
C128  C     C_R   0.500000 0.000000 0.953658 0.836820
C129  C     C_1   0.500000 0.766516 0.500000 0.103572
C130  C     C_1   0.233484 0.500000 0.500000 0.103572
C131  C     C_1   0.500000 0.233484 0.500000 0.103572
C132  C     C_1   0.766516 0.500000 0.500000 0.103572
C133  C     C_1   1.000000 0.266516 1.000000 0.103572
C134  C     C_1   0.733484 0.000000 0.000000 0.103572
C135  C     C_1   1.000000 0.733484 0.000000 0.103572
C136  C     C_1   0.266516 1.000000 1.000000 0.103572
C137  C     C_R   0.465880 0.826802 0.499445 0.259236
C138  C     C_R   0.173197 0.465880 0.499445 0.259236
C139  C     C_R   0.534120 0.173197 0.499445 0.259237
C140  C     C_R   0.826802 0.534120 0.499445 0.259237
C141  C     C_R   0.465880 0.173197 0.500555 0.259236
C142  C     C_R   0.173197 0.534120 0.500555 0.259237
C143  C     C_R   0.534120 0.826802 0.500555 0.259237
C144  C     C_R   0.826802 0.465880 0.500555 0.259236
C145  C     C_R   0.965880 0.326802 0.999445 0.259236
C146  C     C_R   0.673197 0.965880 0.999445 0.259236
C147  C     C_R   0.034120 0.673197 0.999445 0.259237
C148  C     C_R   0.326802 0.034120 0.999445 0.259237
C149  C     C_R   0.965880 0.673197 0.000555 0.259236
C150  C     C_R   0.673197 0.034120 0.000555 0.259237
C151  C     C_R   0.034120 0.326802 0.000555 0.259237
C152  C     C_R   0.326802 0.965880 0.000555 0.259236
C153  C     C_R   0.466021 0.866057 0.499460 -0.199304
C154  C     C_R   0.133943 0.466021 0.499460 -0.199304
C155  C     C_R   0.533979 0.133943 0.499460 -0.199304
C156  C     C_R   0.866057 0.533979 0.499460 -0.199304
C157  C     C_R   0.466021 0.133943 0.500540 -0.199304
C158  C     C_R   0.133943 0.533979 0.500540 -0.199304
C159  C     C_R   0.533979 0.866057 0.500540 -0.199304
C160  C     C_R   0.866057 0.466021 0.500540 -0.199304
C161  C     C_R   0.966021 0.366057 0.999460 -0.199304
C162  C     C_R   0.633943 0.966021 0.999460 -0.199304
C163  C     C_R   0.033979 0.633943 0.999460 -0.199304
C164  C     C_R   0.366057 0.033979 0.999460 -0.199304
C165  C     C_R   0.966021 0.633943 0.000540 -0.199304
C166  C     C_R   0.633943 0.033979 0.000540 -0.199304
C167  C     C_R   0.033979 0.366057 0.000540 -0.199304
C168  C     C_R   0.366057 0.966021 0.000540 -0.199304
C169  C     C_R   0.500000 0.886066 0.500000 -0.144043
C170  C     C_R   0.113934 0.500000 0.500000 -0.144043
C171  C     C_R   0.500000 0.113934 0.500000 -0.144043
C172  C     C_R   0.886066 0.500000 0.500000 -0.144043
C173  C     C_R   1.000000 0.386066 1.000000 -0.144043
C174  C     C_R   0.613934 0.000000 0.000000 -0.144043
C175  C     C_R   0.000000 0.613934 0.000000 -0.144043
C176  C     C_R   0.386066 1.000000 1.000000 -0.144043
C177  C     C_R   0.500000 0.806971 0.500000 -0.017050
C178  C     C_R   0.193029 0.500000 0.500000 -0.017050
C179  C     C_R   0.500000 0.193029 0.500000 -0.017050
C180  C     C_R   0.806971 0.500000 0.500000 -0.017050
C181  C     C_R   1.000000 0.306970 1.000000 -0.017050
C182  C     C_R   0.693029 0.000000 0.000000 -0.017050
C183  C     C_R   1.000000 0.693029 0.000000 -0.017050
C184  C     C_R   0.306970 1.000000 1.000000 -0.017050
C185  C     C_R   0.476226 0.974781 0.737273 0.040764
C186  C     C_R   0.025219 0.476226 0.737273 0.040764
C187  C     C_R   0.523774 0.025219 0.737273 0.040764
C188  C     C_R   0.974781 0.523774 0.737273 0.040764
C189  C     C_R   0.476226 0.025219 0.262727 0.040764
C190  C     C_R   0.025219 0.523774 0.262727 0.040764
C191  C     C_R   0.523774 0.974781 0.262727 0.040764
C192  C     C_R   0.974781 0.476226 0.262727 0.040764
C193  C     C_R   0.976226 0.474781 0.237273 0.040764
C194  C     C_R   0.525219 0.976226 0.237273 0.040764
C195  C     C_R   0.023774 0.525219 0.237273 0.040764
C196  C     C_R   0.474781 0.023774 0.237273 0.040764
C197  C     C_R   0.976226 0.525219 0.762727 0.040764
C198  C     C_R   0.525219 0.023774 0.762727 0.040764
C199  C     C_R   0.023774 0.474781 0.762727 0.040764
C200  C     C_R   0.474781 0.976226 0.762727 0.040764
C201  C     C_R   0.500000 0.000000 0.724676 0.073975
C202  C     C_R   1.000000 0.500000 0.724676 0.073975
C203  C     C_R   0.500000 0.000000 0.275324 0.073975
C204  C     C_R   0.000000 0.500000 0.275324 0.073975
C205  C     C_R   0.000000 0.500000 0.224676 0.073974
C206  C     C_R   0.500000 0.000000 0.224676 0.073975
C207  C     C_R   0.000000 0.500000 0.775324 0.073975
C208  C     C_R   0.500000 0.000000 0.775324 0.073975
C209  C     C_R   0.454881 0.948679 0.723854 -0.194438
C210  C     C_R   0.051321 0.454881 0.723854 -0.194438
C211  C     C_R   0.545119 0.051321 0.723854 -0.194438
C212  C     C_R   0.948679 0.545119 0.723854 -0.194438
C213  C     C_R   0.454881 0.051321 0.276146 -0.194438
C214  C     C_R   0.051321 0.545119 0.276146 -0.194438
C215  C     C_R   0.545119 0.948679 0.276146 -0.194438
C216  C     C_R   0.948679 0.454881 0.276146 -0.194438
C217  C     C_R   0.954881 0.448679 0.223854 -0.194439
C218  C     C_R   0.551321 0.954881 0.223854 -0.194439
C219  C     C_R   0.045119 0.551321 0.223854 -0.194438
C220  C     C_R   0.448679 0.045119 0.223854 -0.194439
C221  C     C_R   0.954881 0.551321 0.776146 -0.194438
C222  C     C_R   0.551321 0.045119 0.776146 -0.194438
C223  C     C_R   0.045119 0.448679 0.776146 -0.194438
C224  C     C_R   0.448679 0.954881 0.776146 -0.194438
C225  C     C_R   0.455767 0.948387 0.698962 -0.134181
C226  C     C_R   0.051613 0.455767 0.698962 -0.134181
C227  C     C_R   0.544233 0.051613 0.698962 -0.134181
C228  C     C_R   0.948387 0.544233 0.698962 -0.134181
C229  C     C_R   0.455767 0.051613 0.301038 -0.134180
C230  C     C_R   0.051613 0.544233 0.301038 -0.134181
C231  C     C_R   0.544233 0.948387 0.301038 -0.134181
C232  C     C_R   0.948387 0.455767 0.301038 -0.134180
C233  C     C_R   0.955767 0.448387 0.198962 -0.134181
C234  C     C_R   0.551613 0.955767 0.198962 -0.134181
C235  C     C_R   0.044233 0.551613 0.198962 -0.134181
C236  C     C_R   0.448387 0.044233 0.198962 -0.134181
C237  C     C_R   0.955767 0.551613 0.801038 -0.134181
C238  C     C_R   0.551613 0.044233 0.801038 -0.134181
C239  C     C_R   0.044233 0.448387 0.801038 -0.134181
C240  C     C_R   0.448387 0.955767 0.801038 -0.134180
C241  C     C_R   0.477855 0.974110 0.686401 -0.033768
C242  C     C_R   0.025890 0.477855 0.686401 -0.033768
C243  C     C_R   0.522145 0.025890 0.686401 -0.033768
C244  C     C_R   0.974110 0.522145 0.686401 -0.033768
C245  C     C_R   0.477855 0.025890 0.313599 -0.033768
C246  C     C_R   0.025890 0.522145 0.313599 -0.033768
C247  C     C_R   0.522145 0.974110 0.313599 -0.033767
C248  C     C_R   0.974110 0.477855 0.313599 -0.033768
C249  C     C_R   0.977855 0.474110 0.186401 -0.033768
C250  C     C_R   0.525890 0.977855 0.186401 -0.033768
C251  C     C_R   0.022145 0.525890 0.186401 -0.033768
C252  C     C_R   0.474110 0.022145 0.186401 -0.033768
C253  C     C_R   0.977855 0.525890 0.813599 -0.033768
C254  C     C_R   0.525890 0.022145 0.813599 -0.033768
C255  C     C_R   0.022145 0.474110 0.813599 -0.033768
C256  C     C_R   0.474110 0.977855 0.813599 -0.033768
C257  C     C_R   0.500000 0.000000 0.699177 -0.044280
C258  C     C_R   0.000000 0.500000 0.699177 -0.044280
C259  C     C_R   0.500000 0.000000 0.300822 -0.044281
C260  C     C_R   0.000000 0.500000 0.300822 -0.044280
C261  C     C_R   0.000000 0.500000 0.199177 -0.044280
C262  C     C_R   0.500000 0.000000 0.199177 -0.044280
C263  C     C_R   0.000000 0.500000 0.800822 -0.044280
C264  C     C_R   0.500000 0.000000 0.800822 -0.044280
C265  C     C_R   0.478573 0.974302 0.661228 0.564276
C266  C     C_R   0.025698 0.478573 0.661228 0.564276
C267  C     C_R   0.521427 0.025698 0.661228 0.564276
C268  C     C_R   0.974302 0.521427 0.661228 0.564276
C269  C     C_R   0.478573 0.025698 0.338772 0.564276
C270  C     C_R   0.025698 0.521427 0.338772 0.564276
C271  C     C_R   0.521427 0.974302 0.338772 0.564275
C272  C     C_R   0.974302 0.478573 0.338772 0.564275
C273  C     C_R   0.978573 0.474302 0.161228 0.564276
C274  C     C_R   0.525698 0.978573 0.161228 0.564276
C275  C     C_R   0.021427 0.525698 0.161228 0.564276
C276  C     C_R   0.474302 0.021427 0.161228 0.564276
C277  C     C_R   0.978573 0.525698 0.838771 0.564276
C278  C     C_R   0.525698 0.021427 0.838771 0.564276
C279  C     C_R   0.021427 0.474302 0.838771 0.564276
C280  C     C_R   0.474302 0.978573 0.838771 0.564275
Cu1   Cu    Cu3+1 0.537270 0.000000 0.500000 0.989748
Cu2   Cu    Cu3+1 1.000000 0.537270 0.500000 0.989748
Cu3   Cu    Cu3+1 0.462730 0.000000 0.500000 0.989748
Cu4   Cu    Cu3+1 0.000000 0.462730 0.500000 0.989748
Cu5   Cu    Cu3+1 0.037270 0.500000 0.000000 0.989748
Cu6   Cu    Cu3+1 0.500000 0.037270 0.000000 0.989748
Cu7   Cu    Cu3+1 0.962730 0.500000 0.000000 0.989748
Cu8   Cu    Cu3+1 0.500000 0.962730 0.000000 0.989748
Cu9   Cu    Cu3+1 0.500000 0.500000 0.523900 1.137987
Cu10  Cu    Cu3+1 0.500000 0.500000 0.476100 1.137988
Cu11  Cu    Cu3+1 0.000000 0.000000 0.023900 1.137987
Cu12  Cu    Cu3+1 0.000000 0.000000 0.976100 1.137988
H1    H     H_    0.437716 0.927367 0.732044 0.146092
H2    H     H_    0.072633 0.437716 0.732044 0.146092
H3    H     H_    0.562284 0.072633 0.732044 0.146092
H4    H     H_    0.927367 0.562284 0.732044 0.146092
H5    H     H_    0.437716 0.072633 0.267956 0.146092
H6    H     H_    0.072633 0.562284 0.267956 0.146092
H7    H     H_    0.562284 0.927367 0.267956 0.146092
H8    H     H_    0.927367 0.437716 0.267956 0.146092
H9    H     H_    0.937716 0.427367 0.232044 0.146092
H10   H     H_    0.572633 0.937716 0.232044 0.146092
H11   H     H_    0.062284 0.572633 0.232044 0.146092
H12   H     H_    0.427367 0.062284 0.232044 0.146092
H13   H     H_    0.937716 0.572633 0.767956 0.146092
H14   H     H_    0.572633 0.062284 0.767956 0.146092
H15   H     H_    0.062284 0.427367 0.767956 0.146092
H16   H     H_    0.427367 0.937716 0.767956 0.146092
H17   H     H_    0.438881 0.927804 0.689579 0.192002
H18   H     H_    0.072196 0.438881 0.689579 0.192002
H19   H     H_    0.561119 0.072196 0.689579 0.192002
H20   H     H_    0.927804 0.561119 0.689579 0.192002
H21   H     H_    0.438881 0.072196 0.310421 0.192002
H22   H     H_    0.072196 0.561119 0.310421 0.192002
H23   H     H_    0.561119 0.927804 0.310421 0.192002
H24   H     H_    0.927804 0.438881 0.310421 0.192002
H25   H     H_    0.938881 0.427804 0.189579 0.192002
H26   H     H_    0.572196 0.938881 0.189579 0.192002
H27   H     H_    0.061119 0.572196 0.189579 0.192002
H28   H     H_    0.427804 0.061119 0.189579 0.192002
H29   H     H_    0.938881 0.572196 0.810421 0.192002
H30   H     H_    0.572196 0.061119 0.810421 0.192002
H31   H     H_    0.061119 0.427804 0.810421 0.192002
H32   H     H_    0.427804 0.938881 0.810421 0.192002
H33   H     H_    0.558155 0.983585 0.575911 0.172862
H34   H     H_    0.016415 0.558155 0.575911 0.172861
H35   H     H_    0.441845 0.016415 0.575911 0.172862
H36   H     H_    0.983585 0.441845 0.575911 0.172862
H37   H     H_    0.558155 0.016415 0.424089 0.172861
H38   H     H_    0.016415 0.441845 0.424089 0.172861
H39   H     H_    0.441845 0.983585 0.424089 0.172861
H40   H     H_    0.983585 0.558155 0.424089 0.172861
H41   H     H_    0.058155 0.483585 0.075911 0.172861
H42   H     H_    0.516415 0.058155 0.075911 0.172861
H43   H     H_    0.941845 0.516415 0.075911 0.172862
H44   H     H_    0.483585 0.941845 0.075911 0.172862
H45   H     H_    0.058155 0.516415 0.924089 0.172862
H46   H     H_    0.516415 0.941845 0.924089 0.172861
H47   H     H_    0.941845 0.483585 0.924089 0.172862
H48   H     H_    0.483585 0.058155 0.924089 0.172862
H49   H     H_    0.451878 0.687956 0.476801 0.192319
H50   H     H_    0.312044 0.451878 0.476801 0.192319
H51   H     H_    0.548122 0.312044 0.476801 0.192319
H52   H     H_    0.687956 0.548122 0.476800 0.192319
H53   H     H_    0.451878 0.312044 0.523199 0.192319
H54   H     H_    0.312044 0.548122 0.523199 0.192319
H55   H     H_    0.548122 0.687956 0.523199 0.192319
H56   H     H_    0.687956 0.451878 0.523199 0.192319
H57   H     H_    0.951878 0.187956 0.976801 0.192319
H58   H     H_    0.812044 0.951878 0.976801 0.192319
H59   H     H_    0.048122 0.812044 0.976801 0.192319
H60   H     H_    0.187956 0.048122 0.976800 0.192319
H61   H     H_    0.951878 0.812044 0.023199 0.192319
H62   H     H_    0.812044 0.048122 0.023199 0.192319
H63   H     H_    0.048122 0.187956 0.023199 0.192319
H64   H     H_    0.187956 0.951878 0.023199 0.192319
H65   H     H_    0.439468 0.880843 0.499024 0.194941
H66   H     H_    0.119157 0.439468 0.499024 0.194941
H67   H     H_    0.560532 0.119157 0.499024 0.194941
H68   H     H_    0.880843 0.560532 0.499024 0.194941
H69   H     H_    0.439468 0.119157 0.500976 0.194941
H70   H     H_    0.119157 0.560532 0.500976 0.194941
H71   H     H_    0.560532 0.880843 0.500976 0.194941
H72   H     H_    0.880843 0.439468 0.500976 0.194941
H73   H     H_    0.939468 0.380843 0.999024 0.194941
H74   H     H_    0.619156 0.939468 0.999024 0.194941
H75   H     H_    0.060532 0.619156 0.999024 0.194941
H76   H     H_    0.380843 0.060532 0.999024 0.194941
H77   H     H_    0.939468 0.619156 0.000976 0.194941
H78   H     H_    0.619156 0.060532 0.000976 0.194941
H79   H     H_    0.060532 0.380843 0.000976 0.194941
H80   H     H_    0.380843 0.939468 0.000976 0.194941
N1    N     N_R   0.500000 0.000000 0.649142 -0.445899
N2    N     N_R   0.000000 0.500000 0.649142 -0.445899
N3    N     N_R   0.500000 0.000000 0.350858 -0.445899
N4    N     N_R   0.000000 0.500000 0.350858 -0.445899
N5    N     N_R   0.000000 0.500000 0.149142 -0.445899
N6    N     N_R   0.500000 0.000000 0.149142 -0.445899
N7    N     N_R   0.000000 0.500000 0.850858 -0.445899
N8    N     N_R   0.500000 0.000000 0.850858 -0.445899
O1    O     O_R   0.531470 0.945630 0.500000 -0.583034
O2    O     O_R   0.054370 0.531470 0.500000 -0.583034
O3    O     O_R   0.468530 0.054370 0.500000 -0.583034
O4    O     O_R   0.945630 0.468530 0.500000 -0.583033
O5    O     O_R   0.531470 0.054370 0.500000 -0.583034
O6    O     O_R   0.054370 0.468530 0.500000 -0.583034
O7    O     O_R   0.468530 0.945630 0.500000 -0.583033
O8    O     O_R   0.945630 0.531470 0.500000 -0.583034
O9    O     O_R   0.031470 0.445630 0.000000 -0.583034
O10   O     O_R   0.554370 0.031470 0.000000 -0.583034
O11   O     O_R   0.968530 0.554370 0.000000 -0.583034
O12   O     O_R   0.445630 0.968530 0.000000 -0.583033
O13   O     O_R   0.031470 0.554370 0.000000 -0.583034
O14   O     O_R   0.554370 0.968530 0.000000 -0.583034
O15   O     O_R   0.968530 0.445630 0.000000 -0.583033
O16   O     O_R   0.445630 0.031470 0.000000 -0.583034
O17   O     O_R   0.531470 0.999990 0.534870 -0.583766
O18   O     O_R   0.000010 0.531470 0.534870 -0.583766
O19   O     O_R   0.468530 0.000010 0.534870 -0.583765
O20   O     O_R   0.999990 0.468530 0.534870 -0.583765
O21   O     O_R   0.531470 0.000010 0.465130 -0.583766
O22   O     O_R   0.000010 0.468530 0.465130 -0.583766
O23   O     O_R   0.468530 0.999990 0.465130 -0.583766
O24   O     O_R   0.999990 0.531470 0.465130 -0.583766
O25   O     O_R   0.031470 0.499990 0.034870 -0.583766
O26   O     O_R   0.500010 0.031470 0.034870 -0.583766
O27   O     O_R   0.968530 0.500010 0.034870 -0.583765
O28   O     O_R   0.499990 0.968530 0.034870 -0.583765
O29   O     O_R   0.031470 0.500010 0.965130 -0.583766
O30   O     O_R   0.500010 0.968530 0.965130 -0.583766
O31   O     O_R   0.968530 0.499990 0.965130 -0.583766
O32   O     O_R   0.499990 0.031470 0.965130 -0.583766
O33   O     O_2   0.458271 0.948792 0.648915 -0.527316
O34   O     O_2   0.051208 0.458271 0.648915 -0.527316
O35   O     O_2   0.541729 0.051208 0.648915 -0.527316
O36   O     O_2   0.948792 0.541729 0.648915 -0.527316
O37   O     O_2   0.458271 0.051208 0.351085 -0.527316
O38   O     O_2   0.051208 0.541729 0.351085 -0.527316
O39   O     O_2   0.541729 0.948792 0.351085 -0.527316
O40   O     O_2   0.948792 0.458271 0.351085 -0.527316
O41   O     O_2   0.958271 0.448792 0.148915 -0.527316
O42   O     O_2   0.551208 0.958271 0.148915 -0.527316
O43   O     O_2   0.041729 0.551208 0.148915 -0.527316
O44   O     O_2   0.448792 0.041729 0.148915 -0.527316
O45   O     O_2   0.958271 0.551208 0.851085 -0.527316
O46   O     O_2   0.551208 0.041729 0.851085 -0.527316
O47   O     O_2   0.041729 0.448792 0.851085 -0.527316
O48   O     O_2   0.448792 0.958271 0.851085 -0.527316
O49   O     O_R   0.445710 0.499970 0.520170 -0.548019
O50   O     O_R   0.500030 0.445710 0.520170 -0.548019
O51   O     O_R   0.554290 0.500030 0.520170 -0.548019
O52   O     O_R   0.499970 0.554290 0.520170 -0.548019
O53   O     O_R   0.445710 0.500030 0.479830 -0.548018
O54   O     O_R   0.500030 0.554290 0.479830 -0.548018
O55   O     O_R   0.554290 0.499970 0.479830 -0.548018
O56   O     O_R   0.499970 0.445710 0.479830 -0.548018
O57   O     O_R   0.945710 0.999970 0.020170 -0.548019
O58   O     O_R   0.000030 0.945710 0.020170 -0.548019
O59   O     O_R   0.054290 0.000030 0.020170 -0.548019
O60   O     O_R   0.999970 0.054290 0.020170 -0.548019
O61   O     O_R   0.945710 0.000030 0.979830 -0.548018
O62   O     O_R   0.000030 0.054290 0.979830 -0.548018
O63   O     O_R   0.054290 0.999970 0.979830 -0.548018
O64   O     O_R   0.999970 0.945710 0.979830 -0.548018
N9    N     N_2   0.566168 0.979930 0.623023 -0.403778
H81   H     H_    0.590510 0.986859 0.614034 0.266222
C281  C     C_3   0.566678 0.941531 0.631432 -0.634756
H82   H     H_    0.592888 0.936414 0.641687 0.234367
H83   H     H_    0.565707 0.921830 0.616003 0.228875
H84   H     H_    0.542523 0.935978 0.643464 0.243666
N10   N     N_2   0.020070 0.566168 0.623023 -0.403778
H85   H     H_    0.013141 0.590510 0.614034 0.266222
C282  C     C_3   0.058469 0.566678 0.631432 -0.634756
H86   H     H_    0.063586 0.592888 0.641687 0.234367
H87   H     H_    0.078169 0.565707 0.616003 0.228875
H88   H     H_    0.064022 0.542523 0.643464 0.243666
N11   N     N_2   0.433832 0.020070 0.623023 -0.403778
H89   H     H_    0.409490 0.013141 0.614034 0.266222
C283  C     C_3   0.433322 0.058469 0.631432 -0.634756
H90   H     H_    0.407112 0.063586 0.641687 0.234366
H91   H     H_    0.434293 0.078169 0.616003 0.228875
H92   H     H_    0.457477 0.064022 0.643464 0.243666
N12   N     N_2   0.979930 0.433832 0.623023 -0.403778
H93   H     H_    0.986859 0.409490 0.614034 0.266222
C284  C     C_3   0.941531 0.433322 0.631432 -0.634756
H94   H     H_    0.936414 0.407112 0.641687 0.234367
H95   H     H_    0.921830 0.434293 0.616003 0.228875
H96   H     H_    0.935978 0.457477 0.643464 0.243666
N13   N     N_2   0.566168 0.020070 0.376977 -0.403778
H97   H     H_    0.590510 0.013141 0.385966 0.266222
C285  C     C_3   0.566678 0.058469 0.368568 -0.634754
H98   H     H_    0.592888 0.063586 0.358312 0.234366
H99   H     H_    0.565707 0.078169 0.383997 0.228874
H100  H     H_    0.542523 0.064022 0.356536 0.243666
N14   N     N_2   0.020070 0.433832 0.376977 -0.403778
H101  H     H_    0.013141 0.409490 0.385966 0.266222
C286  C     C_3   0.058469 0.433322 0.368568 -0.634755
H102  H     H_    0.063586 0.407112 0.358312 0.234366
H103  H     H_    0.078169 0.434293 0.383997 0.228874
H104  H     H_    0.064022 0.457477 0.356536 0.243666
N15   N     N_2   0.433832 0.979930 0.376977 -0.403778
H105  H     H_    0.409490 0.986859 0.385966 0.266222
C287  C     C_3   0.433322 0.941531 0.368568 -0.634755
H106  H     H_    0.407112 0.936414 0.358312 0.234366
H107  H     H_    0.434293 0.921830 0.383997 0.228874
H108  H     H_    0.457477 0.935978 0.356536 0.243666
N16   N     N_2   0.979930 0.566168 0.376977 -0.403777
H109  H     H_    0.986859 0.590510 0.385966 0.266222
C288  C     C_3   0.941531 0.566678 0.368568 -0.634755
H110  H     H_    0.936414 0.592888 0.358312 0.234366
H111  H     H_    0.921831 0.565707 0.383997 0.228874
H112  H     H_    0.935978 0.542523 0.356536 0.243666
N17   N     N_2   0.066168 0.479930 0.123023 -0.403778
H113  H     H_    0.090510 0.486859 0.114034 0.266222
C289  C     C_3   0.066678 0.441531 0.131432 -0.634756
H114  H     H_    0.092888 0.436414 0.141687 0.234367
H115  H     H_    0.065707 0.421830 0.116003 0.228875
H116  H     H_    0.042523 0.435978 0.143464 0.243666
N18   N     N_2   0.520070 0.066168 0.123023 -0.403777
H117  H     H_    0.513140 0.090510 0.114034 0.266221
C290  C     C_3   0.558469 0.066678 0.131432 -0.634756
H118  H     H_    0.563586 0.092888 0.141687 0.234366
H119  H     H_    0.578169 0.065707 0.116003 0.228874
H120  H     H_    0.564022 0.042523 0.143464 0.243666
N19   N     N_2   0.933832 0.520070 0.123023 -0.403778
H121  H     H_    0.909490 0.513141 0.114034 0.266222
C291  C     C_3   0.933322 0.558469 0.131432 -0.634756
H122  H     H_    0.907112 0.563586 0.141687 0.234367
H123  H     H_    0.934293 0.578169 0.116003 0.228874
H124  H     H_    0.957477 0.564022 0.143464 0.243666
N20   N     N_2   0.479930 0.933832 0.123023 -0.403778
H125  H     H_    0.486859 0.909490 0.114034 0.266222
C292  C     C_3   0.441531 0.933322 0.131432 -0.634756
H126  H     H_    0.436414 0.907112 0.141687 0.234366
H127  H     H_    0.421831 0.934293 0.116003 0.228874
H128  H     H_    0.435978 0.957477 0.143464 0.243666
N21   N     N_2   0.066168 0.520070 0.876977 -0.403778
H129  H     H_    0.090510 0.513141 0.885966 0.266222
C293  C     C_3   0.066678 0.558469 0.868568 -0.634756
H130  H     H_    0.092888 0.563586 0.858312 0.234367
H131  H     H_    0.065707 0.578169 0.883997 0.228875
H132  H     H_    0.042523 0.564022 0.856536 0.243666
N22   N     N_2   0.520070 0.933832 0.876977 -0.403778
H133  H     H_    0.513141 0.909490 0.885966 0.266222
C294  C     C_3   0.558469 0.933322 0.868568 -0.634755
H134  H     H_    0.563586 0.907112 0.858312 0.234366
H135  H     H_    0.578169 0.934293 0.883997 0.228874
H136  H     H_    0.564022 0.957477 0.856536 0.243666
N23   N     N_2   0.933832 0.479930 0.876977 -0.403778
H137  H     H_    0.909490 0.486859 0.885966 0.266222
C295  C     C_3   0.933322 0.441531 0.868568 -0.634756
H138  H     H_    0.907112 0.436414 0.858312 0.234366
H139  H     H_    0.934293 0.421830 0.883997 0.228874
H140  H     H_    0.957477 0.435978 0.856536 0.243666
N24   N     N_2   0.479930 0.066168 0.876977 -0.403777
H141  H     H_    0.486859 0.090510 0.885966 0.266222
C296  C     C_3   0.441531 0.066678 0.868568 -0.634755
H142  H     H_    0.436414 0.092888 0.858312 0.234366
H143  H     H_    0.421831 0.065707 0.883997 0.228874
H144  H     H_    0.435978 0.042523 0.856536 0.243666
Br1   Br    Br    0.433646 0.608689 0.469160 -0.409453
Br2   Br    Br    0.391311 0.433646 0.469160 -0.409453
Br3   Br    Br    0.566354 0.391311 0.469160 -0.409453
Br4   Br    Br    0.608689 0.566354 0.469160 -0.409454
Br5   Br    Br    0.433646 0.391311 0.530840 -0.409453
Br6   Br    Br    0.391311 0.566354 0.530840 -0.409454
Br7   Br    Br    0.566354 0.608689 0.530840 -0.409454
Br8   Br    Br    0.608689 0.433646 0.530840 -0.409454
Br9   Br    Br    0.933646 0.108688 0.969160 -0.409453
Br10  Br    Br    0.891311 0.933646 0.969160 -0.409453
Br11  Br    Br    0.066354 0.891311 0.969160 -0.409453
Br12  Br    Br    0.108688 0.066354 0.969160 -0.409454
Br13  Br    Br    0.933646 0.891311 0.030840 -0.409453
Br14  Br    Br    0.891311 0.066354 0.030840 -0.409454
Br15  Br    Br    0.066354 0.108689 0.030840 -0.409454
Br16  Br    Br    0.108689 0.933646 0.030840 -0.409454
Br17  Br    Br    0.418406 0.801336 0.498643 -0.449803
Br18  Br    Br    0.198664 0.418406 0.498643 -0.449803
Br19  Br    Br    0.581594 0.198664 0.498643 -0.449803
Br20  Br    Br    0.801336 0.581594 0.498643 -0.449803
Br21  Br    Br    0.418406 0.198664 0.501357 -0.449803
Br22  Br    Br    0.198664 0.581594 0.501357 -0.449803
Br23  Br    Br    0.581594 0.801336 0.501357 -0.449803
Br24  Br    Br    0.801336 0.418406 0.501357 -0.449803
Br25  Br    Br    0.918406 0.301336 0.998643 -0.449802
Br26  Br    Br    0.698664 0.918406 0.998643 -0.449803
Br27  Br    Br    0.081594 0.698664 0.998643 -0.449803
Br28  Br    Br    0.301336 0.081594 0.998643 -0.449803
Br29  Br    Br    0.918406 0.698664 0.001357 -0.449803
Br30  Br    Br    0.698664 0.081594 0.001357 -0.449803
Br31  Br    Br    0.081594 0.301336 0.001357 -0.449803
Br32  Br    Br    0.301336 0.918406 0.001357 -0.449802

loop_
_geom_bond_atom_site_label_1
_geom_bond_atom_site_label_2
_ccdc_geom_bond_type
C138  Br18  S    
C293  H132  S    
C283  H90   S    
C6    O14   A    
C289  H115  S    
C33   C45   A    
N11   H89   S    
Cu10  O56   S    
C289  H114  S    
C117  C133  T    
C234  C250  A    
N13   H97   S    
C189  C203  A    
C296  H144  S    
C168  H80   S    
C238  C254  A    
C21   N21   S    
C243  C267  A    
C63   O63   A    
C26   H34   S    
C291  H123  S    
C81   Br1   S    
C22   C38   A    
C284  H96   S    
C83   Br3   S    
C186  C202  A    
Cu12  O61   S    
C160  H72   S    
C35   H43   S    
C273  O41   S    
Cu9   O52   S    
Cu1   O1    S    
C72   C88   A    
C13   C51   A    
Cu3   O3    S    
C14   C52   A    
C295  H138  S    
N18   C290  S    
C238  H30   S    
C149  Br29  S    
C15   C51   A    
C144  C160  A    
C159  C169  A    
C218  H10   S    
C61   O57   A    
C230  C246  A    
C152  Br32  S    
C138  C154  A    
C59   O55   A    
C278  N8    A    
C200  C208  A    
C53   N5    S    
C57   O53   A    
C76   C112  A    
C82   C98   A    
C110  C118  S    
C191  C203  A    
C142  C158  A    
C82   Br2   S    
C269  N3    A    
C203  C259  A    
C276  O44   S    
Cu1   O17   S    
C166  C174  A    
Cu6   O16   S    
C79   C109  A    
C233  C249  A    
N12   H93   S    
C64   O60   A    
C233  H25   S    
C247  C271  A    
C244  C258  A    
C20   C54   A    
C217  C233  A    
C137  Br17  S    
C112  C120  S    
C22   C56   A    
C6    C174  S    
Cu11  O60   S    
C198  C208  A    
C221  C237  A    
C282  H88   S    
C281  H83   S    
C74   C110  A    
C11   C49   A    
C145  Br25  S    
N14   C286  S    
C74   H58   S    
C51   N3    S    
C228  C244  A    
C11   C27   A    
C215  H7    S    
Cu7   O31   S    
C80   C112  A    
C192  C204  A    
C149  C165  A    
N16   C288  S    
C224  H16   S    
C269  O37   S    
C124  O24   A    
C157  H69   S    
C140  C156  A    
C56   N8    S    
C273  N5    A    
C187  C211  A    
C59   O51   A    
N17   C289  S    
C239  C255  A    
C72   H56   S    
C3    O3    A    
C186  C199  A    
Cu10  O54   S    
Cu7   O15   S    
C35   C45   A    
C213  C229  A    
C39   C47   A    
C11   N11   S    
C237  C253  A    
C40   C48   A    
C96   C104  A    
C32   H40   S    
C89   C101  A    
C227  H19   S    
C22   N22   S    
C231  C247  A    
C91   C103  A    
C63   C104  S    
C246  C270  A    
C78   H62   S    
C52   N4    S    
C23   C55   A    
C24   C56   A    
C139  Br19  S    
Cu12  O63   S    
C74   C90   A    
C191  C194  A    
C286  H103  S    
C19   C35   A    
C157  C171  A    
Cu6   Cu8   S    
C188  C212  A    
C189  C196  A    
C190  C204  A    
C70   H54   S    
N21   C293  S    
C145  C161  A    
C78   C94   A    
C151  C167  A    
C188  C202  A    
C140  C180  A    
C167  H79   S    
C250  C274  A    
C196  C206  A    
N9    H81   S    
C64   O62   A    
C139  C179  A    
C92   C104  A    
C121  O17   A    
C287  H108  S    
C94   C102  A    
Cu5   Cu7   S    
C223  C239  A    
C292  H127  S    
C159  H71   S    
C38   H46   S    
Cu4   O4    S    
Cu5   O9    S    
C67   C83   A    
C143  Br23  S    
C62   O58   A    
Cu3   O7    S    
C31   H39   S    
C135  C183  S    
C163  C175  A    
C93   C103  A    
C195  C219  A    
C69   C107  A    
C27   H35   S    
C94   Br14  S    
Cu11  O58   S    
C193  C217  A    
C283  H91   S    
C154  C170  A    
C31   C43   A    
C266  N2    A    
C2    O2    A    
C271  O39   S    
C295  H139  S    
C197  C221  A    
C285  H99   S    
C210  H2    S    
C68   H52   S    
C69   H53   S    
C14   N14   S    
C226  C242  A    
C150  C166  A    
C145  C181  A    
C280  N8    A    
C147  C183  A    
C77   C111  A    
C90   C102  A    
C95   Br15  S    
C72   C108  A    
C164  H76   S    
C36   C46   A    
C34   C46   A    
C166  H78   S    
C139  C155  A    
C37   C47   A    
Cu9   O49   S    
C67   H51   S    
C118  C134  T    
C75   C91   A    
C241  C265  A    
C229  C245  A    
C253  C263  A    
Cu6   O32   S    
C254  C264  A    
C214  H6    S    
C290  H118  S    
C34   H42   S    
C59   C100  S    
C210  C226  A    
C134  C182  S    
C86   C98   A    
C65   C105  A    
N15   H105  S    
C55   N7    S    
C18   C34   A    
C232  H24   S    
N19   C291  S    
C165  H77   S    
C187  C198  A    
C148  C164  A    
C219  C235  A    
C9    C49   A    
C78   C110  A    
C235  H27   S    
C4    O4    A    
C236  H28   S    
C1    O7    A    
C156  C172  A    
C144  Br24  S    
C232  C248  A    
C17   N17   S    
C18   N18   S    
C150  Br30  S    
C66   H50   S    
C85   C99   A    
C202  C258  A    
C224  C240  A    
C121  O19   A    
C287  H106  S    
C116  C132  T    
C122  O20   A    
N23   H137  S    
C75   H59   S    
C17   C33   A    
C3    O5    A    
C237  H29   S    
C288  H111  S    
C278  O46   S    
C253  C277  A    
C190  C195  A    
C251  C261  A    
Cu8   O30   S    
C133  C181  S    
C132  C180  S    
C29   H37   S    
C234  H26   S    
C228  H20   S    
C153  C169  A    
N20   H125  S    
C267  N1    A    
C43   C123  S    
Cu2   O8    S    
C26   C42   A    
C149  C183  A    
C293  H131  S    
C4    C172  S    
C9    C25   A    
C5    C173  S    
C89   Br9   S    
C12   C50   A    
N22   H133  S    
C8    C176  S    
C15   C31   A    
Cu1   Cu3   S    
Cu2   Cu4   S    
C128  O30   A    
C290  H119  S    
C84   Br4   S    
C147  C163  A    
C80   H64   S    
C93   Br13  S    
C142  C178  A    
C205  C261  A    
C9    N9    S    
C284  H95   S    
C289  H116  S    
Cu12  O62   S    
C242  C266  A    
Cu9   O51   S    
C201  C257  A    
Cu5   O25   S    
N10   H85   S    
C279  O47   S    
Cu3   O23   S    
C36   H44   S    
C290  H120  S    
N16   H109  S    
Cu1   O21   S    
Cu2   O18   S    
C29   C43   A    
C95   C101  A    
C138  C178  A    
C226  H18   S    
C7    O11   A    
C114  C130  T    
C155  H67   S    
C217  H9    S    
C274  O42   S    
C267  O35   S    
C150  C182  A    
C146  C162  A    
C199  C223  A    
C125  O25   A    
C12   C28   A    
C223  H15   S    
C123  O23   A    
N21   H129  S    
C60   O52   A    
C141  Br21  S    
C25   H33   S    
C122  O18   A    
Cu11  O59   S    
C265  N1    A    
C21   C37   A    
C168  C176  A    
Cu2   O2    S    
C185  C201  A    
C282  H87   S    
C240  H32   S    
C191  C215  A    
C130  C178  S    
C2    O6    A    
C248  C260  A    
C275  N5    A    
C204  C260  A    
Cu6   O10   S    
Cu3   O19   S    
C65   H49   S    
Cu4   O20   S    
C24   N24   S    
C85   Br5   S    
C92   Br12  S    
C276  N6    A    
C167  C173  A    
C19   C53   A    
Cu1   O5    S    
C6    O10   A    
C83   C99   A    
N17   H113  S    
C76   H60   S    
N11   C283  S    
C30   C44   A    
Cu10  O55   S    
C275  O43   S    
C229  H21   S    
N22   C294  S    
C152  C168  A    
C256  C280  A    
C151  C181  A    
N13   C285  S    
C146  C182  A    
C281  H82   S    
C68   C84   A    
C293  H130  S    
C60   C97   S    
C70   C106  A    
C128  O32   A    
C291  H124  S    
C279  N7    A    
C129  C177  S    
C44   C124  S    
C154  H66   S    
Cu12  O64   S    
C84   C100  A    
C109  C117  S    
C285  H98   S    
C71   H55   S    
C79   C95   A    
C286  H102  S    
C69   C85   A    
C48   C128  S    
Cu7   O27   S    
C65   C81   A    
C248  C272  A    
C73   H57   S    
C189  C213  A    
C136  C184  S    
C252  C276  A    
C90   Br10  S    
C47   C127  S    
C230  H22   S    
C241  C257  A    
C274  N6    A    
C71   C87   A    
C79   H63   S    
C287  H107  S    
C186  C210  A    
C57   O49   A    
C197  C207  A    
C16   C32   A    
C146  Br26  S    
C25   C41   A    
C10   C50   A    
C17   C53   A    
C21   C55   A    
C222  H14   S    
C13   N13   S    
C24   C40   A    
C221  H13   S    
C125  O27   A    
C141  C179  A    
Cu5   O29   S    
C126  O28   A    
C58   C99   S    
C16   C52   A    
C87   Br7   S    
C77   H61   S    
Cu11  O57   S    
C207  C263  A    
C187  C201  A    
C75   C111  A    
C208  C264  A    
C140  Br20  S    
C108  C116  S    
C123  O21   A    
C281  H84   S    
C73   C89   A    
C209  C225  A    
C296  H143  S    
N23   C295  S    
C158  C170  A    
C86   Br6   S    
C254  C278  A    
C37   H45   S    
C188  C197  A    
C277  O45   S    
C57   C98   S    
C77   C93   A    
C277  N7    A    
C271  N3    A    
C164  C176  A    
Cu4   O6    S    
C73   C109  A    
C54   N6    S    
C245  C259  A    
C119  C135  T    
C63   O59   A    
C212  C228  A    
C163  H75   S    
C231  H23   S    
C239  H31   S    
C7    O13   A    
C58   O56   A    
Cu10  O53   S    
C120  C136  T    
C213  H5    S    
N10   C282  S    
N20   C292  S    
C216  H8    S    
C235  C251  A    
C3    C171  S    
C61   O61   A    
C219  H11   S    
C291  H122  S    
C194  C218  A    
C115  C131  T    
C272  O40   S    
Cu8   O14   S    
C206  C262  A    
C153  H65   S    
N19   H121  S    
C113  C129  T    
C106  C114  S    
C215  C231  A    
N24   C296  S    
C111  C119  S    
C198  C222  A    
C251  C275  A    
C286  H104  S    
C272  N4    A    
C227  C243  A    
Cu6   O26   S    
C66   C82   A    
N18   H117  S    
C161  C173  A    
C20   N20   S    
C62   O64   A    
C292  H126  S    
C243  C257  A    
C225  C241  A    
C41   C121  S    
N9    C281  S    
C40   H48   S    
N15   C287  S    
C88   Br8   S    
C250  C262  A    
C45   C125  S    
Cu8   O28   S    
C105  C113  S    
N24   H141  S    
C71   C105  A    
C265  O33   S    
C152  C184  A    
C288  H110  S    
C242  C258  A    
C16   N16   S    
C10   C26   A    
Cu11  Cu12  S    
C143  C177  A    
C50   N2    S    
C212  H4    S    
C126  O26   A    
C127  O29   A    
C1    O1    A    
C66   C106  A    
C162  H74   S    
C91   Br11  S    
C196  C220  A    
C160  C172  A    
C64   C101  S    
C194  C206  A    
C283  H92   S    
C137  C153  A    
C200  C224  A    
C144  C180  A    
C295  H140  S    
C218  C234  A    
Cu7   O11   S    
C285  H100  S    
C147  Br27  S    
N14   H101  S    
Cu8   O12   S    
C131  C179  S    
C20   C36   A    
C1    C169  S    
C296  H142  S    
C14   C30   A    
C222  C238  A    
C158  H70   S    
C7    C175  S    
C244  C268  A    
C270  O38   S    
Cu2   O24   S    
C8    O12   A    
C236  C252  A    
C27   C41   A    
C195  C205  A    
C8    O16   A    
C148  C184  A    
C199  C207  A    
C284  H94   S    
C32   C44   A    
C4    O8    A    
C88   C100  A    
C268  O36   S    
C5    O9    A    
Cu9   O50   S    
C190  C214  A    
C107  C115  S    
C240  C256  A    
C142  Br22  S    
C76   C92   A    
C268  N2    A    
C2    C170  S    
C270  N4    A    
C10   N10   S    
C294  H135  S    
C30   H38   S    
C249  C273  A    
C294  H136  S    
C80   C96   A    
C13   C29   A    
C60   O54   A    
C70   C86   A    
C42   C122  S    
Cu9   Cu10  S    
C62   C103  S    
C96   Br16  S    
C141  C157  A    
C266  O34   S    
C15   N15   S    
C255  C279  A    
C38   C48   A    
C46   C126  S    
C49   N1    S    
C255  C263  A    
C33   H41   S    
C247  C259  A    
C23   N23   S    
C225  H17   S    
C162  C174  A    
C252  C262  A    
C165  C175  A    
Cu5   O13   S    
C156  H68   S    
Cu4   O22   S    
C245  C269  A    
C148  Br28  S    
C292  H128  S    
C192  C193  A    
C256  C264  A    
C61   C102  S    
C220  C236  A    
C151  Br31  S    
C67   C107  A    
C28   H36   S    
C81   C97   A    
C23   C39   A    
C28   C42   A    
C216  C232  A    
C5    O15   A    
C185  C209  A    
C143  C159  A    
C220  H12   S    
C185  C200  A    
C282  H86   S    
C280  O48   S    
C288  H112  S    
C161  H73   S    
C18   C54   A    
C39   H47   S    
C12   N12   S    
C155  C171  A    
C137  C177  A    
C193  C205  A    
C58   O50   A    
C127  O31   A    
N12   C284  S    
C211  H3    S    
C209  H1    S    
C19   N19   S    
C211  C227  A    
C68   C108  A    
C249  C261  A    
C294  H134  S    
C124  O22   A    
C192  C216  A    
C246  C260  A    
C87   C97   A    
C214  C230  A    
