data_mof_unit_67882.cif
_audit_creation_date              2013-03-05T15:42:04-0500
_audit_creation_method            fapswitch 2.2
_symmetry_space_group_name_H-M    P1
_symmetry_Int_Tables_number       1
_space_group_crystal_system       triclinic
_cell_length_a                    7.875524
_cell_length_b                    8.592063
_cell_length_c                    15.678781
_cell_angle_alpha                 90.729688
_cell_angle_beta                  86.886136
_cell_angle_gamma                 92.387214
_cell_volume                      1058.39194466

loop_
_atom_site_label
_atom_site_type_symbol
_atom_site_description
_atom_site_fract_x
_atom_site_fract_y
_atom_site_fract_z
_atom_type_partial_charge
O1    O     O_R   0.389250 0.738570 0.505570 -0.603415
O2    O     O_R   0.610750 0.261430 0.494430 -0.603411
O3    O     O_R   0.678390 0.711630 0.491020 -0.641159
O4    O     O_R   0.321610 0.288370 0.508980 -0.641213
C1    C     C_R   0.543522 0.793326 0.495293 0.882975
C2    C     C_R   0.456479 0.206673 0.504715 0.882979
O5    O     O_R   0.355460 0.513480 0.630490 -0.613809
O6    O     O_R   0.644540 0.486520 0.369510 -0.613803
O7    O     O_R   0.644600 0.486540 0.615950 -0.602569
O8    O     O_R   0.355400 0.513460 0.384050 -0.602584
C3    C     C_R   0.504482 0.506569 0.661444 0.881612
C4    C     C_R   0.495508 0.493403 0.338559 0.881656
Zn1   Zn    Zn3+2 0.306940 0.517990 0.509710 1.004690
Zn2   Zn    Zn3+2 0.693060 0.482010 0.490290 1.004708
C5    C     C_2   0.558887 0.954477 0.480104 -0.238712
C6    C     C_2   0.441128 0.045523 0.519929 -0.238706
C7    C     C_3   0.451272 0.634752 0.034551 0.444524
C8    C     C_3   0.548348 0.364937 0.965470 0.444452
C9    C     C_3   0.616461 0.611487 0.980708 0.506976
C10   C     C_3   0.383161 0.388211 0.019314 0.507138
H1    H     H_    0.773646 0.429627 0.055123 0.179469
H2    H     H_    0.225983 0.570049 0.944889 0.179447
C11   C     C_1   0.515010 0.521596 0.749811 -0.221864
C12   C     C_1   0.484915 0.478251 0.250201 -0.221831
C13   C     C_3   0.349311 0.538139 0.969607 -0.460731
C14   C     C_3   0.650317 0.461547 0.030409 -0.460981
C15   C     C_3   0.517429 0.514791 0.915914 -0.118891
C16   C     C_3   0.482195 0.484898 0.084107 -0.118796
N1    N     N_2   0.950320 0.457950 0.477300 0.127302
N2    N     N_2   0.049680 0.542050 0.522700 0.127322
C17   C     C_1   0.520563 0.527219 0.825064 -0.039814
C18   C     C_1   0.479218 0.472531 0.174956 -0.039906
O9    O     O_3   0.738433 0.731582 0.959473 -0.607892
C19   C     C_3   0.825172 0.780532 0.032745 0.084156
H3    H     H_    0.962792 0.761669 0.019988 0.162093
H4    H     H_    0.785926 0.717036 0.092685 0.123851
C20   C     C_3   0.800051 0.952751 0.050268 -0.767976
H5    H     H_    0.664059 0.974381 0.065110 0.304246
H6    H     H_    0.874276 0.991887 0.105217 0.184398
H7    H     H_    0.844178 0.021945 0.993989 0.275703
O10   O     O_3   0.261176 0.268124 0.040536 -0.607918
C21   C     C_3   0.174518 0.219141 0.967244 0.084159
H8    H     H_    0.213842 0.282593 0.907301 0.123917
H9    H     H_    0.036897 0.238029 0.979955 0.161980
C22   C     C_3   0.199622 0.046916 0.949759 -0.767673
H10   H     H_    0.155549 0.977774 0.006065 0.275759
H11   H     H_    0.125335 0.007731 0.894842 0.184290
H12   H     H_    0.335597 0.025278 0.934882 0.304280
O11   O     O_3   0.398436 0.785207 0.058978 -0.600889
C23   C     C_3   0.378602 0.800330 0.148306 0.060647
H13   H     H_    0.502994 0.789163 0.177668 0.150164
H14   H     H_    0.282443 0.713000 0.174602 0.158977
C24   C     C_3   0.314073 0.960092 0.171834 -0.796169
H15   H     H_    0.184757 0.971865 0.148851 0.250160
H16   H     H_    0.305800 0.973000 0.242148 0.180720
H17   H     H_    0.401591 0.053164 0.144210 0.293370
O12   O     O_3   0.600993 0.214418 0.941043 -0.600821
C25   C     C_3   0.621391 0.199507 0.851714 0.060623
H18   H     H_    0.717766 0.286854 0.825611 0.158883
H19   H     H_    0.497195 0.210816 0.822165 0.150233
C26   C     C_3   0.685854 0.039730 0.828187 -0.796180
H20   H     H_    0.598252 0.946688 0.855771 0.293433
H21   H     H_    0.694178 0.026851 0.757873 0.180742
H22   H     H_    0.815119 0.027875 0.851211 0.250060
C27   C     C_R   0.680114 0.005112 0.407626 0.152024
C28   C     C_R   0.855159 0.983499 0.411835 -0.159443
C29   C     C_R   0.970057 0.039078 0.347250 -0.122614
C30   C     C_R   0.910871 0.113508 0.276630 -0.073033
C31   C     C_R   0.736476 0.131460 0.270349 -0.137160
C32   C     C_R   0.621499 0.078211 0.335660 -0.120512
H23   H     H_    0.902766 0.925464 0.465792 0.140434
H24   H     H_    0.104935 0.025610 0.352716 0.121644
H25   H     H_    0.999999 0.158069 0.227001 0.146005
H26   H     H_    0.690677 0.188709 0.215475 0.141581
H27   H     H_    0.487491 0.097588 0.331487 0.102614
C33   C     C_R   0.319906 0.994888 0.592413 0.151993
C34   C     C_R   0.378484 0.921621 0.664335 -0.120344
C35   C     C_R   0.263498 0.868364 0.729640 -0.136983
C36   C     C_R   0.089134 0.886503 0.723409 -0.072955
C37   C     C_R   0.029994 0.961136 0.652850 -0.122833
C38   C     C_R   0.144892 0.016690 0.588262 -0.159612
H28   H     H_    0.512465 0.902114 0.668480 0.102593
H29   H     H_    0.309265 0.810974 0.784475 0.141532
H30   H     H_    0.999993 0.841934 0.773030 0.145924
H31   H     H_    0.895146 0.974783 0.647428 0.121596
H32   H     H_    0.097288 0.074849 0.534346 0.140463
O13   O     O_3   0.015301 0.435337 0.396793 -0.508902
C39   C     C_3   0.001503 0.574978 0.350257 0.267047
H33   H     H_    0.113601 0.654788 0.358727 0.121111
H34   H     H_    0.890992 0.643671 0.371657 0.152951
C40   C     C_3   0.991288 0.536684 0.255523 -0.896017
H35   H     H_    0.877368 0.460443 0.244469 0.271355
H36   H     H_    0.982222 0.645754 0.219098 0.192694
H37   H     H_    0.106332 0.475781 0.231746 0.266150
O14   O     O_3   0.984703 0.564657 0.603208 -0.508875
C41   C     C_3   0.998488 0.425007 0.649737 0.267052
H38   H     H_    0.109015 0.356332 0.628346 0.152950
H39   H     H_    0.886403 0.345192 0.641247 0.121107
C42   C     C_3   0.008657 0.463278 0.744474 -0.896049
H40   H     H_    0.893597 0.524166 0.768244 0.266156
H41   H     H_    0.017725 0.354199 0.780891 0.192638
H42   H     H_    0.122566 0.539521 0.755543 0.271342

loop_
_geom_bond_atom_site_label_1
_geom_bond_atom_site_label_2
_geom_bond_distance
_ccdc_geom_bond_type
O13   C39   1.423183 S    
C19   C20   1.520628 S    
O10   C21   1.418584 S    
O14   C41   1.423177 S    
C8    C14   1.543492 S    
H1    C14   1.111090 S    
C10   O10   1.410570 S    
C24   H15   1.107539 S    
O5    C3    1.298031 A    
N1    N2    1.281194 D    
O1    C1    1.287056 A    
C20   H5    1.106411 S    
C29   H24   1.081420 S    
C20   H7    1.102576 S    
C36   H30   1.081946 S    
C22   H12   1.106388 S    
C10   C13   1.553902 S    
C25   H19   1.113133 S    
C5    C6    1.359050 D    
C5    C27   1.500739 S    
C41   C42   1.522874 S    
N2    O14   1.350848 S    
C19   H3    1.109597 S    
O4    Zn1   1.980938 S    
C26   H21   1.105244 S    
C9    C14   1.553965 S    
C35   H29   1.082355 S    
C28   H23   1.079657 S    
C30   C31   1.397350 A    
H2    C13   1.111093 S    
C41   H39   1.107803 S    
C23   H14   1.110465 S    
C9    C15   1.530090 S    
C8    C10   1.530735 S    
C38   H32   1.079650 S    
C26   H20   1.110201 S    
C25   C26   1.517642 S    
C22   H11   1.108131 S    
C28   C29   1.396076 A    
O2    C2    1.287058 A    
C21   H9    1.109555 S    
C23   H13   1.113013 S    
C24   H16   1.105264 S    
C23   C24   1.517711 S    
C1    C5    1.407070 S    
C15   C17   1.428569 S    
C29   C30   1.396833 A    
Zn1   N2    2.044043 S    
C16   C18   1.428554 S    
C33   C34   1.406946 A    
O4    C2    1.295606 A    
C9    O9    1.410588 S    
C7    O11   1.416278 S    
C40   H35   1.108656 S    
C35   C36   1.397254 A    
C10   C16   1.530056 S    
C30   H25   1.081955 S    
C34   C35   1.398041 A    
C21   C22   1.520565 S    
C11   C17   1.183357 T    
C26   H22   1.107510 S    
O7    Zn2   1.986564 S    
C12   C18   1.183356 T    
C37   H31   1.081320 S    
C40   H36   1.110463 S    
C8    O12   1.416308 S    
C42   H40   1.109747 S    
C39   C40   1.522901 S    
O6    C4    1.298062 A    
C41   H38   1.106521 S    
O9    C19   1.418572 S    
C31   H26   1.082388 S    
O7    C3    1.297413 A    
O3    Zn2   1.980939 S    
O8    C4    1.297374 A    
C42   H41   1.110461 S    
C39   H34   1.106538 S    
O11   C23   1.405747 S    
O1    Zn1   1.978020 S    
C21   H8    1.115238 S    
Zn2   N1    2.044042 S    
C24   H17   1.110228 S    
O6    Zn2   1.953272 S    
C6    C33   1.500789 S    
C7    C16   1.546919 S    
C8    C15   1.546913 S    
C37   C38   1.396040 A    
O3    C1    1.295589 A    
O8    Zn1   1.986564 S    
C33   C38   1.403806 A    
C13   C15   1.548772 S    
C4    C12   1.396473 S    
C14   C16   1.548836 S    
C7    C13   1.543525 S    
C25   H18   1.110603 S    
C20   H6    1.108147 S    
C40   H37   1.109736 S    
O12   C25   1.405893 S    
C34   H28   1.080814 S    
C3    C11   1.396479 S    
C7    C9    1.530739 S    
C19   H4    1.115278 S    
C31   C32   1.398040 A    
O2    Zn2   1.978019 S    
N1    O13   1.350846 S    
C2    C6    1.407127 S    
C36   C37   1.396751 A    
C22   H10   1.102558 S    
O5    Zn1   1.953271 S    
C42   H42   1.108648 S    
C39   H33   1.107811 S    
C27   C28   1.403864 A    
C32   H27   1.080856 S    
C27   C32   1.406947 A    
