data_mof_unit_6223.cif
_audit_creation_date              2012-12-10T17:01:35-0500
_audit_creation_method            fapswitch 2.2
_symmetry_space_group_name_H-M    P1
_symmetry_Int_Tables_number       1
_space_group_crystal_system       triclinic
_cell_length_a                    9.935164
_cell_length_b                    11.024063
_cell_length_c                    12.999528
_cell_angle_alpha                 88.251184
_cell_angle_beta                  76.336878
_cell_angle_gamma                 110.935623
_cell_volume                      1281.75725384

loop_
_atom_site_label
_atom_site_type_symbol
_atom_type_description
_atom_site_fract_x
_atom_site_fract_y
_atom_site_fract_z
_atom_type_partial_charge
C1    C     C_R   0.439626 0.254133 0.507909 0.862500
C2    C     C_R   0.560374 0.745867 0.492091 0.862501
C3    C     C_2   0.079760 0.505179 0.485682 0.233322
C4    C     C_2   0.920240 0.494821 0.514318 0.233315
C5    C     C_R   0.473608 0.495376 0.702321 0.819669
C6    C     C_R   0.526392 0.504623 0.297678 0.819671
C7    C     C_R   0.542219 0.509900 0.183280 -0.084492
C8    C     C_R   0.457780 0.490097 0.816720 -0.084490
C9    C     C_R   0.298193 0.438401 0.997649 -0.005211
C10   C     C_R   0.701805 0.561588 0.002351 -0.005214
C11   C     C_R   0.315466 0.442360 0.888033 -0.212542
C12   C     C_R   0.684532 0.557632 0.111968 -0.212546
C13   C     C_R   0.584797 0.533762 0.854439 -0.215464
C14   C     C_R   0.415202 0.466234 0.145561 -0.215469
C15   C     C_R   0.572591 0.523478 0.963683 0.085774
C16   C     C_R   0.427407 0.476514 0.036317 0.085774
C17   C     C_2   0.405944 0.114320 0.512090 -0.333173
C18   C     C_2   0.594056 0.885679 0.487910 -0.333173
C19   C     C_2   0.516400 0.069697 0.498130 -0.140783
C20   C     C_2   0.483600 0.930303 0.501870 -0.140783
Cu1   Cu    Cu3+1 0.647370 0.522180 0.481340 0.947083
Cu2   Cu    Cu3+1 0.352630 0.477820 0.518660 0.947083
H1    H     H_    0.307065 0.421775 0.202171 0.173295
H2    H     H_    0.692934 0.578223 0.797829 0.173297
H3    H     H_    0.783187 0.588834 0.141786 0.188893
H4    H     H_    0.216811 0.411156 0.858215 0.188884
H5    H     H_    0.367771 0.863799 0.516261 0.183446
H6    H     H_    0.632229 0.136201 0.483739 0.183446
H7    H     H_    0.709669 0.952538 0.473502 0.158214
H8    H     H_    0.290331 0.047462 0.526498 0.158214
H9    H     H_    0.941008 0.609896 0.382938 0.223009
H10   H     H_    0.058992 0.390105 0.617063 0.223006
N1    N     N_2   0.131210 0.444490 0.546730 -0.300733
N2    N     N_2   0.868790 0.555510 0.453270 -0.300734
O1    O     O_R   0.578710 0.332530 0.490040 -0.593229
O2    O     O_R   0.421290 0.667470 0.509960 -0.593229
O3    O     O_R   0.329810 0.295070 0.521560 -0.565687
O4    O     O_R   0.670190 0.704930 0.478440 -0.565686
O5    O     O_R   0.604230 0.515670 0.637800 -0.599553
O6    O     O_R   0.395770 0.484330 0.362200 -0.599552
O7    O     O_R   0.355330 0.478200 0.669330 -0.578874
O8    O     O_R   0.644670 0.521800 0.330670 -0.578873
C21   C     C_2   0.144012 0.398773 0.067773 0.832666
O9    O     O_2   0.043426 0.304102 0.051852 -0.571272
O10   O     O_R   0.112101 0.473406 0.148265 -0.775881
H11   H     H_    0.002698 0.437635 0.189302 0.334964
C22   C     C_2   0.855983 0.601205 0.932229 0.832681
O11   O     O_2   0.956574 0.695862 0.948156 -0.571277
O12   O     O_R   0.887883 0.526575 0.851733 -0.775896
H12   H     H_    0.997284 0.562334 0.810699 0.334969
N3    N     N_3   0.827680 0.418459 0.614028 -0.600139
H13   H     H_    0.810230 0.481091 0.669420 0.267836
H14   H     H_    0.728323 0.349854 0.605878 0.266377
N4    N     N_3   0.172320 0.581542 0.385972 -0.600142
H15   H     H_    0.189771 0.518913 0.330578 0.267834
H16   H     H_    0.271677 0.650147 0.394122 0.266376

loop_
_geom_bond_atom_site_label_1
_geom_bond_atom_site_label_2
_ccdc_geom_bond_type
C14   H1    S    
C5    C8    S    
C21   O9    D    
N4    H16   S    
C8    C13   A    
Cu1   O1    S    
C20   H5    S    
C2    C18   S    
C9    C11   A    
C2    O4    A    
C1    C17   S    
C19   C20   S    
Cu1   O5    S    
C1    O3    A    
C12   H3    S    
Cu2   O6    S    
H10   N1    S    
C5    O5    A    
H9    N2    S    
N3    H13   S    
C22   O12   S    
C18   H7    S    
Cu1   Cu2   S    
C17   H8    S    
C21   O10   S    
C6    C7    S    
C10   C12   A    
C8    C11   A    
C17   C19   D    
C9    C16   A    
C18   C20   D    
C10   C15   A    
C13   C15   A    
C4    N2    D    
C19   H6    S    
C7    C12   A    
C3    N4    S    
C14   C16   A    
C9    C21   S    
Cu2   O7    S    
C3    N1    D    
C4    N3    S    
C3    C4    S    
C22   O11   D    
C6    O6    A    
Cu2   O2    S    
C1    O1    A    
O12   H12   S    
C6    O8    A    
C2    O2    A    
C10   C22   S    
Cu2   N1    S    
C5    O7    A    
N4    H15   S    
Cu1   O8    S    
C11   H4    S    
O10   H11   S    
Cu2   O3    S    
Cu1   N2    S    
C7    C14   A    
Cu1   O4    S    
C15   C16   A    
C13   H2    S    
N3    H14   S    
