data_mof_unit_61728.cif
_audit_creation_date              2012-10-26T18:19:36-0400
_audit_creation_method            fapswitch 2.2
_symmetry_space_group_name_H-M    P1
_symmetry_Int_Tables_number       1
_space_group_crystal_system       triclinic
_cell_length_a                    18.373336
_cell_length_b                    30.670632
_cell_length_c                    30.814099
_cell_angle_alpha                 90.000036
_cell_angle_beta                  90.537946
_cell_angle_gamma                 89.999959
_cell_volume                      17363.6520196

loop_
_atom_site_label
_atom_site_type_symbol
_atom_type_description
_atom_site_fract_x
_atom_site_fract_y
_atom_site_fract_z
_atom_type_partial_charge
C1    C     C_R   0.500404 0.690493 0.309259 0.555100
C2    C     C_R   0.554642 0.623717 0.595114 -0.028360
C3    C     C_R   0.139742 0.749861 0.250037 0.556586
C4    C     C_R   0.360258 0.249861 0.749962 0.556561
C5    C     C_R   0.360258 0.250135 0.249988 0.555467
C6    C     C_R   0.639741 0.250135 0.750012 0.555453
C7    C     C_R   0.639742 0.249861 0.250037 0.556578
C8    C     C_3   0.403433 0.902136 0.186634 -0.276358
C9    C     C_3   0.596953 0.901977 0.813515 -0.276435
C10   C     C_3   0.903514 0.402169 0.186665 -0.276347
C11   C     C_3   0.096296 0.402246 0.813262 -0.276313
C12   C     C_3   0.904312 0.902490 0.686969 -0.276199
C13   C     C_R   0.945349 0.123711 0.404880 -0.028351
C14   C     C_3   0.096447 0.902184 0.313319 -0.276344
C15   C     C_3   0.402989 0.401954 0.686463 -0.276446
C16   C     C_3   0.596582 0.402130 0.313372 -0.276362
C17   C     C_R   0.499742 0.940624 0.940586 0.554205
C18   C     C_R   0.500257 0.940627 0.059416 0.554174
C19   C     C_R   0.999743 0.440629 0.940584 0.554150
C20   C     C_R   0.000257 0.440628 0.059416 0.554154
C21   C     C_R   0.999743 0.940628 0.440584 0.554143
C22   C     C_R   0.000257 0.940633 0.559418 0.554105
C23   C     C_R   0.499743 0.440627 0.440584 0.554179
C24   C     C_R   0.054673 0.123695 0.595137 -0.028337
C25   C     C_R   0.500258 0.440624 0.559414 0.554207
C26   C     C_R   0.499725 0.559314 0.440356 0.574599
C27   C     C_R   0.500275 0.559315 0.559644 0.574650
C28   C     C_R   0.999725 0.059314 0.440356 0.574593
C29   C     C_R   0.000274 0.059314 0.559645 0.574518
C30   C     C_R   0.999726 0.559314 0.940355 0.574578
C31   C     C_R   0.000274 0.559314 0.059644 0.574588
C32   C     C_R   0.499725 0.059315 0.940356 0.574649
C33   C     C_R   0.500274 0.059314 0.059644 0.574594
C34   C     C_R   0.500253 0.809344 0.190722 0.550215
C35   C     C_R   0.945342 0.623706 0.904875 -0.028344
C36   C     C_R   0.499750 0.809343 0.809277 0.550200
C37   C     C_R   0.000253 0.309344 0.190722 0.550221
C38   C     C_R   0.999745 0.309344 0.809278 0.550230
C39   C     C_R   0.000258 0.809345 0.690720 0.550246
C40   C     C_R   0.999746 0.809344 0.309278 0.550222
C41   C     C_R   0.500250 0.309343 0.690723 0.550201
C42   C     C_R   0.499747 0.309344 0.309278 0.550215
C43   C     C_1   0.282663 0.749605 0.249954 -0.050280
C44   C     C_1   0.282663 0.750386 0.749965 -0.043944
C45   C     C_1   0.717337 0.750386 0.250035 -0.043943
C46   C     C_R   0.054661 0.623704 0.095127 -0.028346
C47   C     C_1   0.717337 0.749605 0.750047 -0.050271
C48   C     C_1   0.782663 0.249605 0.249954 -0.050280
C49   C     C_1   0.782663 0.250387 0.749965 -0.043944
C50   C     C_1   0.217337 0.250387 0.250035 -0.043944
C51   C     C_1   0.217337 0.249605 0.750046 -0.050286
C52   C     C_1   0.782663 0.749605 0.749954 -0.050259
C53   C     C_1   0.782663 0.750386 0.249965 -0.043942
C54   C     C_1   0.217337 0.750386 0.750035 -0.043936
C55   C     C_1   0.217337 0.749605 0.250046 -0.050280
C56   C     C_1   0.282663 0.249605 0.749953 -0.050292
C57   C     C_R   0.445361 0.123719 0.904889 -0.028363
C58   C     C_1   0.282663 0.250387 0.249965 -0.043944
C59   C     C_1   0.717337 0.250387 0.750035 -0.043948
C60   C     C_1   0.717337 0.249605 0.250046 -0.050281
C61   C     C_R   0.446449 0.656160 0.373826 0.000267
C62   C     C_R   0.553529 0.656173 0.626159 0.000281
C63   C     C_R   0.946461 0.156168 0.373835 0.000274
C64   C     C_R   0.053562 0.156153 0.626181 0.000256
C65   C     C_R   0.946454 0.656163 0.873830 0.000272
C66   C     C_R   0.053549 0.656161 0.126172 0.000270
C67   C     C_R   0.446474 0.156175 0.873843 0.000282
C68   C     C_R   0.554665 0.123700 0.095131 -0.028345
C69   C     C_R   0.553555 0.156158 0.126176 0.000267
C70   C     C_R   0.499359 0.656399 0.341717 -0.040579
C71   C     C_R   0.500642 0.656398 0.658283 -0.040594
C72   C     C_R   0.999358 0.156399 0.341717 -0.040583
C73   C     C_R   0.000639 0.156399 0.658283 -0.040562
C74   C     C_R   0.999359 0.656399 0.841717 -0.040578
C75   C     C_R   0.000641 0.656399 0.158283 -0.040579
C76   C     C_R   0.499357 0.156398 0.841717 -0.040596
C77   C     C_R   0.500641 0.156399 0.158283 -0.040578
C78   C     C_R   0.546559 0.620513 0.338384 -0.112344
C79   C     C_3   0.424173 0.654879 0.439773 -0.274160
C80   C     C_R   0.453470 0.620501 0.661626 -0.112328
C81   C     C_R   0.046545 0.120507 0.338380 -0.112349
C82   C     C_R   0.953422 0.120521 0.661608 -0.112376
C83   C     C_R   0.046555 0.620511 0.838383 -0.112355
C84   C     C_R   0.953441 0.620513 0.161615 -0.112349
C85   C     C_R   0.546526 0.120499 0.838373 -0.112332
C86   C     C_R   0.453435 0.120515 0.161613 -0.112345
C87   C     C_R   0.547015 0.588245 0.370568 0.348161
C88   C     C_R   0.453014 0.588233 0.629442 0.348227
C89   C     C_R   0.047002 0.088240 0.370564 0.348139
C90   C     C_3   0.575762 0.654898 0.560207 -0.274185
C91   C     C_R   0.952966 0.088253 0.629425 0.348022
C92   C     C_R   0.047012 0.588244 0.870567 0.348116
C93   C     C_R   0.952985 0.588245 0.129432 0.348146
C94   C     C_R   0.546983 0.088232 0.870556 0.348216
C95   C     C_R   0.452979 0.088247 0.129430 0.348159
C96   C     C_R   0.498332 0.591072 0.405473 0.023273
C97   C     C_R   0.501669 0.591074 0.594524 0.023297
C98   C     C_R   0.998333 0.091074 0.405475 0.023278
C99   C     C_R   0.001666 0.091072 0.594527 0.023247
C100  C     C_R   0.998333 0.591073 0.905474 0.023270
C101  C     C_3   0.924212 0.154890 0.439785 -0.274163
C102  C     C_R   0.001667 0.591073 0.094526 0.023270
C103  C     C_R   0.498331 0.091074 0.905476 0.023298
C104  C     C_R   0.501667 0.091072 0.094527 0.023269
C105  C     C_R   0.499596 0.690493 0.690741 0.555096
C106  C     C_3   0.075863 0.154868 0.560237 -0.274131
C107  C     C_3   0.924190 0.654883 0.939778 -0.274157
C108  C     C_3   0.075823 0.654880 0.060225 -0.274156
C109  C     C_3   0.424250 0.154902 0.939797 -0.274189
C110  C     C_3   0.575835 0.154877 0.060230 -0.274158
C111  C     C_3   0.425634 0.690580 0.405586 -0.255110
C112  C     C_3   0.574299 0.690598 0.594394 -0.255090
C113  C     C_3   0.925673 0.190590 0.405598 -0.255107
C114  C     C_3   0.074402 0.190569 0.594423 -0.255125
C115  C     C_3   0.925651 0.690584 0.905591 -0.255115
C116  C     C_R   0.000403 0.190493 0.309259 0.555103
C117  C     C_3   0.074362 0.690581 0.094412 -0.255115
C118  C     C_3   0.425712 0.190601 0.905609 -0.255093
C119  C     C_3   0.574377 0.190577 0.094417 -0.255115
C120  C     C_R   0.459050 0.879426 0.160050 0.011558
C121  C     C_R   0.541115 0.879359 0.840011 0.011541
C122  C     C_R   0.959085 0.379440 0.160062 0.011561
C123  C     C_R   0.040834 0.379472 0.839908 0.011568
C124  C     C_R   0.959425 0.879574 0.660185 0.011591
C125  C     C_R   0.040899 0.879446 0.339931 0.011562
C126  C     C_R   0.458860 0.379350 0.659980 0.011539
C127  C     C_R   0.999596 0.190493 0.690741 0.555104
C128  C     C_R   0.540956 0.379423 0.339953 0.011557
C129  C     C_R   0.501975 0.842388 0.157510 0.022930
C130  C     C_R   0.498023 0.842387 0.842487 0.022989
C131  C     C_R   0.001975 0.342388 0.157509 0.022918
C132  C     C_R   0.998025 0.342389 0.842493 0.022891
C133  C     C_R   0.001974 0.842389 0.657501 0.022801
C134  C     C_R   0.998024 0.842388 0.342492 0.022914
C135  C     C_R   0.501976 0.342387 0.657514 0.022997
C136  C     C_R   0.498024 0.342388 0.342490 0.022933
C137  C     C_R   0.546691 0.837845 0.120768 -0.149094
C138  C     C_R   0.000404 0.690493 0.809259 0.555109
C139  C     C_R   0.453135 0.837910 0.879159 -0.149100
C140  C     C_R   0.046655 0.337832 0.120753 -0.149097
C141  C     C_R   0.953431 0.337800 0.879283 -0.149093
C142  C     C_R   0.046297 0.837700 0.620604 -0.149089
C143  C     C_R   0.953363 0.837825 0.379255 -0.149100
C144  C     C_R   0.546890 0.337919 0.620852 -0.149098
C145  C     C_R   0.453302 0.337848 0.379229 -0.149093
C146  C     C_R   0.547238 0.870489 0.088535 -0.153463
C147  C     C_R   0.452588 0.870554 0.911392 -0.153468
C148  C     C_R   0.047202 0.370475 0.088520 -0.153478
C149  C     C_R   0.999596 0.690493 0.190741 0.555103
C150  C     C_R   0.952883 0.370443 0.911516 -0.153477
C151  C     C_R   0.046845 0.870341 0.588370 -0.153491
C152  C     C_R   0.952816 0.870468 0.411488 -0.153494
C153  C     C_R   0.547437 0.370564 0.588619 -0.153463
C154  C     C_R   0.452755 0.370491 0.411462 -0.153462
C155  C     C_R   0.501204 0.907111 0.092114 0.022937
C156  C     C_R   0.498793 0.907108 0.907884 0.022881
C157  C     C_R   0.001203 0.407111 0.092114 0.022944
C158  C     C_R   0.998798 0.407112 0.907887 0.022975
C159  C     C_R   0.001197 0.907116 0.592109 0.023059
C160  C     C_R   0.500404 0.190493 0.809259 0.555097
C161  C     C_R   0.998797 0.907111 0.407887 0.022947
C162  C     C_R   0.501208 0.407108 0.592116 0.022873
C163  C     C_R   0.498796 0.407111 0.407886 0.022937
C164  C     C_R   0.457538 0.909821 0.128422 0.011272
C165  C     C_R   0.542623 0.909751 0.871641 0.011406
C166  C     C_R   0.957572 0.409835 0.128436 0.011250
C167  C     C_R   0.042349 0.409868 0.871533 0.011187
C168  C     C_R   0.957905 0.909975 0.628564 0.010988
C169  C     C_R   0.042412 0.909842 0.371558 0.011242
C170  C     C_R   0.457352 0.409741 0.628350 0.011425
C171  C     C_R   0.499596 0.190493 0.190741 0.555099
C172  C     C_R   0.542468 0.409818 0.371580 0.011277
C173  C     C_3   0.402340 0.937138 0.150718 -0.241101
C174  C     C_3   0.598046 0.936978 0.849434 -0.241178
C175  C     C_3   0.902421 0.437171 0.150749 -0.241080
C176  C     C_3   0.097389 0.437249 0.849177 -0.241037
C177  C     C_3   0.903218 0.937496 0.651057 -0.240914
C178  C     C_3   0.097540 0.937187 0.349235 -0.241067
C179  C     C_3   0.401897 0.436955 0.650544 -0.241188
C180  C     C_3   0.597675 0.437132 0.349288 -0.241103
C181  C     C_R   0.360258 0.749861 0.249963 0.556578
C182  C     C_R   0.445337 0.623703 0.404871 -0.028348
C183  C     C_R   0.360258 0.750135 0.749988 0.555451
C184  C     C_R   0.639742 0.750135 0.250012 0.555468
C185  C     C_R   0.639742 0.749861 0.750037 0.556562
C186  C     C_R   0.860258 0.249861 0.249963 0.556586
C187  C     C_R   0.860258 0.250135 0.749988 0.555485
C188  C     C_R   0.139742 0.250135 0.250012 0.555475
C189  C     C_R   0.139742 0.249861 0.750037 0.556594
C190  C     C_R   0.860258 0.749860 0.749963 0.556622
C191  C     C_R   0.860258 0.750135 0.249988 0.555476
C192  C     C_R   0.139742 0.750135 0.750012 0.555504
Cu1   Cu    Cu3+1 0.500000 0.780890 0.280900 0.942407
Cu2   Cu    Cu3+1 0.500000 0.719080 0.780910 0.961538
Cu3   Cu    Cu3+1 0.000000 0.219080 0.219090 0.961494
Cu4   Cu    Cu3+1 0.000000 0.219080 0.780910 0.961459
Cu5   Cu    Cu3+1 0.000000 0.719080 0.719090 0.961463
Cu6   Cu    Cu3+1 0.000000 0.719080 0.280910 0.961490
Cu7   Cu    Cu3+1 0.500000 0.219080 0.719090 0.961543
Cu8   Cu    Cu3+1 0.500000 0.219080 0.280910 0.961519
Cu9   Cu    Cu3+1 0.427490 0.999980 0.000000 0.988067
Cu10  Cu    Cu3+1 0.572510 0.999980 0.000000 0.987991
Cu11  Cu    Cu3+1 0.927490 0.499980 0.000000 0.988091
Cu12  Cu    Cu3+1 0.500000 0.780890 0.719100 0.942489
Cu13  Cu    Cu3+1 0.072510 0.499980 0.000000 0.988100
Cu14  Cu    Cu3+1 0.927490 0.999980 0.500000 0.988186
Cu15  Cu    Cu3+1 0.072510 0.999980 0.500000 0.988081
Cu16  Cu    Cu3+1 0.427490 0.499980 0.500000 0.987993
Cu17  Cu    Cu3+1 0.572510 0.499980 0.500000 0.988068
Cu18  Cu    Cu3+1 0.000000 0.280890 0.280900 0.942371
Cu19  Cu    Cu3+1 0.000000 0.280890 0.719100 0.942331
Cu20  Cu    Cu3+1 0.000000 0.780890 0.780900 0.942265
Cu21  Cu    Cu3+1 0.000000 0.780890 0.219100 0.942369
Cu22  Cu    Cu3+1 0.500000 0.280890 0.780900 0.942453
Cu23  Cu    Cu3+1 0.500000 0.280890 0.219100 0.942399
Cu24  Cu    Cu3+1 0.500000 0.719080 0.219090 0.961514
F1    F     F_    0.595699 0.555071 0.368086 -0.637753
F2    F     F_    0.404356 0.555046 0.631936 -0.637753
F3    F     F_    0.095675 0.055061 0.368077 -0.637780
F4    F     F_    0.904262 0.055088 0.631898 -0.637802
F5    F     F_    0.095695 0.555069 0.868084 -0.637780
F6    F     F_    0.904300 0.555071 0.131913 -0.637760
F7    F     F_    0.595638 0.055044 0.868062 -0.637764
F8    F     F_    0.404290 0.055076 0.131910 -0.637747
H1    H     H_    0.585284 0.618601 0.312151 0.153324
H2    H     H_    0.532833 0.658624 0.534836 0.121571
H3    H     H_    0.467082 0.658615 0.465153 0.121576
H4    H     H_    0.631243 0.648218 0.547761 0.153238
H5    H     H_    0.868729 0.148205 0.452225 0.153246
H6    H     H_    0.032964 0.158609 0.534851 0.121587
H7    H     H_    0.967133 0.158620 0.465160 0.121581
H8    H     H_    0.131350 0.148167 0.547813 0.153238
H9    H     H_    0.868707 0.648193 0.952214 0.153239
H10   H     H_    0.032913 0.658616 0.034845 0.121579
H11   H     H_    0.967106 0.658616 0.965156 0.121579
H12   H     H_    0.414765 0.618579 0.687869 0.153338
H13   H     H_    0.131308 0.648187 0.047793 0.153242
H14   H     H_    0.368771 0.148224 0.952245 0.153235
H15   H     H_    0.532926 0.158615 0.034849 0.121574
H16   H     H_    0.467184 0.158626 0.965164 0.121571
H17   H     H_    0.631319 0.148181 0.047798 0.153232
H18   H     H_    0.370984 0.704469 0.398329 0.144927
H19   H     H_    0.530399 0.714989 0.588851 0.151587
H20   H     H_    0.469514 0.714981 0.411140 0.151586
H21   H     H_    0.628944 0.704501 0.601638 0.144943
H22   H     H_    0.871026 0.204487 0.398349 0.144928
H23   H     H_    0.085260 0.118591 0.312142 0.153330
H24   H     H_    0.030533 0.214976 0.588864 0.151578
H25   H     H_    0.969564 0.214986 0.411145 0.151577
H26   H     H_    0.129054 0.204451 0.601688 0.144915
H27   H     H_    0.871003 0.704477 0.898338 0.144920
H28   H     H_    0.030482 0.714982 0.088859 0.151577
H29   H     H_    0.969536 0.714982 0.911142 0.151575
H30   H     H_    0.129012 0.704470 0.101669 0.144926
H31   H     H_    0.371068 0.204506 0.898367 0.144934
H32   H     H_    0.530501 0.214981 0.088863 0.151584
H33   H     H_    0.469616 0.214990 0.911150 0.151582
H34   H     H_    0.914685 0.118616 0.687835 0.153312
H35   H     H_    0.629028 0.204463 0.101676 0.144926
H36   H     H_    0.581539 0.809600 0.117277 0.132026
H37   H     H_    0.418155 0.809715 0.882596 0.131940
H38   H     H_    0.081475 0.309576 0.117250 0.132043
H39   H     H_    0.918675 0.309519 0.882812 0.132083
H40   H     H_    0.080847 0.809340 0.616991 0.132215
H41   H     H_    0.918556 0.809564 0.382763 0.132052
H42   H     H_    0.581889 0.309733 0.617423 0.131931
H43   H     H_    0.418449 0.309605 0.382718 0.132022
H44   H     H_    0.582341 0.866784 0.060730 0.127621
H45   H     H_    0.085278 0.618598 0.812149 0.153323
H46   H     H_    0.417352 0.866900 0.939144 0.127715
H47   H     H_    0.082277 0.366759 0.060703 0.127604
H48   H     H_    0.917874 0.366702 0.939359 0.127557
H49   H     H_    0.081645 0.866522 0.560444 0.127409
H50   H     H_    0.917755 0.866747 0.439310 0.127596
H51   H     H_    0.582693 0.366917 0.560875 0.127732
H52   H     H_    0.417647 0.366788 0.439265 0.127625
H53   H     H_    0.424941 0.969049 0.161356 0.197635
H54   H     H_    0.650272 0.938458 0.867869 0.164080
H55   H     H_    0.350040 0.938704 0.132365 0.164327
H56   H     H_    0.914717 0.618601 0.187848 0.153323
H57   H     H_    0.575638 0.968926 0.838761 0.197851
H58   H     H_    0.925062 0.469074 0.161381 0.197616
H59   H     H_    0.149740 0.438875 0.867472 0.164499
H60   H     H_    0.850105 0.438754 0.132413 0.164380
H61   H     H_    0.074652 0.469133 0.838562 0.197552
H62   H     H_    0.926255 0.969321 0.661617 0.197275
H63   H     H_    0.149863 0.938779 0.367563 0.164404
H64   H     H_    0.850755 0.939256 0.632889 0.164879
H65   H     H_    0.074879 0.969086 0.338607 0.197628
H66   H     H_    0.424276 0.468908 0.661222 0.197865
H67   H     H_    0.585229 0.118576 0.812129 0.153339
H68   H     H_    0.649972 0.438694 0.367644 0.164317
H69   H     H_    0.349681 0.438422 0.632097 0.164048
H70   H     H_    0.575082 0.469044 0.338648 0.197652
H71   H     H_    0.426099 0.913965 0.218063 0.154888
H72   H     H_    0.648375 0.883023 0.811455 0.140563
H73   H     H_    0.351936 0.883267 0.188776 0.140607
H74   H     H_    0.574481 0.913841 0.782052 0.154916
H75   H     H_    0.926220 0.413990 0.218087 0.154881
H76   H     H_    0.147845 0.383435 0.811064 0.140639
H77   H     H_    0.852001 0.383317 0.188823 0.140616
H78   H     H_    0.414706 0.118606 0.187844 0.153321
H79   H     H_    0.073495 0.414049 0.781857 0.154870
H80   H     H_    0.927412 0.914236 0.718318 0.154834
H81   H     H_    0.147967 0.883341 0.311153 0.140621
H82   H     H_    0.852646 0.883811 0.689294 0.140706
H83   H     H_    0.073721 0.914002 0.281902 0.154881
H84   H     H_    0.425433 0.413824 0.717931 0.154915
H85   H     H_    0.648076 0.383257 0.311234 0.140605
H86   H     H_    0.351579 0.382988 0.688510 0.140557
H87   H     H_    0.573924 0.413960 0.281941 0.154888
H88   H     H_    0.368688 0.648185 0.452205 0.153232
O1    O     O_R   0.500000 0.731000 0.321180 -0.510293
O2    O     O_R   0.500000 0.678810 0.731020 -0.506895
O3    O     O_R   1.000000 0.178810 0.268980 -0.506900
O4    O     O_R   0.000000 0.178810 0.731020 -0.506908
O5    O     O_R   0.000000 0.678810 0.768980 -0.506898
O6    O     O_R   1.000000 0.678810 0.231020 -0.506896
O7    O     O_R   0.500000 0.178810 0.768980 -0.506896
O8    O     O_R   0.500000 0.178810 0.231020 -0.506893
O9    O     O_R   0.394200 0.776090 0.276090 -0.508633
O10   O     O_R   0.394200 0.776090 0.723910 -0.503191
O11   O     O_R   0.605800 0.776090 0.276090 -0.503197
O12   O     O_R   0.500000 0.731000 0.678820 -0.510292
O13   O     O_R   0.605800 0.776090 0.723910 -0.508612
O14   O     O_R   0.894200 0.276090 0.276090 -0.508636
O15   O     O_R   0.894200 0.276090 0.723910 -0.503204
O16   O     O_R   0.105800 0.276090 0.276090 -0.503202
O17   O     O_R   0.105800 0.276090 0.723910 -0.508648
O18   O     O_R   0.894200 0.776090 0.776090 -0.508647
O19   O     O_R   0.894200 0.776090 0.223910 -0.503202
O20   O     O_R   0.105800 0.776090 0.776090 -0.503213
O21   O     O_R   0.105800 0.776090 0.223910 -0.508636
O22   O     O_R   0.394200 0.276090 0.776090 -0.508628
O23   O     O_R   0.000000 0.231000 0.321180 -0.510294
O24   O     O_R   0.394200 0.276090 0.223910 -0.503199
O25   O     O_R   0.605800 0.276090 0.776090 -0.503196
O26   O     O_R   0.605800 0.276090 0.223910 -0.508635
O27   O     O_R   0.394210 0.723900 0.223890 -0.499555
O28   O     O_R   0.394210 0.723900 0.776110 -0.503824
O29   O     O_R   0.605790 0.723900 0.223890 -0.503817
O30   O     O_R   0.605790 0.723900 0.776110 -0.499567
O31   O     O_R   0.894210 0.223900 0.223890 -0.499554
O32   O     O_R   0.894210 0.223900 0.776110 -0.503816
O33   O     O_R   0.105790 0.223900 0.223890 -0.503814
O34   O     O_R   0.000000 0.231000 0.678820 -0.510291
O35   O     O_R   0.105790 0.223900 0.776110 -0.499547
O36   O     O_R   0.894210 0.723900 0.723890 -0.499534
O37   O     O_R   0.894210 0.723900 0.276110 -0.503815
O38   O     O_R   0.105790 0.723900 0.723890 -0.503806
O39   O     O_R   0.105790 0.723900 0.276110 -0.499554
O40   O     O_R   0.394210 0.223900 0.723890 -0.499565
O41   O     O_R   0.394210 0.223900 0.276110 -0.503818
O42   O     O_R   0.605790 0.223900 0.723890 -0.503818
O43   O     O_R   0.605790 0.223900 0.276110 -0.499553
O44   O     O_R   0.500000 0.821170 0.231010 -0.508030
O45   O     O_R   0.000000 0.731000 0.821180 -0.510293
O46   O     O_R   0.500000 0.821170 0.768990 -0.508011
O47   O     O_R   0.000000 0.321170 0.231010 -0.508033
O48   O     O_R   0.000000 0.321170 0.768990 -0.508042
O49   O     O_R   0.000000 0.821170 0.731010 -0.508074
O50   O     O_R   0.000000 0.821170 0.268990 -0.508034
O51   O     O_R   0.500000 0.321170 0.731010 -0.508007
O52   O     O_R   0.500000 0.321170 0.268990 -0.508030
O53   O     O_R   0.500000 0.768980 0.178810 -0.513352
O54   O     O_R   0.500000 0.768980 0.821190 -0.513328
O55   O     O_R   0.000000 0.268980 0.178810 -0.513361
O56   O     O_R   0.000000 0.731000 0.178820 -0.510294
O57   O     O_R   0.000000 0.268980 0.821190 -0.513372
O58   O     O_R   0.000000 0.768980 0.678810 -0.513418
O59   O     O_R   0.000000 0.768980 0.321190 -0.513366
O60   O     O_R   0.500000 0.268980 0.678810 -0.513320
O61   O     O_R   0.500000 0.268980 0.321190 -0.513350
O62   O     O_R   0.438730 0.954890 0.954890 -0.517179
O63   O     O_R   0.438730 0.954890 0.045110 -0.502820
O64   O     O_R   0.561270 0.954890 0.954890 -0.502836
O65   O     O_R   0.561270 0.954890 0.045110 -0.517162
O66   O     O_R   0.938730 0.454890 0.954890 -0.517139
O67   O     O_R   0.500000 0.231000 0.821180 -0.510296
O68   O     O_R   0.938730 0.454890 0.045110 -0.502814
O69   O     O_R   0.061270 0.454890 0.954890 -0.502804
O70   O     O_R   0.061270 0.454890 0.045110 -0.517149
O71   O     O_R   0.938730 0.954890 0.454890 -0.517139
O72   O     O_R   0.938730 0.954890 0.545110 -0.502775
O73   O     O_R   0.061270 0.954890 0.454890 -0.502809
O74   O     O_R   0.061270 0.954890 0.545110 -0.517107
O75   O     O_R   0.438730 0.454890 0.454890 -0.517163
O76   O     O_R   0.438730 0.454890 0.545110 -0.502839
O77   O     O_R   0.561270 0.454890 0.454890 -0.502820
O78   O     O_R   0.500000 0.231000 0.178820 -0.510295
O79   O     O_R   0.561270 0.454890 0.545110 -0.517181
O80   O     O_R   0.438760 0.545060 0.454900 -0.523302
O81   O     O_R   0.438760 0.545060 0.545100 -0.460708
O82   O     O_R   0.561240 0.545060 0.454900 -0.460667
O83   O     O_R   0.561240 0.545060 0.545100 -0.523274
O84   O     O_R   0.938760 0.045060 0.454900 -0.523297
O85   O     O_R   0.938760 0.045060 0.545100 -0.460626
O86   O     O_R   0.061240 0.045060 0.454900 -0.460677
O87   O     O_R   0.061240 0.045060 0.545100 -0.523339
O88   O     O_R   0.938760 0.545060 0.954900 -0.523307
O89   O     O_R   0.500000 0.678810 0.268980 -0.506895
O90   O     O_R   0.938760 0.545060 0.045100 -0.460664
O91   O     O_R   0.061240 0.545060 0.954900 -0.460664
O92   O     O_R   0.061240 0.545060 0.045100 -0.523302
O93   O     O_R   0.438760 0.045060 0.954900 -0.523276
O94   O     O_R   0.438760 0.045060 0.045100 -0.460660
O95   O     O_R   0.561240 0.045060 0.954900 -0.460710
O96   O     O_R   0.561240 0.045060 0.045100 -0.523304

loop_
_geom_bond_atom_site_label_1
_geom_bond_atom_site_label_2
_ccdc_geom_bond_type
C61   C70   A    
Cu6   O59   S    
C184  O11   A    
C101  C113  S    
C81   H23   S    
Cu3   O31   S    
C74   C83   A    
C29   O85   A    
C23   O75   A    
Cu11  Cu13  S    
C21   O73   A    
C124  C133  A    
C90   H4    S    
C176  H59   S    
C5    O41   A    
Cu2   O2    S    
C22   C159  S    
Cu2   O28   S    
Cu7   Cu22  S    
Cu8   Cu23  S    
C42   C136  S    
C2    C90   S    
C191  O37   A    
C131  C140  A    
C185  O13   A    
C134  C143  A    
C124  C168  A    
C57   C109  S    
C187  O15   A    
C26   O82   A    
C171  O78   A    
C12   H82   S    
Cu9   O63   S    
C125  C169  A    
C88   C97   A    
Cu21  O56   S    
C107  H9    S    
C4    C56   S    
C178  H65   S    
Cu13  O92   S    
C109  C118  S    
Cu10  O95   S    
C20   O68   A    
C29   C99   S    
C18   O65   A    
C137  C146  A    
C150  H48   S    
Cu14  Cu15  S    
C69   C119  S    
C82   C91   A    
C106  H6    S    
C143  H41   S    
Cu14  O84   S    
C142  C151  A    
C36   C130  S    
C89   F3    S    
C181  O9    A    
C115  H29   S    
C12   H80   S    
C164  C173  S    
C68   C110  S    
C79   H88   S    
C163  C172  A    
C9    H74   S    
C6    O42   A    
Cu8   O41   S    
Cu23  O26   S    
C40   O59   A    
Cu11  O88   S    
C29   O87   A    
C30   O88   A    
C36   O46   A    
Cu20  O18   S    
C174  H57   S    
C16   H85   S    
C27   C97   S    
C94   C103  A    
C187  O32   A    
C90   H2    S    
C10   C122  S    
C105  O2    A    
C47   C52   T    
Cu16  O76   S    
C8    H71   S    
C1    C70   S    
C79   C182  S    
Cu20  O49   S    
C80   C88   A    
Cu2   O54   S    
C40   C134  S    
Cu13  O70   S    
C84   C93   A    
C67   C118  S    
Cu15  O86   S    
C35   C107  S    
C118  H31   S    
Cu16  O81   S    
C63   C113  S    
C129  C137  A    
C108  H13   S    
C37   O47   A    
C38   O57   A    
C76   C85   A    
C45   C184  S    
C38   C132  S    
C78   C87   A    
C20   O70   A    
C15   C179  S    
C123  C132  A    
C82   H34   S    
C33   C104  S    
Cu10  O64   S    
C80   H12   S    
C69   C77   A    
C14   H83   S    
C121  C130  A    
C50   C188  S    
C119  H32   S    
C192  O38   A    
C15   H84   S    
C11   C176  S    
C191  O19   A    
C5    C58   S    
C180  H68   S    
C31   O92   A    
C40   O50   A    
Cu7   O60   S    
C147  H46   S    
Cu17  O82   S    
C75   C84   A    
C28   O86   A    
C30   C100  S    
Cu10  O65   S    
C113  H25   S    
C85   C94   A    
C155  C164  A    
C10   H75   S    
Cu15  O74   S    
C3    C55   S    
C86   H78   S    
Cu8   O43   S    
C46   C108  S    
C105  O12   A    
C64   C73   A    
C152  C161  A    
Cu14  O72   S    
Cu20  O20   S    
C186  O14   A    
C16   H87   S    
C45   C53   T    
C140  H38   S    
C65   C115  S    
C117  H28   S    
Cu3   O3    S    
C141  C150  A    
C26   C96   S    
C112  H21   S    
C108  H10   S    
C64   C114  S    
Cu24  O29   S    
Cu21  O19   S    
C120  C129  A    
C30   O91   A    
C34   C129  S    
C86   C95   A    
C34   O53   A    
C68   C69   A    
Cu9   O93   S    
C165  C174  S    
C42   O52   A    
C43   C181  S    
C65   C74   A    
C37   C131  S    
C151  C159  A    
C19   O66   A    
C126  C170  A    
C9    C121  S    
C160  O67   A    
Cu2   Cu12  S    
Cu22  O22   S    
C153  H51   S    
C63   C72   A    
C154  H52   S    
C44   C183  S    
C14   C178  S    
C145  C154  A    
C43   C55   T    
C139  H37   S    
Cu12  O46   S    
C14   H81   S    
C24   C106  S    
C175  H60   S    
Cu11  O68   S    
C122  C131  A    
C41   C135  S    
Cu5   O38   S    
C132  C141  A    
C38   O48   A    
Cu7   O40   S    
C180  H70   S    
C19   C158  S    
C108  C117  S    
C144  H42   S    
C32   O93   A    
Cu22  O51   S    
C127  O34   A    
C110  C119  S    
C77   C86   A    
C128  C172  A    
C21   O71   A    
C121  C165  A    
C49   C59   T    
C89   C98   A    
C81   C89   A    
C17   C156  S    
C13   C98   A    
C75   C149  S    
C35   C100  A    
C84   H56   S    
C88   F2    S    
C62   C71   A    
Cu1   O9    S    
C148  C157  A    
Cu23  O24   S    
C120  C164  A    
C116  O23   A    
C44   C54   T    
C183  O10   A    
C141  H39   S    
Cu5   O5    S    
Cu9   O62   S    
C91   C99   A    
C19   O69   A    
C138  O45   A    
Cu15  O87   S    
C16   C180  S    
C125  C134  A    
Cu2   O30   S    
C119  H35   S    
Cu13  O91   S    
C181  O27   A    
C39   O58   A    
C109  H14   S    
C5    O24   A    
Cu18  O16   S    
C74   C138  S    
Cu23  O78   S    
Cu10  O96   S    
C166  C175  S    
C17   O62   A    
C92   F5    S    
C46   C66   A    
Cu12  O13   S    
C128  C136  A    
C35   C65   A    
C41   O60   A    
C168  C177  S    
C3    O21   A    
C10   C175  S    
C179  H66   S    
Cu14  O85   S    
C91   F4    S    
C39   O49   A    
C190  O18   A    
C183  O28   A    
C22   O72   A    
C114  H24   S    
C146  C155  A    
C2    C97   A    
Cu16  Cu17  S    
C66   C117  S    
C158  C167  A    
C42   O61   A    
C93   F6    S    
C175  H58   S    
C47   C185  S    
Cu11  O66   S    
C176  H61   S    
C72   C81   A    
C51   C189  S    
C189  O17   A    
C172  C180  S    
C78   H1    S    
C24   C64   A    
C188  O33   A    
C31   O90   A    
C148  H47   S    
C32   O95   A    
C142  H40   S    
C25   O79   A    
C130  C139  A    
C6    C59   S    
C173  H53   S    
C57   C103  A    
C26   O80   A    
C50   C58   T    
C31   C102  S    
C7    O26   A    
Cu3   Cu18  S    
C118  H33   S    
C3    O39   A    
C73   C127  S    
Cu23  O52   S    
Cu1   O11   S    
C190  O36   A    
Cu8   O61   S    
Cu17  O77   S    
C1    O89   A    
C162  C170  A    
Cu4   O57   S    
Cu19  O17   S    
C133  C142  A    
C32   C103  S    
C145  H43   S    
C52   C190  S    
C146  H44   S    
C147  C156  A    
C53   C191  S    
C54   C192  S    
C143  C152  A    
C171  O8    A    
C20   C157  S    
C71   C105  S    
Cu9   O94   S    
Cu7   O42   S    
Cu5   O58   S    
C179  H69   S    
C73   C82   A    
C115  H27   S    
C39   C133  S    
C109  H16   S    
C28   C98   S    
C150  C158  A    
C17   O64   A    
C4    O40   A    
C11   C123  S    
C68   C104  A    
C96   C182  A    
C93   C102  A    
C72   C116  S    
C153  C162  A    
Cu5   Cu20  S    
C22   O74   A    
C110  H17   S    
C156  C165  A    
C66   C75   A    
Cu3   O55   S    
Cu18  O23   S    
C13   C63   A    
Cu21  O50   S    
Cu1   O1    S    
Cu15  O73   S    
C15   H86   S    
C62   C112  S    
C8    H73   S    
Cu4   O4    S    
C7    O43   A    
C101  H5    S    
Cu6   Cu21  S    
C27   O83   A    
C18   C155  S    
Cu1   O44   S    
C173  H55   S    
Cu24  O89   S    
C4    O22   A    
C111  H20   S    
C122  C166  A    
C1    O1    A    
C70   C78   A    
C24   C99   A    
Cu9   Cu10  S    
C90   C112  S    
C140  C148  A    
C10   H77   S    
Cu6   O39   S    
C11   H76   S    
Cu16  O75   S    
C83   C92   A    
C46   C102  A    
C139  C147  A    
C184  O29   A    
C14   C125  S    
C106  C114  S    
Cu17  O79   S    
Cu11  O90   S    
C36   O54   A    
C116  O3    A    
C177  H62   S    
Cu19  O15   S    
C113  H22   S    
C114  H26   S    
Cu22  O67   S    
C159  C168  A    
Cu6   O6    S    
C51   C56   T    
C144  C153  A    
C83   H45   S    
C41   O51   A    
Cu4   Cu19  S    
C112  H19   S    
C189  O35   A    
C106  H8    S    
C15   C126  S    
C49   C187  S    
Cu12  O12   S    
C136  C145  A    
C77   C171  S    
C123  C167  A    
C186  O31   A    
C127  O4    A    
C57   C67   A    
C79   H3    S    
C71   C80   A    
C48   C60   T    
C23   C163  S    
C85   H67   S    
C37   O55   A    
C21   C161  S    
C188  O16   A    
C154  C163  A    
Cu3   O33   S    
Cu4   O35   S    
C185  O30   A    
Cu17  O83   S    
C23   O77   A    
C110  H15   S    
C25   O76   A    
C18   O63   A    
C33   O96   A    
Cu18  O47   S    
C48   C186  S    
Cu5   O36   S    
C151  H49   S    
C117  H30   S    
C11   H79   S    
C12   C124  S    
Cu22  O25   S    
C25   C162  S    
C87   C96   A    
Cu21  O21   S    
C9    C174  S    
C101  H7    S    
Cu20  O45   S    
C16   C128  S    
C107  C115  S    
C27   O81   A    
Cu12  O10   S    
Cu14  O71   S    
C135  C144  A    
C174  H54   S    
C7    C60   S    
Cu18  O14   S    
C111  H18   S    
C94   F7    S    
Cu19  O48   S    
C13   C101  S    
C61   C111  S    
C169  C178  S    
Cu6   O37   S    
C95   C104  A    
C92   C100  A    
Cu1   Cu24  S    
C137  H36   S    
C8    C120  S    
C107  H11   S    
C76   C160  S    
C170  C179  S    
C61   C182  A    
C157  C166  A    
C126  C135  A    
C34   O44   A    
C28   O84   A    
C177  H64   S    
C178  H63   S    
C95   F8    S    
C79   C111  S    
C33   O94   A    
Cu7   O7    S    
C192  O20   A    
C161  C169  A    
C6    O25   A    
C152  H50   S    
Cu24  O27   S    
C149  O6    A    
Cu16  O80   S    
Cu24  O53   S    
Cu8   O8    S    
C12   C177  S    
C87   F1    S    
Cu4   O32   S    
C138  O5    A    
C149  O56   A    
Cu13  O69   S    
Cu19  O34   S    
C67   C76   A    
C8    C173  S    
C9    H72   S    
C2    C62   A    
C160  O7    A    
C167  C176  S    
