data_mof_unit_50295.cif
_audit_creation_date              2012-12-10T20:47:10-0500
_audit_creation_method            fapswitch 2.2
_symmetry_space_group_name_H-M    P1
_symmetry_Int_Tables_number       1
_space_group_crystal_system       triclinic
_cell_length_a                    10.695727
_cell_length_b                    8.929823
_cell_length_c                    8.102216
_cell_angle_alpha                 90.111624
_cell_angle_beta                  89.998418
_cell_angle_gamma                 89.99978
_cell_volume                      773.848870012

loop_
_atom_site_label
_atom_site_type_symbol
_atom_type_description
_atom_site_fract_x
_atom_site_fract_y
_atom_site_fract_z
_atom_type_partial_charge
C1    C     C_R   0.500000 0.217986 0.499863 0.935705
C2    C     C_R   0.065886 0.629777 0.611228 -0.171598
C3    C     C_R   0.128110 0.532539 0.499116 -0.008923
C4    C     C_R   0.871889 0.532545 0.499113 -0.008953
C5    C     C_R   0.063560 0.447460 0.383181 -0.226338
C6    C     C_R   0.936443 0.447465 0.383178 -0.226350
C7    C     C_1   0.500000 0.065178 0.499774 -0.161627
C8    C     C_1   0.500001 0.934795 0.500011 -0.115860
C9    C     C_3   0.185853 0.816187 0.070202 -0.157080
C10   C     C_3   0.814291 0.816128 0.070334 -0.157141
C11   C     C_R   0.500001 0.782025 0.500008 1.038763
C12   C     C_R   0.260008 0.511942 0.500180 0.938531
C13   C     C_R   0.739992 0.511949 0.500178 0.938501
C14   C     C_R   0.129828 0.730159 0.718430 0.421880
C15   C     C_R   0.870171 0.730148 0.718450 0.421927
C16   C     C_R   0.065139 0.810925 0.839672 0.319324
C17   C     C_R   0.934863 0.810917 0.839680 0.319381
C18   C     C_R   0.934112 0.629776 0.611232 -0.171649
F1    F     F_    0.252894 0.761129 0.700137 -0.653824
F2    F     F_    0.747097 0.761095 0.700208 -0.653743
H1    H     H_    0.111777 0.374900 0.296514 0.173147
H2    H     H_    0.888228 0.374910 0.296508 0.173152
H3    H     H_    0.261206 0.744651 0.017769 0.189451
H4    H     H_    0.116364 0.745836 0.136862 0.121888
H5    H     H_    0.229684 0.891806 0.162321 0.180171
H6    H     H_    0.739067 0.744325 0.017995 0.189261
H7    H     H_    0.770319 0.891733 0.162347 0.180224
H8    H     H_    0.883916 0.746034 0.137084 0.122013
N1    N     N_1   0.500000 0.500000 0.073640 -0.043200
N2    N     N_1   0.500000 0.500000 0.926360 -0.018470
O1    O     O_R   0.500000 0.285350 0.636850 -0.607289
O2    O     O_3   0.871535 0.904369 0.947299 -0.533988
O3    O     O_R   0.500000 0.714650 0.636850 -0.512773
O4    O     O_R   0.500000 0.285360 0.363100 -0.618429
O5    O     O_R   0.500000 0.714640 0.363100 -0.668356
O6    O     O_R   0.316770 0.500000 0.636900 -0.576485
O7    O     O_R   0.683230 0.500000 0.636900 -0.576446
O8    O     O_R   0.316780 0.500000 0.363150 -0.654675
O9    O     O_R   0.683220 0.500000 0.363150 -0.654686
O10   O     O_3   0.128455 0.904403 0.947276 -0.534045
Zn1   Zn    Zn3+2 0.500000 0.500000 0.682780 1.075163
Zn2   Zn    Zn3+2 0.500000 0.500000 0.317220 0.973449

loop_
_geom_bond_atom_site_label_1
_geom_bond_atom_site_label_2
_ccdc_geom_bond_type
C10   H7    S    
C15   C18   A    
C9    H4    S    
N1    N2    T    
N1    Zn2   S    
C12   O6    A    
C13   O7    A    
O4    Zn2   S    
C1    O1    A    
C4    C18   A    
C10   H6    S    
C11   O5    A    
C2    C3    A    
C9    H5    S    
C7    C8    T    
N2    Zn1   S    
O7    Zn1   S    
O6    Zn1   S    
C5    C6    A    
C16   O10   S    
C8    C11   S    
O5    Zn2   S    
C1    O4    A    
O8    Zn2   S    
O9    Zn2   S    
C12   O8    A    
C15   F2    S    
C2    C14   A    
C14   C16   A    
C13   O9    A    
C2    C18   A    
C6    H2    S    
C10   O2    S    
C11   O3    A    
C5    H1    S    
O3    Zn1   S    
C4    C6    A    
C10   H8    S    
C4    C13   S    
C15   C17   A    
C17   O2    S    
C9    H3    S    
C3    C12   S    
O1    Zn1   S    
C1    C7    S    
C14   F1    S    
C9    O10   S    
C16   C17   A    
C3    C5    A    
