data_mof_unit_5099.cif
_audit_creation_date              2012-12-10T17:58:58-0500
_audit_creation_method            fapswitch 2.2
_symmetry_space_group_name_H-M    P1
_symmetry_Int_Tables_number       1
_space_group_crystal_system       triclinic
_cell_length_a                    9.502263
_cell_length_b                    10.89711
_cell_length_c                    13.861514
_cell_angle_alpha                 90.64165
_cell_angle_beta                  85.949373
_cell_angle_gamma                 90.265834
_cell_volume                      1431.63519859

loop_
_atom_site_label
_atom_site_type_symbol
_atom_type_description
_atom_site_fract_x
_atom_site_fract_y
_atom_site_fract_z
_atom_type_partial_charge
C1    C     C_R   0.500817 0.737698 0.494152 0.885050
C2    C     C_R   0.499113 0.262046 0.504594 0.893473
C3    C     C_R   0.498397 0.127714 0.506940 -0.357580
C4    C     C_R   0.500816 0.871698 0.487898 -0.360847
C5    C     C_R   0.478691 0.501751 0.682866 0.818289
C6    C     C_R   0.521527 0.499909 0.317086 0.809990
C7    C     C_R   0.918407 0.573148 0.564348 0.590156
C8    C     C_R   0.080831 0.429926 0.433952 0.568350
C9    C     C_R   0.068845 0.570428 0.564773 -0.226217
C10   C     C_R   0.930895 0.428167 0.436405 -0.221712
C11   C     C_1   0.531581 0.491890 0.214485 -0.184327
C12   C     C_1   0.469971 0.514463 0.785149 -0.154913
C13   C     C_2   0.536653 0.464261 0.024556 0.383317
C14   C     C_2   0.468078 0.547502 0.974487 0.367087
C15   C     C_1   0.467287 0.528906 0.871027 -0.060486
C16   C     C_1   0.536221 0.480832 0.128247 -0.054091
C17   C     C_R   0.628973 0.937984 0.482065 0.242918
C18   C     C_R   0.370019 0.061510 0.510934 0.274988
C19   C     C_R   0.627819 0.063977 0.499065 0.354523
C20   C     C_R   0.370963 0.935551 0.494928 0.350914
Cu1   Cu    Cu3+1 0.359340 0.499980 0.500000 1.002472
Cu2   Cu    Cu3+1 0.640660 0.500020 0.500000 1.009334
H1    H     H_    0.123212 0.623241 0.617040 0.168495
H2    H     H_    0.876922 0.366961 0.389330 0.182539
N1    N     N_R   0.147930 0.499970 0.499980 -0.210129
N2    N     N_R   0.852070 0.500030 0.500020 -0.213749
O1    O     O_R   0.381260 0.680340 0.500000 -0.575742
O2    O     O_R   0.618740 0.319660 0.500000 -0.565996
O3    O     O_R   0.618830 0.680370 0.500010 -0.501289
O4    O     O_R   0.381170 0.319630 0.499990 -0.489992
O5    O     O_R   0.364420 0.499960 0.637840 -0.585270
O6    O     O_R   0.635580 0.500040 0.362160 -0.579156
O7    O     O_R   0.601990 0.499990 0.637850 -0.544777
O8    O     O_R   0.398010 0.500010 0.362150 -0.570455
O9    O     O_3   0.834140 0.637374 0.633704 -0.576751
C21   C     C_3   0.889438 0.753200 0.659252 0.068007
H3    H     H_    0.801851 0.820367 0.659060 0.180044
H4    H     H_    0.973929 0.788794 0.606880 0.179967
C22   C     C_3   0.938651 0.749401 0.762045 -0.390871
H5    H     H_    0.848957 0.721068 0.812915 0.234014
H6    H     H_    0.024110 0.681000 0.766245 0.212279
C23   C     C_3   0.992255 0.874667 0.793598 -0.922813
H7    H     H_    0.080488 0.906130 0.742864 0.284670
H8    H     H_    0.030823 0.868285 0.867146 0.255782
H9    H     H_    0.905477 0.942728 0.795596 0.254295
O10   O     O_3   0.159559 0.351204 0.372542 -0.550851
C24   C     C_3   0.137253 0.377124 0.274963 0.051391
H10   H     H_    0.170102 0.473148 0.257598 0.152349
H11   H     H_    0.025058 0.364319 0.259142 0.119241
C25   C     C_3   0.224746 0.288639 0.209146 -0.313088
H12   H     H_    0.337576 0.295822 0.224418 0.217116
H13   H     H_    0.189215 0.193231 0.224232 0.220101
C26   C     C_3   0.208938 0.315343 0.102604 -0.936797
H14   H     H_    0.098050 0.300715 0.084836 0.258752
H15   H     H_    0.277715 0.252759 0.056709 0.254410
H16   H     H_    0.239638 0.411592 0.086002 0.269738
O11   O     O_3   0.400808 0.646254 0.024335 -0.640648
C27   C     C_3   0.338054 0.731479 0.964032 0.064481
H17   H     H_    0.258936 0.784413 0.010149 0.161667
H18   H     H_    0.277243 0.686073 0.907747 0.141844
C28   C     C_3   0.448056 0.822591 0.920298 -0.361002
H19   H     H_    0.493785 0.875710 0.979544 0.220286
H20   H     H_    0.535297 0.772913 0.879374 0.219105
C29   C     C_3   0.382270 0.911296 0.852071 -0.910453
H21   H     H_    0.339734 0.860087 0.790688 0.265790
H22   H     H_    0.463822 0.976850 0.822679 0.253594
H23   H     H_    0.295853 0.964001 0.891295 0.259068
O12   O     O_3   0.608490 0.368103 0.974683 -0.629850
C30   C     C_3   0.630827 0.265049 0.033114 0.068135
H24   H     H_    0.629018 0.181996 0.985964 0.160111
H25   H     H_    0.544772 0.250912 0.090843 0.131754
C31   C     C_3   0.776004 0.272525 0.074704 -0.367510
H26   H     H_    0.859378 0.269375 0.014313 0.222797
H27   H     H_    0.787469 0.360357 0.114790 0.223345
C32   C     C_3   0.797380 0.166589 0.143220 -0.896157
H28   H     H_    0.716067 0.169224 0.204881 0.265091
H29   H     H_    0.902909 0.174574 0.172335 0.257332
H30   H     H_    0.790817 0.077319 0.104283 0.257216
Cl1   Cl    Cl    0.793593 0.870689 0.445091 -0.654138
Cl2   Cl    Cl    0.203663 0.129060 0.542631 -0.608718
O13   O     O_3   0.754605 0.125140 0.508158 -0.546783
C33   C     C_3   0.800210 0.107096 0.602387 0.111466
H31   H     H_    0.886617 0.038441 0.597607 0.210166
H32   H     H_    0.715557 0.073237 0.655896 0.085008
C34   C     C_3   0.856725 0.228226 0.641332 -0.279329
H33   H     H_    0.941338 0.264068 0.589894 0.260867
H34   H     H_    0.770294 0.296544 0.648593 0.234265
C35   C     C_3   0.915819 0.212679 0.739966 -0.893714
H35   H     H_    0.005953 0.147915 0.734427 0.286214
H36   H     H_    0.832718 0.177861 0.793266 0.246175
H37   H     H_    0.953754 0.302808 0.766129 0.265723
O14   O     O_3   0.242001 0.875649 0.492233 -0.562981
C36   C     C_3   0.216040 0.845014 0.395245 0.128358
H38   H     H_    0.138578 0.768184 0.397789 0.177825
H39   H     H_    0.311872 0.810838 0.352247 0.111379
C37   C     C_3   0.153090 0.953303 0.343530 -0.298320
H40   H     H_    0.061040 0.990455 0.388148 0.307459
H41   H     H_    0.233521 0.027137 0.333439 0.208774
C38   C     C_3   0.106125 0.914266 0.244647 -0.914078
H42   H     H_    0.197586 0.879745 0.197924 0.247829
H43   H     H_    0.060439 0.993995 0.208992 0.259266
H44   H     H_    0.024413 0.841149 0.252638 0.285142

loop_
_geom_bond_atom_site_label_1
_geom_bond_atom_site_label_2
_ccdc_geom_bond_type
C6    O6    A    
C36   H38   S    
Cu2   O3    S    
C28   C29   S    
O9    C21   S    
O13   C33   S    
C9    N1    A    
C24   H11   S    
C26   H14   S    
Cu1   O5    S    
C7    N2    A    
Cu2   O6    S    
Cu1   Cu2   S    
C21   H3    S    
C34   C35   S    
C27   H18   S    
C37   C38   S    
C17   Cl1   S    
C3    C18   A    
C30   H25   S    
C28   H20   S    
C24   H10   S    
O12   C30   S    
C37   H41   S    
C25   H13   S    
C35   H37   S    
C3    C19   A    
C22   C23   S    
C10   N2    A    
C27   C28   S    
C34   H34   S    
Cu1   O1    S    
C36   H39   S    
Cu2   O2    S    
C13   C14   D    
C8    N1    A    
C30   H24   S    
C23   H8    S    
Cu2   O7    S    
C31   C32   S    
C24   C25   S    
C26   H15   S    
C25   C26   S    
C29   H23   S    
C5    C12   S    
C31   H27   S    
C22   H5    S    
C9    H1    S    
Cu1   O8    S    
C10   H2    S    
C27   H17   S    
C34   H33   S    
C6    O8    A    
C5    O7    A    
C23   H9    S    
C29   H22   S    
C30   C31   S    
C32   H28   S    
C20   O14   S    
C11   C16   T    
C38   H42   S    
C12   C15   T    
C37   H40   S    
C1    O3    A    
C25   H12   S    
C32   H29   S    
C4    C17   A    
C18   Cl2   S    
C38   H43   S    
C35   H36   S    
C36   C37   S    
C33   H32   S    
C23   H7    S    
C6    C11   S    
C26   H16   S    
C7    C9    A    
C14   O11   S    
Cu1   N1    S    
O10   C24   S    
C7    O9    S    
C21   C22   S    
C31   H26   S    
C33   C34   S    
Cu1   O4    S    
C2    O4    A    
C1    C4    S    
C29   H21   S    
C21   H4    S    
C2    C3    S    
O11   C27   S    
O14   C36   S    
C17   C19   A    
C18   C20   A    
C28   H19   S    
C32   H30   S    
C8    O10   S    
C4    C20   A    
C38   H44   S    
C35   H35   S    
C22   H6    S    
C8    C10   A    
C33   H31   S    
Cu2   N2    S    
C13   C16   S    
C1    O1    A    
C14   C15   S    
C2    O2    A    
C19   O13   S    
C5    O5    A    
C13   O12   S    
