data_mof_unit_17818.cif
_audit_creation_date              2012-12-11T14:50:40-0500
_audit_creation_method            fapswitch 2.2
_symmetry_space_group_name_H-M    P1
_symmetry_Int_Tables_number       1
_space_group_crystal_system       triclinic
_cell_length_a                    11.055638
_cell_length_b                    11.161766
_cell_length_c                    18.723427
_cell_angle_alpha                 89.546011
_cell_angle_beta                  89.819232
_cell_angle_gamma                 59.878843
_cell_volume                      1998.4227272

loop_
_atom_site_label
_atom_site_type_symbol
_atom_type_description
_atom_site_fract_x
_atom_site_fract_y
_atom_site_fract_z
_atom_type_partial_charge
C1    C     C_R   0.242164 0.642823 0.610282 0.527947
C2    C     C_3   0.720656 0.498762 0.811385 0.527281
C3    C     C_3   0.684929 0.653727 0.818647 0.097761
C4    C     C_3   0.644413 0.611272 0.684980 -0.051130
C5    C     C_3   0.743975 0.671368 0.686170 0.134337
C6    C     C_3   0.703524 0.474649 0.729898 -0.217128
C7    C     C_R   0.799495 0.117772 0.702023 -0.178696
C8    C     C_R   0.818576 0.072738 0.772923 -0.209291
C9    C     C_R   0.715827 0.063597 0.810749 0.019248
C10   C     C_R   0.598649 0.077847 0.772471 0.273837
C11   C     C_R   0.590453 0.102941 0.699148 -0.086467
C12   C     C_R   0.626262 0.585136 0.608743 0.568399
C13   C     C_R   0.679822 0.140534 0.666172 -0.026638
C14   C     C_R   0.266555 0.534770 0.730101 -0.147731
C15   C     C_R   0.244759 0.548923 0.804236 0.247467
C16   C     C_R   0.177963 0.682132 0.833237 0.123465
C17   C     C_R   0.151510 0.795875 0.788809 0.273854
C18   C     C_R   0.142978 0.782731 0.715459 -0.147400
C19   C     C_R   0.206187 0.652668 0.685490 -0.072713
C20   C     C_R   0.719945 0.525222 0.268595 0.274299
C21   C     C_R   0.702008 0.543167 0.195428 0.231282
C22   C     C_R   0.643605 0.677063 0.167016 -0.017193
C23   C     C_R   0.630568 0.223092 0.600710 0.523847
C24   C     C_R   0.565662 0.794181 0.211208 0.213929
C25   C     C_R   0.568421 0.773335 0.285339 -0.202188
C26   C     C_R   0.647985 0.640764 0.314261 -0.066324
C27   C     C_R   0.520068 0.259801 0.277138 -0.189190
C28   C     C_R   0.534274 0.229889 0.205747 -0.202108
C29   C     C_R   0.666595 0.141473 0.178938 0.016543
C30   C     C_R   0.786387 0.080583 0.224721 0.312631
C31   C     C_R   0.767898 0.096126 0.298097 0.292905
C32   C     C_R   0.635892 0.190774 0.322999 0.035775
C33   C     C_R   0.265024 0.701006 0.279188 -0.131518
C34   C     C_R   0.228701 0.647217 0.399851 0.549466
C35   C     C_R   0.244142 0.702804 0.206859 -0.139047
C36   C     C_R   0.151190 0.663389 0.181416 0.056091
C37   C     C_R   0.087906 0.611265 0.227597 -0.118411
C38   C     C_R   0.110171 0.608496 0.300298 -0.123928
C39   C     C_R   0.194395 0.658167 0.325881 0.065603
C40   C     C_R   0.727575 0.038827 0.889269 0.561170
C41   C     C_R   0.718494 0.684034 0.891047 0.560975
C42   C     C_R   0.115550 0.710000 0.905058 0.556158
C43   C     C_R   0.679440 0.098446 0.105790 0.560462
C44   C     C_R   0.694600 0.692004 0.097411 0.560672
C45   C     C_R   0.639769 0.618116 0.390397 0.571308
C46   C     C_R   0.093785 0.708001 0.111611 0.555861
C47   C     C_R   0.615659 0.231100 0.395661 0.585601
C48   C     C_3   0.528176 0.750056 0.797872 0.088342
C49   C     C_3   0.504495 0.715356 0.720710 -0.213662
C50   C     C_3   0.778837 0.682915 0.765111 0.116035
Cr1   Cr    Cr6+3 0.392930 0.397900 0.502230 0.992206
Cr2   Cr    Cr6+3 0.398240 0.708600 0.501260 0.998384
Cr3   Cr    Cr6+3 0.708800 0.393470 0.496460 1.003253
Cr4   Cr    Cr6+3 0.937620 0.938540 0.007640 1.003896
Cr5   Cr    Cr6+3 0.625150 0.937450 0.994520 1.023431
Cr6   Cr    Cr6+3 0.937990 0.625080 0.001190 1.053277
H1    H     H_    0.506849 0.856838 0.794785 0.171688
H2    H     H_    0.800630 0.392704 0.705361 0.094092
H3    H     H_    0.838064 0.598830 0.655719 0.137730
H4    H     H_    0.873691 0.140536 0.676570 0.120384
H5    H     H_    0.906918 0.055942 0.801254 0.193431
H6    H     H_    0.324955 0.433390 0.706663 0.126712
H7    H     H_    0.417573 0.335418 0.296890 0.151487
H8    H     H_    0.434555 0.671037 0.721626 0.156749
H9    H     H_    0.293633 0.742438 0.171251 0.103759
H10   H     H_    0.059335 0.572425 0.336809 0.100367
H11   H     H_    0.452769 0.811668 0.687965 0.156185
O1    O     O_R   0.507430 0.255570 0.581420 -0.535733
O2    O     O_R   0.524460 0.695920 0.424060 -0.512275
O3    O     O_R   0.736530 0.504260 0.414810 -0.475674
O4    O     O_R   0.691460 0.277160 0.422180 -0.486951
O5    O     O_3   0.499990 0.499990 0.499980 -0.282456
O6    O     O_R   0.089490 0.825610 0.930610 -0.515155
O7    O     O_R   0.818370 0.054540 0.929880 -0.532119
O8    O     O_R   0.605870 0.077310 0.915530 -0.487230
O9    O     O_R   0.646440 0.806700 0.917570 -0.549759
O10   O     O_R   0.837200 0.593290 0.915250 -0.433520
O11   O     O_R   0.065330 0.635370 0.931590 -0.452374
O12   O     O_R   0.280190 0.527390 0.578910 -0.507651
O13   O     O_R   0.068300 0.828790 0.091860 -0.493387
O14   O     O_R   0.798730 0.057480 0.079370 -0.489964
O15   O     O_R   0.584680 0.080480 0.076790 -0.493555
O16   O     O_R   0.626790 0.809640 0.067050 -0.470599
O17   O     O_R   0.816010 0.596460 0.076500 -0.499670
O18   O     O_R   0.045680 0.638310 0.081070 -0.525217
O19   O     O_3   0.833590 0.833690 0.001120 -0.289091
O20   O     O_R   0.260310 0.739740 0.584580 -0.538147
O21   O     O_R   0.532250 0.695150 0.573830 -0.465476
O22   O     O_R   0.744930 0.503430 0.576380 -0.547185
O23   O     O_R   0.699250 0.276390 0.571950 -0.523439
O24   O     O_R   0.499020 0.256400 0.419850 -0.534377
O25   O     O_R   0.272400 0.528160 0.429140 -0.511436
O26   O     O_R   0.251910 0.740570 0.423020 -0.538611
O27   O     O_3   0.924188 0.610439 0.784187 -0.538719
C51   C     C_3   0.012589 0.488903 0.745087 -0.059944
H12   H     H_    0.964692 0.429405 0.727195 0.100702
H13   H     H_    0.098608 0.415913 0.779769 0.198969
H14   H     H_    0.054244 0.514836 0.697333 0.092788
O28   O     O_3   0.496210 0.063179 0.807831 -0.574918
C52   C     C_3   0.360459 0.154586 0.782222 -0.143836
H15   H     H_    0.332950 0.103771 0.739860 0.078712
H16   H     H_    0.348615 0.251409 0.760078 0.146206
H17   H     H_    0.286702 0.183918 0.827592 0.159827
H18   H     H_    0.505958 0.105087 0.669093 0.151749
O29   O     O_3   0.271308 0.435669 0.845882 -0.603950
C53   C     C_3   0.388504 0.398302 0.889171 -0.077036
H19   H     H_    0.380182 0.487436 0.919415 0.112259
H20   H     H_    0.484855 0.348330 0.856199 0.183959
H21   H     H_    0.395144 0.321858 0.929365 0.166221
O30   O     O_3   0.130187 0.917755 0.819406 -0.572478
C54   C     C_3   0.169274 0.994482 0.774617 -0.152524
H22   H     H_    0.093118 0.049075 0.731315 0.078626
H23   H     H_    0.271718 0.930416 0.750871 0.145225
H24   H     H_    0.175502 0.071475 0.807856 0.111496
O31   O     O_3   0.434925 0.736644 0.845783 -0.550000
C55   C     C_3   0.389348 0.832966 0.902804 -0.067764
H25   H     H_    0.381551 0.933701 0.889279 0.137552
H26   H     H_    0.453879 0.786243 0.951066 0.115306
H27   H     H_    0.284850 0.857076 0.920112 0.188790
H28   H     H_    0.100367 0.872509 0.680697 0.131566
O32   O     O_3   0.807978 0.393075 0.294698 -0.531595
C56   C     C_3   0.944827 0.372997 0.295974 -0.108617
H29   H     H_    0.982147 0.377565 0.241287 0.126172
H30   H     H_    0.018192 0.269398 0.318374 0.085672
H31   H     H_    0.950578 0.449366 0.331226 0.120525
O33   O     O_3   0.760420 0.427394 0.152253 -0.551560
C57   C     C_3   0.652689 0.427933 0.111781 -0.132854
H32   H     H_    0.602615 0.517713 0.074698 0.076493
H33   H     H_    0.571014 0.428983 0.146883 0.116505
H34   H     H_    0.698461 0.333487 0.078729 0.131258
O34   O     O_3   0.503469 0.926881 0.181704 -0.512636
C58   C     C_3   0.370437 0.015543 0.211491 -0.122402
H35   H     H_    0.308147 0.099080 0.172279 0.131828
H36   H     H_    0.380833 0.065713 0.260241 0.123153
H37   H     H_    0.311163 0.961334 0.223430 0.079713
H38   H     H_    0.514090 0.860364 0.320958 0.140622
H39   H     H_    0.443095 0.277722 0.171317 0.130862
O35   O     O_3   0.919807 0.994978 0.199323 -0.518514
C59   C     C_3   0.982287 0.076577 0.185212 -0.066643
H40   H     H_    0.931009 0.149221 0.139851 0.166178
H41   H     H_    0.093147 0.007422 0.170529 0.120890
H42   H     H_    0.980997 0.136193 0.232351 0.108832
O36   O     O_3   0.865787 0.998119 0.344534 -0.563745
C60   C     C_3   0.966966 0.033244 0.364042 -0.091799
H43   H     H_    0.004516 0.992289 0.418595 0.146975
H44   H     H_    0.926074 0.146386 0.365896 0.146068
H45   H     H_    0.058322 0.982562 0.327809 0.139908
H46   H     H_    0.335915 0.733596 0.298766 0.126131
H47   H     H_    0.013684 0.582707 0.208139 0.126508
H48   H     H_    0.746657 0.793562 0.772749 0.160182
O37   O     O_3   0.677546 0.804506 0.652820 -0.587181
C61   C     C_3   0.769825 0.817951 0.605384 -0.109825
H49   H     H_    0.804860 0.739932 0.562025 0.141773
H50   H     H_    0.861218 0.809547 0.634689 0.123276
H51   H     H_    0.713500 0.921059 0.579169 0.150670
O38   O     O_3   0.860946 0.414063 0.834982 -0.555716
C62   C     C_3   0.906065 0.273557 0.838250 -0.120069
H52   H     H_    0.937327 0.233010 0.784169 0.098313
H53   H     H_    0.827607 0.250592 0.860680 0.174407
H54   H     H_    0.997590 0.223873 0.874456 0.142653
O39   O     O_3   0.624622 0.473086 0.850963 -0.569059
C63   C     C_3   0.643162 0.463124 0.926257 -0.103343
H55   H     H_    0.745573 0.444100 0.945848 0.171073
H56   H     H_    0.633786 0.374218 0.945914 0.093626
H57   H     H_    0.558821 0.556701 0.951653 0.120114
H58   H     H_    0.629808 0.434462 0.725131 0.128622

loop_
_geom_bond_atom_site_label_1
_geom_bond_atom_site_label_2
_ccdc_geom_bond_type
C1    O20   A    
C6    H58   S    
O33   C57   S    
C30   O35   S    
C16   C42   S    
C59   H41   S    
C6    H2    S    
C51   H12   S    
C34   O26   A    
C44   O16   A    
C17   O30   S    
O39   C63   S    
C51   H14   S    
C7    C8    A    
C33   C39   A    
C53   H20   S    
C28   C29   A    
C37   C38   A    
C41   O10   A    
C38   C39   A    
C59   H42   S    
C53   H19   S    
C35   H9    S    
O36   C60   S    
Cr4   O6    S    
C3    C48   S    
Cr6   O11   S    
C55   H25   S    
C13   C23   S    
C18   C19   A    
C25   H38   S    
O30   C54   S    
C53   H21   S    
Cr2   O2    S    
C26   C45   S    
Cr1   O24   S    
Cr4   O7    S    
C62   H52   S    
C22   C44   S    
C38   H10   S    
C55   H26   S    
C16   C17   A    
O37   C61   S    
C36   C46   S    
C11   H18   S    
C4    C12   S    
C9    C10   A    
Cr4   O13   S    
C8    H5    S    
C46   O18   A    
Cr5   O8    S    
C27   C32   A    
C62   H53   S    
C49   H8    S    
C21   C22   A    
C29   C43   S    
C2    C6    S    
C60   H45   S    
Cr3   O3    S    
C2    O39   S    
C3    C50   S    
Cr6   O17   S    
C63   H56   S    
C1    C19   S    
O32   C56   S    
C15   C16   A    
C12   O21   A    
C45   O2    A    
C34   C39   S    
C55   H27   S    
C12   O22   A    
Cr2   O21   S    
C24   C25   A    
C4    C6    S    
C10   C11   A    
Cr4   O19   S    
C5    H3    S    
C50   O27   S    
C58   H36   S    
C25   C26   A    
C9    C40   S    
Cr6   O10   S    
C35   C36   A    
C23   O1    A    
C57   H33   S    
C29   C30   A    
Cr2   O5    S    
C33   H46   S    
Cr1   O25   S    
C63   H57   S    
C50   H48   S    
Cr6   O19   S    
C31   C32   A    
C61   H51   S    
C7    C13   A    
C52   H16   S    
C17   C18   A    
C8    C9    A    
C23   O23   A    
Cr2   O26   S    
C54   H23   S    
C20   C21   A    
Cr5   O15   S    
C47   O4    A    
C20   O32   S    
C27   H7    S    
C48   O31   S    
Cr5   O9    S    
C60   H44   S    
C48   C49   S    
C61   H50   S    
C42   O11   A    
C62   H54   S    
Cr3   O22   S    
C1    O12   A    
C32   C47   S    
C22   C24   A    
C5    C50   S    
Cr1   O5    S    
Cr5   O16   S    
O34   C58   S    
Cr3   O4    S    
C18   H28   S    
C7    H4    S    
C27   C28   A    
C63   H55   S    
O38   C62   S    
C42   O6    A    
C2    O38   S    
C49   H11   S    
C54   H22   S    
C45   O3    A    
C47   O24   A    
C14   C19   A    
Cr2   O20   S    
C28   H39   S    
C37   H47   S    
C60   H43   S    
C44   O17   A    
C59   H40   S    
C51   H13   S    
O29   C53   S    
C5    O37   S    
C40   O8    A    
C4    C49   S    
C15   O29   S    
C56   H31   S    
C2    C3    S    
C21   O33   S    
C57   H34   S    
O28   C52   S    
C41   O9    A    
C46   O13   A    
C11   C13   A    
C24   O34   S    
Cr6   O18   S    
C30   C31   A    
C20   C26   A    
Cr5   O19   S    
C58   H37   S    
C43   O14   A    
C52   H15   S    
C33   C35   A    
C40   O7    A    
C58   H35   S    
C54   H24   S    
Cr1   O1    S    
C52   H17   S    
C31   O36   S    
C10   O28   S    
Cr1   O12   S    
C3    C41   S    
O35   C59   S    
C4    C5    S    
C48   H1    S    
C61   H49   S    
C36   C37   A    
Cr3   O23   S    
C43   O15   A    
C14   C15   A    
O31   C55   S    
C56   H29   S    
Cr3   O5    S    
C56   H30   S    
O27   C51   S    
Cr4   O14   S    
C57   H32   S    
C34   O25   A    
C14   H6    S    
