data_mof_unit_17594.cif
_audit_creation_date              2012-12-11T16:31:24-0500
_audit_creation_method            fapswitch 2.2
_symmetry_space_group_name_H-M    P1
_symmetry_Int_Tables_number       1
_space_group_crystal_system       triclinic
_cell_length_a                    7.029335
_cell_length_b                    18.554952
_cell_length_c                    20.010944
_cell_angle_alpha                 68.191664
_cell_angle_beta                  90.415569
_cell_angle_gamma                 90.727629
_cell_volume                      2423.00891748

loop_
_atom_site_label
_atom_site_type_symbol
_atom_type_description
_atom_site_fract_x
_atom_site_fract_y
_atom_site_fract_z
_atom_type_partial_charge
O1    O     O_R   0.488990 0.443920 0.942160 -0.538891
O2    O     O_R   0.823840 0.406530 0.087600 -0.538484
O3    O     O_R   0.999650 0.556080 0.057840 -0.529888
C1    C     C_R   0.655817 0.384714 0.115608 0.777355
O4    O     O_R   0.818390 0.434590 0.944530 -0.546212
O5    O     O_R   0.994160 0.584350 0.913750 -0.535482
C2    C     C_R   0.649370 0.423512 0.922125 0.712893
O6    O     O_R   0.494480 0.415650 0.086250 -0.531410
O7    O     O_3   0.662600 0.549100 0.990070 -0.365083
V1    V     V_3+5 0.935320 0.490890 0.001840 1.434336
O8    O     O_R   0.324240 0.593470 0.912400 -0.540008
C3    C     C_R   0.155896 0.615257 0.884485 0.686640
O9    O     O_R   0.329690 0.565410 0.055470 -0.533776
C4    C     C_R   0.161385 0.578818 0.076292 0.716314
V2    V     V_3+5 0.435990 0.509110 0.998160 1.442532
O10   O     O_3   0.158840 0.450900 0.009930 -0.373884
C5    C     C_3   0.928815 0.697977 0.245840 -0.371152
C6    C     C_3   0.285881 0.672043 0.273633 0.033182
C7    C     C_3   0.289693 0.720689 0.324034 0.237478
H1    H     H_    0.877113 0.636811 0.266551 0.149313
H2    H     H_    0.426843 0.680746 0.246341 0.116219
H3    H     H_    0.424909 0.753701 0.312340 0.098869
C8    C     C_1   0.113458 0.869016 0.383976 -0.221997
C9    C     C_3   0.130830 0.702380 0.212730 0.076650
C10   C     C_3   0.929792 0.732828 0.306585 0.623694
C11   C     C_3   0.124007 0.781577 0.301032 0.018174
C12   C     C_3   0.180152 0.835436 0.220316 0.251340
C13   C     C_3   0.169970 0.789318 0.169588 -0.460264
C14   C     C_1   0.120426 0.828366 0.348162 -0.004161
C15   C     C_1   0.139897 0.658522 0.163263 0.032165
C16   C     C_1   0.151233 0.622722 0.123250 -0.201225
H4    H     H_    0.057080 0.813292 0.128145 0.192464
H5    H     H_    0.306220 0.796431 0.139518 0.128735
H6    H     H_    0.825499 0.729258 0.202840 0.134050
H7    H     H_    0.332757 0.850819 0.218787 0.048988
H8    H     H_    0.197447 0.531879 0.679993 0.119480
C17   C     C_R   0.093765 0.767798 0.883602 -0.127236
C18   C     C_R   0.038736 0.837894 0.886598 -0.206869
C19   C     C_R   0.998704 0.899912 0.823760 -0.197441
C20   C     C_R   0.025637 0.895205 0.756186 0.440400
C21   C     C_R   0.084604 0.823785 0.751413 -0.019148
C22   C     C_R   0.110428 0.758301 0.817014 0.021502
C23   C     C_R   0.113318 0.815010 0.684164 -0.168360
C24   C     C_R   0.142254 0.739722 0.683342 0.060383
C25   C     C_R   0.158460 0.674332 0.749074 0.070117
C26   C     C_R   0.146720 0.683962 0.815808 -0.153624
C27   C     C_R   0.146893 0.727495 0.617636 -0.134354
C28   C     C_R   0.163482 0.653035 0.616914 -0.130456
C29   C     C_R   0.183264 0.589525 0.680973 -0.124289
C30   C     C_R   0.182119 0.599789 0.746462 -0.142268
H9    H     H_    0.118294 0.720546 0.934385 0.104085
H10   H     H_    0.020220 0.843309 0.938199 0.132924
H11   H     H_    0.941141 0.951471 0.828021 0.108694
H12   H     H_    0.131896 0.774876 0.566246 0.086437
H13   H     H_    0.158350 0.644465 0.566398 0.132856
H14   H     H_    0.196315 0.548510 0.794943 0.096435
C31   C     C_R   0.734958 0.232857 0.120988 -0.221323
C32   C     C_R   0.763584 0.160567 0.117997 0.138513
C33   C     C_R   0.709957 0.093555 0.176480 0.407781
C34   C     C_R   0.663951 0.099700 0.242719 0.056748
C35   C     C_R   0.652798 0.174299 0.248631 0.019778
C36   C     C_R   0.676141 0.241681 0.184793 -0.049236
C37   C     C_R   0.619896 0.183981 0.315272 -0.103930
C38   C     C_R   0.609241 0.260029 0.316710 -0.053931
C39   C     C_R   0.628773 0.327220 0.252313 0.025625
C40   C     C_R   0.650233 0.317160 0.185400 -0.108078
C41   C     C_R   0.582467 0.269827 0.382723 -0.181756
C42   C     C_R   0.587530 0.342550 0.387653 0.181973
C43   C     C_R   0.622963 0.409028 0.325697 0.191929
C44   C     C_R   0.636767 0.402017 0.258032 0.137684
H15   H     H_    0.767699 0.282139 0.072571 0.151764
H16   H     H_    0.560462 0.220631 0.432424 0.130504
O11   O     O_R   0.770890 0.084490 0.414040 -0.533304
O12   O     O_R   0.445980 0.065450 0.555510 -0.557550
O13   O     O_R   0.270670 0.915620 0.586180 -0.551015
C45   C     C_R   0.615077 0.078891 0.576751 0.728639
O14   O     O_R   0.441480 0.093500 0.412450 -0.537814
O15   O     O_R   0.266140 0.943870 0.442100 -0.530649
C46   C     C_R   0.610121 0.115744 0.384687 0.774649
O16   O     O_R   0.775410 0.056240 0.558120 -0.522954
O17   O     O_3   0.602660 0.950990 0.510100 -0.363978
V3    V     V_3+5 0.329740 0.009100 0.498130 1.417834
O18   O     O_R   0.936120 0.934420 0.444240 -0.537064
C47   C     C_R   0.104600 0.918800 0.425582 0.704083
O19   O     O_R   0.940610 0.906370 0.587310 -0.514510
C48   C     C_R   0.108523 0.883111 0.614627 0.749407
V4    V     V_3+5 0.829110 0.990690 0.501470 1.469975
O20   O     O_3   0.106080 0.049010 0.489880 -0.385371
C49   C     C_3   0.864297 0.239931 0.713179 0.702109
C50   C     C_3   0.539769 0.291192 0.667541 -0.008338
C51   C     C_3   0.557899 0.345597 0.711561 -0.543231
H17   H     H_    0.602045 0.323312 0.613629 0.192836
H18   H     H_    0.641028 0.398489 0.680498 0.173926
H19   H     H_    0.416048 0.367752 0.718792 0.197683
C52   C     C_1   0.640715 0.383457 0.872544 -0.215789
C53   C     C_3   0.650397 0.212630 0.705746 -0.066172
C54   C     C_3   0.865274 0.280032 0.772995 0.551932
C55   C     C_3   0.650245 0.301092 0.786204 -0.010443
C56   C     C_3   0.520552 0.226515 0.820262 0.002387
C57   C     C_3   0.567286 0.168677 0.784103 0.334184
C58   C     C_1   0.641643 0.348657 0.831866 -0.010548
C59   C     C_1   0.635111 0.163011 0.660719 0.097800
C60   C     C_1   0.625230 0.124357 0.622810 -0.185525
H20   H     H_    0.679542 0.135137 0.819421 0.073300
H21   H     H_    0.369435 0.242853 0.808805 0.201031
N1    N     N_3   0.927821 0.666572 0.375794 -0.622922
H22   H     H_    0.808032 0.631416 0.378891 0.208562
H23   H     H_    0.916337 0.687205 0.417687 0.248964
O21   O     O_3   0.756942 0.771882 0.307328 -0.601457
C61   C     C_3   0.739409 0.847782 0.257589 -0.188655
H24   H     H_    0.754830 0.851083 0.201411 0.183302
H25   H     H_    0.829826 0.888046 0.272758 0.217611
H26   H     H_    0.596507 0.868158 0.263384 0.121593
O22   O     O_3   0.963285 0.956641 0.696597 -0.567204
C62   C     C_3   0.103979 0.015772 0.673759 -0.230628
H27   H     H_    0.228868 0.007841 0.710430 0.112963
H28   H     H_    0.036647 0.072377 0.663335 0.166633
H29   H     H_    0.156561 0.020758 0.620969 0.197176
N2    N     N_3   0.650850 0.484426 0.329554 -0.683957
H30   H     H_    0.621059 0.484539 0.380412 0.221013
H31   H     H_    0.795500 0.498273 0.321041 0.218789
N3    N     N_3   0.857529 0.156804 0.056231 -0.692006
H32   H     H_    0.970193 0.117927 0.073462 0.245183
H33   H     H_    0.761732 0.136420 0.027469 0.232302
O23   O     O_3   0.722633 0.020313 0.173391 -0.563961
C63   C     C_3   0.603508 0.012755 0.118982 -0.279379
H34   H     H_    0.692670 0.007834 0.075388 0.168948
H35   H     H_    0.498624 0.060324 0.095969 0.122934
H36   H     H_    0.521759 0.957771 0.141484 0.146570
N4    N     N_3   0.629725 0.029405 0.303482 -0.653775
H37   H     H_    0.516900 0.999198 0.291448 0.228013
H38   H     H_    0.751244 0.995160 0.312632 0.237941
N5    N     N_3   0.558820 0.346712 0.456945 -0.694042
H39   H     H_    0.440297 0.381192 0.454194 0.235677
H40   H     H_    0.678746 0.372460 0.470300 0.219702
N6    N     N_3   0.666008 0.471613 0.195819 -0.657511
H41   H     H_    0.794538 0.497699 0.201601 0.233352
H42   H     H_    0.555113 0.509881 0.192423 0.257161
N7    N     N_3   0.989033 0.350790 0.747632 -0.673401
H43   H     H_    0.979682 0.381707 0.781700 0.207150
H44   H     H_    0.945855 0.390667 0.697841 0.235526
O24   O     O_3   0.919613 0.299033 0.645940 -0.582597
C64   C     C_3   0.952387 0.272359 0.588995 -0.241345
H45   H     H_    0.031766 0.217151 0.605384 0.198872
H46   H     H_    0.038014 0.316890 0.547051 0.155821
H47   H     H_    0.818376 0.267340 0.561926 0.138749
N8    N     N_3   0.341967 0.277512 0.653729 -0.580859
H48   H     H_    0.290437 0.329931 0.616875 0.243277
H49   H     H_    0.265732 0.267030 0.700576 0.329246
O25   O     O_3   0.408408 0.120148 0.784973 -0.515329
C65   C     C_3   0.444673 0.042346 0.831542 -0.233998
H50   H     H_    0.473042 0.038643 0.887529 0.154550
H51   H     H_    0.565239 0.017985 0.811428 0.119707
H52   H     H_    0.320621 0.004272 0.834215 0.134764
N9    N     N_3   0.533750 0.188748 0.898937 -0.689636
H53   H     H_    0.675123 0.179386 0.914724 0.265983
H54   H     H_    0.474705 0.224304 0.923251 0.230709
O26   O     O_3   0.009838 0.182098 0.729802 -0.535450
C66   C     C_3   0.969674 0.106180 0.777707 -0.223062
H55   H     H_    0.846818 0.079262 0.761131 0.096023
H56   H     H_    0.968152 0.100112 0.834820 0.180593
H57   H     H_    0.088897 0.070775 0.775243 0.198648
O27   O     O_3   0.941118 0.223812 0.837718 -0.568730
C67   C     C_3   0.028989 0.252358 0.886998 -0.223194
H58   H     H_    0.926840 0.281084 0.910352 0.156737
H59   H     H_    0.153250 0.290592 0.863828 0.150080
H60   H     H_    0.085315 0.201988 0.932387 0.177615
N10   N     N_3   0.263960 0.588181 0.313685 -0.622068
H61   H     H_    0.136257 0.575784 0.342094 0.273816
H62   H     H_    0.373397 0.570018 0.351568 0.270463
O28   O     O_3   0.281009 0.671419 0.398246 -0.532137
C68   C     C_3   0.423344 0.690071 0.439454 -0.232187
H63   H     H_    0.402636 0.748905 0.440361 0.148494
H64   H     H_    0.566803 0.685382 0.419468 0.164118
H65   H     H_    0.416419 0.647340 0.495416 0.147981
O29   O     O_3   0.073559 0.904527 0.190008 -0.543421
C69   C     C_3   0.157936 0.968816 0.201482 -0.184880
H66   H     H_    0.191867 0.014478 0.148632 0.144419
H67   H     H_    0.287983 0.955776 0.235397 0.092747
H68   H     H_    0.054663 0.993200 0.228698 0.167010

loop_
_geom_bond_atom_site_label_1
_geom_bond_atom_site_label_2
_ccdc_geom_bond_type
C64   H47   S    
O18   V4    S    
V4    O20   S    
C20   C21   A    
C63   H34   S    
C53   C59   S    
N9    H54   S    
C6    H2    S    
C21   C22   A    
O2    C1    A    
N8    H48   S    
C4    C16   S    
C1    O6    A    
O17   V3    S    
C50   C51   S    
C31   C36   A    
C37   C46   S    
O19   C48   A    
C68   H63   S    
C19   H11   S    
C11   C12   S    
C17   C18   A    
O12   C45   A    
O18   C47   A    
C6    C9    S    
C8    C14   T    
C42   N5    S    
N8    H49   S    
C7    O28   S    
C41   H16   S    
O16   V4    S    
C66   H55   S    
O5    C3    A    
C18   C19   A    
C17   H9    S    
V3    O20   S    
C18   H10   S    
N1    H22   S    
V2    O10   S    
C55   C56   S    
C57   H20   S    
C5    H1    S    
C6    C7    S    
C22   C26   A    
C65   H52   S    
C17   C22   A    
C35   C37   A    
C7    C11   S    
C61   H24   S    
O11   V4    S    
O8    V2    S    
C20   O22   S    
C27   C28   A    
C42   C43   A    
C54   O27   S    
C56   N9    S    
C65   H50   S    
C66   H56   S    
O1    V2    S    
C49   O24   S    
O7    V1    S    
C35   C36   A    
C68   H65   S    
C10   O21   S    
C62   H29   S    
C45   C60   S    
O19   V4    S    
C28   H13   S    
C33   C34   A    
O9    C4    A    
C65   H51   S    
C44   N6    S    
C21   C23   A    
C67   H58   S    
C43   C44   A    
O12   V3    S    
C68   H64   S    
C10   N1    S    
C54   C55   S    
C61   H25   S    
N2    H31   S    
C56   H21   S    
C32   N3    S    
C5    C9    S    
C8    C47   S    
C36   C40   A    
C41   C42   A    
C38   C41   A    
C9    C13   S    
C49   O26   S    
C7    H3    S    
O14   C46   A    
C3    C26   S    
C34   N4    S    
C19   C20   A    
O4    C2    A    
C6    N10   S    
C63   H36   S    
C62   H28   S    
C10   C11   S    
C25   C26   A    
C43   N2    S    
C30   H14   S    
C49   C54   S    
C34   C35   A    
O26   C66   S    
N4    H38   S    
C23   C24   A    
C50   N8    S    
O15   C47   A    
C51   H18   S    
C12   H7    S    
O15   V3    S    
O13   C48   A    
C50   H17   S    
C56   C57   S    
C61   H26   S    
C13   H4    S    
C15   C16   T    
N7    H43   S    
C69   H68   S    
O11   C46   A    
C66   H57   S    
C31   H15   S    
C50   C53   S    
O28   C68   S    
O17   V4    S    
O3    C4    A    
C27   H12   S    
N6    H42   S    
O29   C69   S    
C13   H5    S    
C29   C30   A    
O6    V2    S    
O9    V2    S    
O23   C63   S    
C5    H6    S    
N3    H33   S    
O2    V1    S    
N9    H53   S    
C24   C25   A    
C64   H46   S    
N10   H61   S    
C63   H35   S    
O1    C2    A    
C23   C48   S    
C67   H60   S    
C45   O16   A    
N6    H41   S    
C12   O29   S    
O5    V1    S    
N2    H30   S    
C24   C27   A    
O13   V3    S    
O22   C62   S    
C33   O23   S    
C55   C58   S    
C2    C52   S    
O25   C65   S    
C57   O25   S    
C38   C39   A    
C49   C53   S    
C67   H59   S    
C64   H45   S    
C32   C33   A    
C5    C10   S    
O4    V1    S    
O3    V1    S    
V1    O10   S    
O21   C61   S    
C51   H19   S    
C1    C40   S    
N7    H44   S    
C31   C32   A    
N5    H39   S    
N1    H23   S    
O14   V3    S    
C28   C29   A    
C53   C57   S    
N10   H62   S    
C69   H67   S    
N4    H37   S    
C39   C40   A    
C51   C55   S    
O7    V2    S    
C59   C60   T    
C9    C15   S    
O27   C67   S    
C37   C38   A    
C52   C58   T    
C11   C14   S    
C69   H66   S    
C12   C13   S    
N5    H40   S    
O24   C64   S    
C25   C30   A    
C62   H27   S    
N3    H32   S    
C54   N7    S    
H8    C29   S    
C39   C44   A    
O8    C3    A    
