data_mof_unit_30773.cif
_audit_creation_date              2012-12-10T18:43:44-0500
_audit_creation_method            fapswitch 2.2
_symmetry_space_group_name_H-M    P1
_symmetry_Int_Tables_number       1
_space_group_crystal_system       triclinic
_cell_length_a                    10.870813
_cell_length_b                    10.723627
_cell_length_c                    9.965323
_cell_angle_alpha                 89.972537
_cell_angle_beta                  104.091123
_cell_angle_gamma                 92.525059
_cell_volume                      1125.59008686

loop_
_atom_site_label
_atom_site_type_symbol
_atom_type_description
_atom_site_fract_x
_atom_site_fract_y
_atom_site_fract_z
_atom_type_partial_charge
C1    C     C_R   0.500378 0.260249 0.500063 0.887133
C2    C     C_R   0.499622 0.739751 0.499936 0.887133
C3    C     C_R   0.259752 0.500475 0.441925 0.958503
C4    C     C_R   0.740247 0.499525 0.558075 0.958503
C5    C     C_R   0.581471 0.579204 0.093044 0.149776
C6    C     C_R   0.418529 0.420796 0.906956 0.149776
C7    C     C_R   0.581962 0.578518 0.949833 0.156047
C8    C     C_R   0.418038 0.421482 0.050167 0.156047
C9    C     C_2   0.123447 0.498410 0.409038 -0.328892
C10   C     C_2   0.876553 0.501590 0.590962 -0.328892
C11   C     C_2   0.067407 0.505933 0.513191 -0.122108
C12   C     C_2   0.932593 0.494067 0.486809 -0.122108
C13   C     C_R   0.496430 0.063712 0.376787 -0.153790
C14   C     C_R   0.503570 0.936288 0.623213 -0.153790
C15   C     C_R   0.494991 0.935972 0.376467 -0.151227
C16   C     C_R   0.505009 0.064028 0.623533 -0.151227
C17   C     C_R   0.499144 0.872404 0.499814 -0.028861
C18   C     C_R   0.500856 0.127596 0.500186 -0.028861
N1    N     N_R   0.499970 0.499970 0.857200 -0.144737
N2    N     N_R   0.500030 0.500030 0.142800 -0.144737
O1    O     O_R   0.499990 0.316750 0.614620 -0.605270
O2    O     O_R   0.500010 0.683250 0.385380 -0.605269
O3    O     O_R   0.499990 0.316780 0.385290 -0.609201
O4    O     O_R   0.500010 0.683220 0.614710 -0.609201
O5    O     O_R   0.317810 0.500000 0.571850 -0.601290
O6    O     O_R   0.682190 0.500000 0.428150 -0.601289
O7    O     O_R   0.317810 0.500030 0.342520 -0.589062
O8    O     O_R   0.682190 0.499970 0.657480 -0.589063
Zn1   Zn    Zn3+2 0.500000 0.499980 0.653120 1.009728
Zn2   Zn    Zn3+2 0.500000 0.500020 0.346880 1.009728
H1    H     H_    0.878936 0.480467 0.380020 0.205321
H2    H     H_    0.121064 0.519533 0.619980 0.205321
I1    I     I_    0.708660 0.707956 0.228953 -0.296471
I2    I     I_    0.291340 0.292044 0.771047 -0.296471
H3    H     H_    0.930676 0.512768 0.697806 0.175438
H4    H     H_    0.069324 0.487232 0.302194 0.175438
I3    I     I_    0.714471 0.700158 0.880706 -0.282952
I4    I     I_    0.285529 0.299841 0.119294 -0.282953
H5    H     H_    0.493897 0.111793 0.280644 0.186087
H6    H     H_    0.506103 0.888207 0.719356 0.186087
H7    H     H_    0.490569 0.887617 0.279906 0.185827
H8    H     H_    0.509431 0.112382 0.720094 0.185827

loop_
_geom_bond_atom_site_label_1
_geom_bond_atom_site_label_2
_ccdc_geom_bond_type
C2    O2    A    
C9    H4    S    
C4    O6    A    
C11   C12   S    
C1    O1    A    
C10   H3    S    
C3    C9    S    
C13   C15   A    
C3    O7    A    
C7    I3    S    
C5    N2    A    
N2    Zn2   S    
O7    Zn2   S    
O5    Zn1   S    
C6    N1    A    
C9    C11   D    
C14   C17   A    
C1    C18   S    
C8    N2    A    
C10   C12   D    
C13   C18   A    
O8    Zn1   S    
C4    O8    A    
C11   H2    S    
C1    O3    A    
C7    N1    A    
C8    I4    S    
C12   H1    S    
C2    O4    A    
C14   C16   A    
C13   H5    S    
C14   H6    S    
N1    Zn1   S    
O3    Zn2   S    
C16   H8    S    
C3    O5    A    
C15   H7    S    
C16   C18   A    
C5    C7    A    
O4    Zn1   S    
C6    C8    A    
O2    Zn2   S    
C15   C17   A    
O1    Zn1   S    
C6    I2    S    
C4    C10   S    
C2    C17   S    
O6    Zn2   S    
C5    I1    S    
