data_mof_unit_68048.cif
_audit_creation_date              2012-12-11T14:37:54-0500
_audit_creation_method            fapswitch 2.2
_symmetry_space_group_name_H-M    P1
_symmetry_Int_Tables_number       1
_space_group_crystal_system       triclinic
_cell_length_a                    14.508569
_cell_length_b                    15.804623
_cell_length_c                    6.948233
_cell_angle_alpha                 89.999983
_cell_angle_beta                  80.585522
_cell_angle_gamma                 90.0
_cell_volume                      1571.78727562

loop_
_atom_site_label
_atom_site_type_symbol
_atom_type_description
_atom_site_fract_x
_atom_site_fract_y
_atom_site_fract_z
_atom_type_partial_charge
O1    O     O_R   0.337080 0.165770 0.524980 -0.541118
O2    O     O_R   0.662920 0.834230 0.475020 -0.524126
O3    O     O_R   0.662920 0.665770 0.475020 -0.541118
O4    O     O_R   0.337080 0.334230 0.524980 -0.524126
O5    O     O_R   0.348340 0.341430 0.191390 -0.559649
O6    O     O_R   0.651660 0.658570 0.808610 -0.543481
O7    O     O_R   0.651660 0.841430 0.808610 -0.559648
O8    O     O_R   0.348340 0.158570 0.191390 -0.543481
O9    O     O_R   0.165780 0.339950 0.082750 -0.540636
O10   O     O_R   0.834220 0.660050 0.917250 -0.545306
O11   O     O_R   0.834220 0.839950 0.917250 -0.540636
O12   O     O_R   0.165780 0.160050 0.082750 -0.545305
C1    C     C_R   0.369963 0.364761 0.355787 0.738049
C2    C     C_R   0.629681 0.635474 0.644334 0.702620
C3    C     C_R   0.630037 0.864761 0.644213 0.738051
C4    C     C_R   0.370319 0.135474 0.355666 0.702615
H1    H     H_    0.413138 0.648566 0.599955 0.182016
H2    H     H_    0.564884 0.517101 0.041237 0.147580
H3    H     H_    0.586862 0.148567 0.400040 0.182014
H4    H     H_    0.435120 0.017103 0.958763 0.147581
O13   O     O_3   0.191540 0.250000 0.407620 -0.368706
O14   O     O_3   0.808460 0.750000 0.592380 -0.368707
V1    V     V_3+5 0.262540 0.250000 0.108780 1.526419
V2    V     V_3+5 0.737460 0.750000 0.891220 1.526423
O15   O     O_R   0.154530 0.164290 0.756910 -0.525168
O16   O     O_R   0.845470 0.835710 0.243090 -0.524853
O17   O     O_R   0.845470 0.664290 0.243090 -0.525168
O18   O     O_R   0.154530 0.335710 0.756910 -0.524852
C5    C     C_R   0.132024 0.133526 0.932424 0.774396
C6    C     C_R   0.867600 0.866649 0.067725 0.790952
C7    C     C_R   0.867975 0.633526 0.067576 0.774394
C8    C     C_R   0.132400 0.366648 0.932275 0.790952
V3    V     V_3+5 0.240320 0.250000 0.616280 1.571055
V4    V     V_3+5 0.759680 0.750000 0.383720 1.571055
O19   O     O_3   0.311330 0.250000 0.867310 -0.387821
O20   O     O_3   0.688670 0.750000 0.132690 -0.387820
C9    C     C_3   0.029695 0.479086 0.167818 -0.207185
C10   C     C_3   0.971611 0.521426 0.831553 -0.249711
C11   C     C_3   0.970305 0.979086 0.832182 -0.207182
C12   C     C_3   0.028388 0.021426 0.168447 -0.249711
C13   C     C_3   0.040621 0.568089 0.071051 -0.242910
C14   C     C_3   0.960596 0.432402 0.928598 -0.219897
C15   C     C_3   0.959379 0.068089 0.928947 -0.242909
C16   C     C_3   0.039404 0.932402 0.071404 -0.219897
H5    H     H_    0.074016 0.623893 0.128089 0.174294
H6    H     H_    0.927226 0.376567 0.871618 0.175140
H7    H     H_    0.925984 0.123893 0.871908 0.174295
H8    H     H_    0.072774 0.876568 0.128385 0.175140
H9    H     H_    0.051876 0.461030 0.307651 0.199371
H10   H     H_    0.949240 0.539224 0.691677 0.189949
H11   H     H_    0.948126 0.961029 0.692349 0.199370
H12   H     H_    0.050758 0.039225 0.308324 0.189948
C17   C     C_3   0.938712 0.563055 0.033287 -0.192907
C18   C     C_3   0.062323 0.437414 0.966446 -0.179314
C19   C     C_3   0.061288 0.063055 0.966713 -0.192908
C20   C     C_3   0.937677 0.937415 0.033553 -0.179314
C21   C     C_3   0.928373 0.475163 0.128064 0.540372
C22   C     C_3   0.073007 0.525219 0.871653 0.475574
C23   C     C_3   0.071627 0.975163 0.871937 0.540373
C24   C     C_3   0.926993 0.025219 0.128345 0.475570
C25   C     C_2   0.552408 0.494033 0.190315 -0.143951
C26   C     C_2   0.415951 0.666776 0.448526 -0.143950
C27   C     C_2   0.447594 0.994034 0.809686 -0.143951
C28   C     C_2   0.584049 0.166777 0.551468 -0.143938
C29   C     C_2   0.502141 0.537259 0.339213 0.329161
C30   C     C_2   0.458673 0.619579 0.297827 0.402566
C31   C     C_2   0.497861 0.037260 0.660786 0.329161
C32   C     C_2   0.541329 0.119580 0.702169 0.402565
O21   O     O_3   0.461291 0.642841 0.102217 -0.561019
C33   C     C_3   0.438817 0.728749 0.077441 -0.120988
H13   H     H_    0.364156 0.741346 0.136754 0.167958
H14   H     H_    0.449631 0.743070 0.919012 0.130572
H15   H     H_    0.485467 0.771305 0.145382 0.103499
O22   O     O_3   0.484663 0.506062 0.530701 -0.568228
C34   C     C_3   0.548241 0.442540 0.567609 -0.196697
H16   H     H_    0.533988 0.426658 0.725152 0.143990
H17   H     H_    0.621548 0.465160 0.533466 0.197495
H18   H     H_    0.539327 0.383744 0.485007 0.123155
O23   O     O_3   0.538713 0.142843 0.897778 -0.561017
C35   C     C_3   0.561179 0.228753 0.922552 -0.120994
H19   H     H_    0.635839 0.241355 0.863235 0.167955
H20   H     H_    0.550365 0.243075 0.080981 0.130574
H21   H     H_    0.514524 0.271305 0.854612 0.103501
O24   O     O_3   0.515338 0.006062 0.469299 -0.568228
C36   C     C_3   0.451759 0.942541 0.432393 -0.196698
H22   H     H_    0.466011 0.926659 0.274850 0.143992
H23   H     H_    0.378452 0.965161 0.466537 0.197495
H24   H     H_    0.460673 0.883744 0.514996 0.123155
S1    S     S_3+6 0.833135 0.439033 0.303197 -0.047698
O25   O     O_2   0.809758 0.504324 0.460776 -0.382124
O26   O     O_2   0.750050 0.424110 0.204043 -0.359587
O27   O     O_3   0.863428 0.348162 0.401748 -0.494271
H25   H     H_    0.809948 0.334315 0.504875 0.373761
S2    S     S_3+6 0.170926 0.559280 0.700014 0.010887
O28   O     O_2   0.256752 0.557458 0.795087 -0.301987
O29   O     O_2   0.184942 0.501471 0.526033 -0.356966
O30   O     O_3   0.152892 0.658478 0.627687 -0.470307
H26   H     H_    0.096607 0.654775 0.564355 0.329721
S3    S     S_3+6 0.166866 0.939033 0.696807 -0.047698
O31   O     O_2   0.190241 0.004323 0.539224 -0.382123
O32   O     O_2   0.249951 0.924114 0.795961 -0.359590
O33   O     O_3   0.136576 0.848160 0.598260 -0.494268
H27   H     H_    0.190056 0.834312 0.495137 0.373763
S4    S     S_3+6 0.829073 0.059280 0.299983 0.010889
O34   O     O_2   0.743246 0.057454 0.204910 -0.301985
O35   O     O_2   0.815059 0.001474 0.473968 -0.356965
O36   O     O_3   0.847104 0.158480 0.372303 -0.470304
H28   H     H_    0.903390 0.154779 0.435630 0.329722

loop_
_geom_bond_atom_site_label_1
_geom_bond_atom_site_label_2
_ccdc_geom_bond_type
C11   H11   S    
C12   C24   S    
C19   C23   S    
O12   C5    A    
C23   S3    S    
S4    O35   D    
O30   H26   S    
O1    V3    S    
C36   H22   S    
O12   V1    S    
V2    O20   S    
C21   S1    S    
C28   C32   D    
C13   C22   S    
C10   C14   S    
C30   O21   S    
O13   V3    S    
C16   C23   S    
O7    V2    S    
O11   V2    S    
O8    V1    S    
C14   H6    S    
O4    C1    A    
O9    C8    A    
O33   H27   S    
C10   C22   S    
O10   C7    A    
O16   V4    S    
C11   C20   S    
O11   C6    A    
O36   H28   S    
C33   H13   S    
S1    O26   D    
O5    C1    A    
O2    V4    S    
C32   O23   S    
O7    C3    A    
C11   C23   S    
C31   O24   S    
O8    C4    A    
O21   C33   S    
C35   H21   S    
C14   C21   S    
C8    C18   S    
S4    O34   D    
C36   H23   S    
O17   V4    S    
O15   C5    A    
O14   V4    S    
C27   C31   D    
O22   C34   S    
C26   C30   D    
O17   C7    A    
C31   C32   S    
O18   C8    A    
O24   C36   S    
C35   H20   S    
C17   C21   S    
O9    V1    S    
C11   C15   S    
C5    C19   S    
S2    O30   S    
O10   V2    S    
C12   H12   S    
C6    C20   S    
C29   O22   S    
C20   C24   S    
C34   H16   S    
H1    C26   S    
O6    C2    A    
C9    H9    S    
C16   C20   S    
S3    O31   D    
O5    V1    S    
H3    C28   S    
C12   C19   S    
O6    V2    S    
C33   H15   S    
O1    C4    A    
C7    C17   S    
S1    O27   S    
S2    O29   D    
O2    C3    A    
C34   H17   S    
C13   C17   S    
O3    C2    A    
C15   C24   S    
C9    C18   S    
C15   C19   S    
S3    O32   D    
O18   V3    S    
O16   C6    A    
V1    O19   S    
O13   V1    S    
O14   V2    S    
C18   C22   S    
C36   H24   S    
O4    V3    S    
C35   H19   S    
H2    C25   S    
C10   H10   S    
O3    V4    S    
H4    C27   S    
C22   S2    S    
C14   C18   S    
C10   C17   S    
O27   H25   S    
V3    O19   S    
V4    O20   S    
C9    C13   S    
S2    O28   D    
C34   H18   S    
O23   C35   S    
C25   C29   D    
C12   C16   S    
S3    O33   S    
C29   C30   S    
C13   H5    S    
C33   H14   S    
S1    O25   D    
C24   S4    S    
C15   H7    S    
S4    O36   S    
C9    C21   S    
C16   H8    S    
O15   V3    S    
