data_mof_unit_67122.cif
_audit_creation_date              2013-03-05T15:58:41-0500
_audit_creation_method            fapswitch 2.2
_symmetry_space_group_name_H-M    P1
_symmetry_Int_Tables_number       1
_space_group_crystal_system       triclinic
_cell_length_a                    8.139273
_cell_length_b                    13.141119
_cell_length_c                    14.891469
_cell_angle_alpha                 96.126256
_cell_angle_beta                  97.692932
_cell_angle_gamma                 99.803065
_cell_volume                      1541.65650705

loop_
_atom_site_label
_atom_site_type_symbol
_atom_site_description
_atom_site_fract_x
_atom_site_fract_y
_atom_site_fract_z
_atom_type_partial_charge
P1    P     P_3+3 0.998770 0.403620 0.291990 0.456210
O1    O     O_2   0.827930 0.435360 0.277760 -0.350067
O2    O     O_3   0.100310 0.439010 0.391180 -0.416852
O3    O     O_3   0.625610 0.634200 0.333270 -0.367831
O4    O     O_2   0.710820 0.557226 0.177439 -0.398126
O5    O     O_3   0.939810 0.268303 0.266296 -0.573359
O6    O     O_3   0.659481 0.749180 0.185990 -0.512175
H1    H     H_    0.676258 0.879773 0.278068 0.118528
C1    C     C_3   0.490715 0.878751 0.160193 -1.056099
H2    H     H_    0.429933 0.938058 0.194928 0.245061
H3    H     H_    0.581947 0.917633 0.119969 0.312791
P2    P     P_3+3 0.687370 0.751000 0.571300 0.452037
P3    P     P_3+3 0.103068 0.820318 0.361064 0.464539
O7    O     O_2   0.857120 0.766320 0.543890 -0.355697
O8    O     O_3   0.056570 0.691100 0.379020 -0.378568
O9    O     O_2   0.966930 0.868660 0.404610 -0.368377
O10   O     O_3   0.729776 0.787375 0.689972 -0.577840
O11   O     O_3   0.045684 0.831873 0.245896 -0.504725
C2    C     C_3   0.074411 0.746016 0.190466 0.515009
H4    H     H_    0.998239 0.672684 0.204148 0.144389
H5    H     H_    0.209453 0.740669 0.202114 -0.007853
C3    C     C_3   0.022776 0.761231 0.091386 -0.951500
H6    H     H_    0.883439 0.742142 0.072329 0.288441
H7    H     H_    0.067007 0.843246 0.082217 0.259080
C4    C     C_3   0.271358 0.774064 0.657095 0.297519
H8    H     H_    0.383342 0.754547 0.630185 0.088324
H9    H     H_    0.157074 0.752134 0.604068 0.150079
C5    C     C_3   0.298422 0.886670 0.692853 -0.746189
H10   H     H_    0.418236 0.908204 0.741833 0.212369
H11   H     H_    0.186908 0.896458 0.725412 0.193842
Ba1   Ba    Ba6+2 0.843760 0.550230 0.455610 1.564380
C6    C     C_3   0.932871 0.223044 0.346712 0.315855
H12   H     H_    0.844187 0.255742 0.386381 0.086736
H13   H     H_    0.058384 0.238816 0.389009 0.141422
C7    C     C_3   0.874307 0.104997 0.322880 -0.788526
H14   H     H_    0.735295 0.087435 0.300879 0.202469
H15   H     H_    0.903056 0.066878 0.384610 0.163407
C8    C     C_3   0.773708 0.704999 0.733966 0.441079
H16   H     H_    0.897742 0.691368 0.718133 0.074284
H17   H     H_    0.676733 0.632959 0.713379 0.123644
C9    C     C_3   0.786560 0.735242 0.836658 -1.040275
H18   H     H_    0.889303 0.803414 0.860679 0.262080
H19   H     H_    0.814277 0.670211 0.874019 0.229562
H20   H     H_    0.665705 0.755208 0.852953 0.274162
P4    P     P_3+3 0.190950 0.596470 0.708020 0.468387
O12   O     O_2   0.361790 0.564680 0.722290 -0.353257
O13   O     O_3   0.089410 0.561080 0.608830 -0.412664
O14   O     O_3   0.564100 0.365890 0.666740 -0.352478
O15   O     O_3   0.249884 0.728296 0.734528 -0.591529
P5    P     P_3+3 0.091624 0.177139 0.636771 0.511629
O16   O     O_3   0.601940 0.368260 0.453780 -0.397714
O17   O     O_3   0.133140 0.308990 0.620990 -0.303705
O18   O     O_2   0.205567 0.142503 0.570902 -0.333307
O19   O     O_3   0.195831 0.147171 0.742244 -0.519143
Ba2   Ba    Ba6+2 0.346080 0.449860 0.544400 1.589640
P6    P     P_3+3 0.590498 0.624747 0.214504 0.452716
C10   C     C_3   0.578898 0.822149 0.230700 0.534310
H21   H     H_    0.485040 0.788472 0.272259 0.013001
H22   H     H_    0.393262 0.822477 0.111892 0.257693
O20   O     O_3   0.587770 0.631830 0.546230 -0.406174
C11   C     C_3   0.417728 0.286890 0.266420 0.472728
H23   H     H_    0.284208 0.286867 0.274331 0.087319
H24   H     H_    0.495984 0.363831 0.295860 0.112552
C12   C     C_3   0.431551 0.272179 0.165157 -0.964657
H25   H     H_    0.374299 0.191242 0.134485 0.253709
H26   H     H_    0.366105 0.327319 0.129230 0.236696
H27   H     H_    0.566422 0.286801 0.156054 0.276815
P7    P     P_3+3 0.510510 0.234067 0.425888 0.446450
O21   O     O_2   0.332600 0.233710 0.456170 -0.362360
O22   O     O_3   0.472327 0.203910 0.306550 -0.559033
H28   H     H_    0.080100 0.711999 0.044634 0.218909
C13   C     C_3   0.110701 0.168041 0.817866 0.210100
H29   H     H_    0.973824 0.139299 0.796796 -0.015458
C14   C     C_3   0.169543 0.115377 0.904774 -0.056112
H30   H     H_    0.295089 0.160798 0.937996 0.209850
P8    P     P_3+3 0.596970 0.389504 0.786008 0.511200
C15   C     C_3   0.684440 0.216388 0.807331 0.455713
H31   H     H_    0.796573 0.244986 0.860620 0.017645
O23   O     O_2   0.460068 0.445435 0.818436 -0.356921
O24   O     O_3   0.554800 0.269660 0.825074 -0.481494
H32   H     H_    0.719239 0.223633 0.738020 0.085528
H33   H     H_    0.698907 0.053385 0.777108 0.228978
C16   C     C_3   0.621272 0.102852 0.810778 -0.980353
H34   H     H_    0.493300 0.084081 0.772804 0.313430
H35   H     H_    0.614452 0.088423 0.882181 0.246432
C17   C     C_R   0.368322 0.565688 0.169947 0.186598
H36   H     H_    0.334823 0.521780 0.302248 0.178496
H37   H     H_    0.510466 0.653352 0.034957 0.193081
C18   C     C_R   0.110103 0.468302 0.206130 0.291832
C19   C     C_R   0.908851 0.497191 0.769635 -0.427070
C20   C     C_R   0.808298 0.460541 0.831553 0.197709
C21   C     C_R   0.872805 0.468363 0.924125 -0.319989
C22   C     C_R   0.043116 0.514347 0.957065 0.070548
C23   C     C_R   0.142158 0.560029 0.893576 -0.005627
C24   C     C_R   0.119345 0.514339 0.050097 0.045464
C25   C     C_R   0.291052 0.564832 0.078661 -0.000800
C26   C     C_R   0.380710 0.614210 0.015980 -0.230787
C27   C     C_R   0.307346 0.613096 0.926060 -0.162604
C28   C     C_R   0.032681 0.463946 0.115226 -0.276826
C29   C     C_R   0.275716 0.519946 0.232425 -0.523363
C30   C     C_R   0.074885 0.546787 0.798442 0.335547
H38   H     H_    0.905547 0.420553 0.097709 0.160238
H39   H     H_    0.856946 0.486829 0.697743 0.152403
H40   H     H_    0.787921 0.435991 0.967775 0.159126
H41   H     H_    0.384313 0.652376 0.881906 0.183666
C31   C     C_R   0.772042 0.176696 0.540308 -0.430621
C32   C     C_R   0.425212 0.810039 0.455116 -0.487753
C33   C     C_R   0.401453 0.981203 0.414368 -0.316157
C34   C     C_R   0.329477 0.875604 0.412026 0.207012
C35   C     C_R   0.585242 0.847915 0.507417 0.252399
C36   C     C_R   0.654522 0.958101 0.515240 0.026258
C37   C     C_R   0.560462 0.025310 0.467498 0.032859
C38   C     C_R   0.619284 0.136322 0.482867 0.262442
C39   C     C_R   0.872135 0.112841 0.581470 0.158333
C40   C     C_R   0.810074 0.004481 0.572142 -0.202079
H42   H     H_    0.325473 0.030276 0.381883 0.217378
H43   H     H_    0.882568 0.957604 0.610355 0.197561
H44   H     H_    0.817784 0.260007 0.549732 0.153742
H45   H     H_    0.370362 0.728509 0.451907 0.168601
C41   C     C_2   0.294242 0.951723 0.620428 1.075144
O25   O     O_2   0.411811 0.021917 0.618774 -0.622662
O26   O     O_R   0.147476 0.935970 0.558396 -0.776535
H46   H     H_    0.157112 0.981108 0.508528 0.351124
C42   C     C_2   0.959848 0.060896 0.248291 1.281626
O27   O     O_2   0.875403 0.012439 0.178023 -0.665797
O28   O     O_R   0.135430 0.076692 0.258698 -0.809435
H47   H     H_    0.177643 0.043388 0.203792 0.308769
C43   C     C_2   0.146646 0.283725 0.846760 0.998985
O29   O     O_2   0.091585 0.339706 0.795418 -0.656660
O30   O     O_R   0.247243 0.327008 0.930362 -0.830293
H48   H     H_    0.285659 0.404447 0.936177 0.356539
C44   C     C_3   0.047526 0.121390 0.977071 -0.302347
C45   C     C_3   0.901729 0.028188 0.966939 -0.814398
H49   H     H_    0.849567 0.001007 0.894398 0.249018
H50   H     H_    0.944502 0.961984 0.997098 0.273677
H51   H     H_    0.800512 0.050175 0.003794 0.266612
H52   H     H_    0.119641 0.128083 0.046693 0.208367
H53   H     H_    0.993705 0.193449 0.975602 0.176393
C46   C     C_3   0.207194 0.005941 0.884379 -0.232659
C47   C     C_3   0.300535 0.968032 0.967008 -0.941397
H54   H     H_    0.428182 0.016939 0.988174 0.261275
H55   H     H_    0.232433 0.971559 0.026290 0.268670
H56   H     H_    0.314917 0.886242 0.948344 0.272709
H57   H     H_    0.091549 0.949003 0.854065 0.199587
H58   H     H_    0.295134 0.011794 0.835685 0.207768

loop_
_geom_bond_atom_site_label_1
_geom_bond_atom_site_label_2
_geom_bond_distance
_ccdc_geom_bond_type
C11   O22   1.405960 S    
O14   Ba2   2.813528 S    
O5    C6    1.396307 S    
C22   C23   1.436832 A    
C14   C44   1.564116 S    
C9    H19   1.106459 S    
C9    H18   1.107357 S    
O14   P8    1.746194 S    
O4    P6    1.545037 D    
C24   C25   1.428017 A    
P8    O23   1.536959 D    
O7    Ba1   2.977167 S    
C43   O29   1.211252 D    
P2    C35   1.904030 S    
C39   C40   1.412877 A    
C19   C20   1.383672 A    
C15   H31   1.108865 S    
C4    C5    1.487016 S    
P5    O19   1.797373 S    
C27   H41   1.078820 S    
P3    O11   1.745785 S    
C13   C43   1.502346 S    
C42   O28   1.393660 S    
C5    H10   1.111139 S    
C7    H15   1.109644 S    
C47   H55   1.104423 S    
O11   C2    1.397027 S    
C8    H16   1.105964 S    
C24   C28   1.427561 A    
C23   C27   1.400930 A    
C44   H53   1.110026 S    
P1    Ba1   3.448076 S    
C33   C34   1.406217 A    
P1    O1    1.513234 D    
C11   H24   1.109739 S    
C35   C36   1.447946 A    
P3    C34   1.884598 S    
O2    Ba2   2.799889 S    
C36   C37   1.445736 A    
C23   C30   1.429801 A    
P7    O21   1.572648 D    
C40   H43   1.077112 S    
O12   Ba2   2.881134 S    
C45   H51   1.109800 S    
P5    O17   1.755097 S    
C47   H56   1.110846 S    
P4    O15   1.705085 S    
C17   C29   1.395677 A    
C1    H2    1.110614 S    
O16   Ba2   2.917490 S    
H37   C26   1.078844 S    
O17   Ba2   2.760244 S    
P7    C38   1.890080 S    
O10   C8    1.396183 S    
C22   C24   1.440194 A    
Ba1   O13   2.799305 S    
Ba2   O20   2.821114 S    
C31   H44   1.082272 S    
C32   C34   1.405004 A    
O6    P6    1.751793 S    
C32   H45   1.081652 S    
C37   C38   1.439208 A    
C41   O26   1.379383 S    
C26   C27   1.388731 A    
P4    O13   1.573777 S    
P5    O18   1.523613 D    
C14   H30   1.113164 S    
C31   C38   1.397437 A    
P1    O5    1.747502 S    
C6    C7    1.531343 S    
C2    C3    1.522870 S    
C47   H54   1.110642 S    
C8    C9    1.523403 S    
C13   C14   1.587873 S    
C5    C41   1.446385 S    
Ba1   O16   2.821700 S    
C20   C21   1.394346 A    
C44   C45   1.532573 S    
C18   C29   1.386132 A    
C4    H8    1.101181 S    
P4    O12   1.513556 D    
C33   C37   1.417551 A    
O1    Ba1   2.880736 S    
P1    O2    1.573776 S    
C7    H14   1.111981 S    
C6    H13   1.100488 S    
Ba1   O20   2.918377 S    
P2    O10   1.752384 S    
C11   C12   1.521367 S    
C12   H27   1.110822 S    
C19   C30   1.385735 A    
H1    C10   1.109476 S    
C46   H57   1.106310 S    
P6    C17   1.844908 S    
C16   H34   1.091140 S    
C15   H32   1.115654 S    
C25   C26   1.405424 A    
C17   C25   1.417404 A    
O2    Ba1   2.948445 S    
C1    H3    1.107464 S    
Ba2   O21   2.977451 S    
P4    C30   1.857410 S    
C16   H35   1.106745 S    
C31   C39   1.397293 A    
P3    O8    1.733012 S    
P2    Ba1   3.508520 S    
C7    C42   1.503794 S    
C45   H49   1.103622 S    
C32   C35   1.405624 A    
C3    H7    1.105566 S    
C3    H28   1.102069 S    
C41   O25   1.215632 D    
O13   Ba2   2.949259 S    
H36   C29   1.081627 S    
C15   O24   1.399990 S    
C46   H58   1.084503 S    
P1    C18   1.859638 S    
C2    H5    1.104993 S    
P8    O24   1.732463 S    
P2    O7    1.479825 D    
C13   H29   1.104581 S    
C18   C28   1.405594 A    
C43   O30   1.400427 S    
C46   C47   1.532596 S    
O8    Ba1   2.759643 S    
C4    H9    1.111460 S    
C14   C46   1.528435 S    
Ba1   Ba2   4.459076 S    
C6    H12   1.104632 S    
C33   H42   1.074529 S    
C2    H4    1.107603 S    
C5    H11   1.104403 S    
O30   H48   1.003204 S    
C44   H52   1.107786 S    
C12   H25   1.107968 S    
C8    H17   1.109971 S    
C10   H21   1.110124 S    
O28   H47   1.013975 S    
C21   C22   1.413079 A    
C9    H20   1.110646 S    
C1    C10   1.522352 S    
O16   P7    1.774854 S    
C11   H23   1.108640 S    
C4    O15   1.374070 S    
C19   H39   1.082292 S    
O3    Ba1   2.814172 S    
C21   H40   1.077026 S    
P8    C20   1.815431 S    
P2    O20   1.615823 S    
C28   H38   1.076579 S    
O19   C13   1.425182 S    
P4    Ba2   3.448616 S    
P7    O22   1.752613 S    
H33   C16   1.108320 S    
P3    O9    1.547915 D    
C45   H50   1.106555 S    
C15   C16   1.501742 S    
C3    H6    1.109686 S    
C36   C40   1.425557 A    
P5    C39   1.878083 S    
O26   H46   1.001617 S    
C1    H22   1.107866 S    
O6    C10   1.409874 S    
O3    P6    1.740904 S    
C12   H26   1.110354 S    
C42   O27   1.220257 D    
