data_mof_unit_15030.cif
_audit_creation_date              2012-12-10T17:29:14-0500
_audit_creation_method            fapswitch 2.2
_symmetry_space_group_name_H-M    P1
_symmetry_Int_Tables_number       1
_space_group_crystal_system       triclinic
_cell_length_a                    12.029095
_cell_length_b                    12.833701
_cell_length_c                    13.155929
_cell_angle_alpha                 87.753561
_cell_angle_beta                  113.966062
_cell_angle_gamma                 92.942493
_cell_volume                      1853.06327428

loop_
_atom_site_label
_atom_site_type_symbol
_atom_type_description
_atom_site_fract_x
_atom_site_fract_y
_atom_site_fract_z
_atom_type_partial_charge
Br1   Br    Br    0.133129 0.495154 0.131518 -0.388784
Br2   Br    Br    0.755356 0.758419 0.721611 -0.319846
Br3   Br    Br    0.747374 0.000769 0.787596 -0.296810
Br4   Br    Br    0.234741 0.219031 0.297393 -0.401002
Br5   Br    Br    0.101517 0.304467 0.716327 -0.455243
Br6   Br    Br    0.175677 0.688102 0.320740 -0.420024
Br7   Br    Br    0.089264 0.590976 0.880728 -0.365177
Br8   Br    Br    0.433890 0.721131 0.716134 -0.443581
C1    C     C_R   0.477280 0.299703 0.497648 0.981274
C2    C     C_R   0.614859 0.516868 0.830749 -0.155762
C3    C     C_R   0.543731 0.809739 0.520070 -0.153937
C4    C     C_R   0.568100 0.502950 0.709202 0.975665
C5    C     C_R   0.462314 0.188372 0.494211 -0.192596
C6    C     C_R   0.362083 0.035475 0.393179 -0.149122
C7    C     C_R   0.363128 0.141357 0.407338 0.192414
C8    C     C_R   0.556889 0.129879 0.570505 0.378933
C9    C     C_R   0.552343 0.021155 0.560768 -0.076890
C10   C     C_R   0.456633 0.976316 0.466811 0.033672
C11   C     C_R   0.454729 0.871966 0.446859 -0.209515
C12   C     C_R   0.563681 0.527694 0.991051 0.041907
C13   C     C_R   0.637258 0.849826 0.616645 0.232012
C14   C     C_R   0.639275 0.955605 0.639935 0.263000
C15   C     C_R   0.005659 0.599053 0.400050 -0.280583
C16   C     C_R   0.523546 0.700036 0.503838 0.953342
C17   C     C_R   0.125332 0.591540 0.409307 0.460601
C18   C     C_R   0.160903 0.456693 0.545543 0.005556
C19   C     C_R   0.040153 0.463135 0.540404 -0.020676
C20   C     C_R   0.961719 0.534719 0.464682 -0.026867
C21   C     C_R   0.840879 0.541615 0.455373 -0.069720
C22   C     C_R   0.872941 0.412356 0.597176 0.584195
C23   C     C_R   0.537488 0.552587 0.878604 -0.125936
C24   C     C_R   0.995586 0.401482 0.608540 0.069857
C25   C     C_R   0.431762 0.498436 0.290664 0.926788
C26   C     C_R   0.251275 0.556812 0.985020 0.258031
C27   C     C_R   0.389313 0.499424 0.168998 -0.210338
C28   C     C_R   0.731996 0.483579 0.900938 0.472515
C29   C     C_R   0.768511 0.484713 0.016292 -0.306682
C30   C     C_R   0.686277 0.506737 0.062728 0.427511
C31   C     C_R   0.465916 0.527067 0.025850 0.077746
C32   C     C_R   0.350785 0.564806 0.953532 -0.034300
C33   C     C_R   0.339333 0.612713 0.853148 -0.164799
C34   C     C_R   0.433979 0.611933 0.818880 0.306921
C35   C     C_R   0.477910 0.486057 0.128835 -0.203856
C36   C     C_R   0.270559 0.522811 0.093606 0.285446
H1    H     H_    0.288201 0.999590 0.323163 0.201671
H2    H     H_    0.888391 0.316042 0.720787 0.377986
H3    H     H_    0.886561 0.428737 0.916482 0.378438
H4    H     H_    0.813968 0.498195 0.212919 0.347940
H5    H     H_    0.780659 0.596609 0.396847 0.188642
H6    H     H_    0.947357 0.655974 0.342650 0.199731
H7    H     H_    0.259789 0.655915 0.803203 0.214408
H8    H     H_    0.223254 0.401951 0.601753 0.190482
H9    H     H_    0.556989 0.444225 0.181089 0.235997
H10   H     H_    0.860946 0.466154 0.070464 0.193143
H11   H     H_    0.382320 0.838101 0.374317 0.196160
H12   H     H_    0.728582 0.157906 0.639014 0.367568
N1    N     N_R   0.798200 0.480260 0.519790 -0.128079
N2    N     N_R   0.201820 0.519740 0.480210 -0.128266
O1    O     O_R   0.579910 0.341070 0.505280 -0.561887
O2    O     O_3   0.825053 0.356642 0.662720 -0.655885
O3    O     O_3   0.809936 0.451566 0.855900 -0.653124
O4    O     O_3   0.727739 0.517829 0.176375 -0.788832
O5    O     O_R   0.388440 0.353740 0.492580 -0.603436
O6    O     O_R   0.643280 0.490550 0.663120 -0.489838
O7    O     O_R   0.451810 0.503220 0.650420 -0.635047
O8    O     O_R   0.611560 0.646260 0.507420 -0.611488
O9    O     O_R   0.420090 0.658930 0.494720 -0.562147
O10   O     O_R   0.548190 0.496780 0.349580 -0.635580
O11   O     O_R   0.356720 0.509450 0.336880 -0.549398
O12   O     O_3   0.656041 0.182288 0.647707 -0.671030
Zn1   Zn    Zn3+2 0.627850 0.491540 0.508480 1.073274
Zn2   Zn    Zn3+2 0.372150 0.508460 0.491520 1.053252

loop_
_geom_bond_atom_site_label_1
_geom_bond_atom_site_label_2
_ccdc_geom_bond_type
H3    O3    S    
O11   Zn2   S    
C2    C28   A    
C29   C30   A    
C23   C34   A    
C18   H8    S    
O7    Zn2   S    
C12   C30   A    
C4    O7    A    
C6    C10   A    
Br1   C36   S    
H4    O4    S    
O8    Zn1   S    
C25   O11   A    
Br5   C24   S    
C3    C11   A    
C27   C35   A    
Br2   C13   S    
C5    C7    A    
C9    C10   A    
C26   C36   A    
C30   O4    S    
C21   H5    S    
C13   C14   A    
N1    Zn1   S    
C22   C24   A    
C27   C36   A    
C18   N2    A    
N2    Zn2   S    
C18   C19   A    
O1    Zn1   S    
C2    C4    S    
Br4   C7    S    
O10   Zn1   S    
C26   C32   A    
C29   H10   S    
C32   C33   A    
C25   C27   S    
C35   H9    S    
Br8   C34   S    
C10   C11   A    
C6    H1    S    
H12   O12   S    
C15   C17   A    
C4    O6    A    
Br7   C26   S    
O6    Zn1   S    
Br6   C17   S    
C17   N2    A    
C3    C13   A    
C28   O3    S    
C20   C21   A    
C22   N1    A    
C3    C16   S    
C19   C20   A    
C8    O12   S    
O5    Zn2   S    
C16   O8    A    
O9    Zn2   S    
C33   C34   A    
C5    C8    A    
C11   H11   S    
C31   C32   A    
C12   C31   A    
C1    C5    S    
C6    C7    A    
C28   C29   A    
C15   H6    S    
C31   C35   A    
C16   O9    A    
H2    O2    S    
C19   C24   A    
C15   C20   A    
C1    O5    A    
C1    O1    A    
C2    C23   A    
C33   H7    S    
C9    C14   A    
C25   O10   A    
C21   N1    A    
C8    C9    A    
Br3   C14   S    
C12   C23   A    
C22   O2    S    
