data_mof_unit_33667.cif
_audit_creation_date              2012-12-10T18:58:10-0500
_audit_creation_method            fapswitch 2.2
_symmetry_space_group_name_H-M    P1
_symmetry_Int_Tables_number       1
_space_group_crystal_system       triclinic
_cell_length_a                    11.055947
_cell_length_b                    10.871574
_cell_length_c                    9.530486
_cell_angle_alpha                 89.35952
_cell_angle_beta                  102.431109
_cell_angle_gamma                 90.463596
_cell_volume                      1118.57697835

loop_
_atom_site_label
_atom_site_type_symbol
_atom_type_description
_atom_site_fract_x
_atom_site_fract_y
_atom_site_fract_z
_atom_type_partial_charge
C1    C     C_R   0.499305 0.262592 0.500334 0.810660
C2    C     C_R   0.501614 0.129832 0.499086 -0.121974
C3    C     C_R   0.476835 0.069142 0.367086 -0.249212
C4    C     C_R   0.470161 0.940861 0.360338 0.072893
C5    C     C_R   0.494998 0.871668 0.492032 -0.130545
C6    C     C_R   0.529290 0.934623 0.622003 0.097094
C7    C     C_3   0.475505 0.926169 0.753171 -0.459622
C8    C     C_3   0.478894 0.065599 0.756659 -0.475013
C9    C     C_R   0.555758 0.593497 0.086142 0.234198
C10   C     C_R   0.434418 0.414697 0.059202 -0.080408
C11   C     C_R   0.434514 0.414609 0.910211 -0.088279
C12   C     C_R   0.262860 0.499365 0.442047 0.849881
C13   C     C_R   0.555439 0.593704 0.938702 0.262636
C14   C     C_3   0.688365 0.630898 0.964759 -0.503189
C15   C     C_3   0.688835 0.630468 0.124046 -0.507225
C16   C     C_R   0.495603 0.737769 0.497297 0.791767
C17   C     C_R   0.737178 0.499390 0.558169 0.869935
C18   C     C_2   0.128198 0.495920 0.409906 -0.363018
C19   C     C_2   0.067702 0.494860 0.517045 -0.152251
C20   C     C_2   0.871968 0.499322 0.591589 -0.362949
C21   C     C_2   0.933391 0.489517 0.486182 -0.151475
C22   C     C_R   0.532180 0.061285 0.625599 0.126997
Cu1   Cu    Cu3+1 0.499990 0.499980 0.640670 0.935810
Cu2   Cu    Cu3+1 0.500010 0.500020 0.359330 0.933499
H1    H     H_    0.884545 0.478067 0.375545 0.171120
H2    H     H_    0.545950 0.102819 0.850840 0.196760
H3    H     H_    0.383259 0.344295 0.103211 0.134878
H4    H     H_    0.383520 0.344118 0.842434 0.135620
H5    H     H_    0.748402 0.558569 0.934819 0.217595
H6    H     H_    0.701202 0.724114 0.921072 0.187918
H7    H     H_    0.748591 0.557498 0.183743 0.212531
H8    H     H_    0.702403 0.723363 0.172658 0.188748
H9    H     H_    0.117271 0.498747 0.628673 0.180861
H10   H     H_    0.921265 0.508713 0.702731 0.143905
H11   H     H_    0.078257 0.493246 0.298422 0.147908
H12   H     H_    0.455147 0.122317 0.268066 0.158296
H13   H     H_    0.379977 0.887300 0.730496 0.198693
H14   H     H_    0.540232 0.883254 0.845855 0.191896
H15   H     H_    0.385329 0.107793 0.735746 0.193491
N1    N     N_R   0.500780 0.500930 0.148120 -0.181338
N2    N     N_R   0.500790 0.500890 0.852210 -0.183758
O1    O     O_R   0.500000 0.319640 0.618810 -0.583222
O2    O     O_R   0.500010 0.319680 0.381230 -0.591680
O3    O     O_R   0.320680 0.500000 0.575130 -0.583567
O4    O     O_R   0.320690 0.500040 0.337550 -0.584287
O5    O     O_R   0.499990 0.680320 0.618770 -0.577305
O6    O     O_R   0.500000 0.680360 0.381190 -0.584175
O7    O     O_R   0.679310 0.499960 0.662450 -0.583491
O8    O     O_R   0.679320 0.500000 0.424870 -0.577747
C23   C     C_3   0.427343 0.886043 0.211410 -0.374819
C24   C     C_3   0.294312 0.835904 0.188717 -0.311661
C25   C     C_3   0.253047 0.778143 0.040732 -0.842939
H16   H     H_    0.258324 0.846763 0.954974 0.244239
H17   H     H_    0.312383 0.698397 0.030285 0.255568
H18   H     H_    0.155805 0.745388 0.026363 0.237445
H19   H     H_    0.286080 0.765839 0.271741 0.226690
H20   H     H_    0.230668 0.912602 0.198023 0.206029
H21   H     H_    0.428491 0.957268 0.126908 0.176191
H22   H     H_    0.493150 0.816133 0.190509 0.213395

loop_
_geom_bond_atom_site_label_1
_geom_bond_atom_site_label_2
_ccdc_geom_bond_type
C10   H3    S    
C2    C22   A    
C8    C22   S    
Cu1   Cu2   S    
C17   O7    A    
C15   H7    S    
C6    C7    S    
C24   H20   S    
C8    H15   S    
C8    H2    S    
C18   H11   S    
Cu1   N2    S    
C25   H18   S    
C20   H10   S    
C13   N2    A    
C23   C24   S    
C7    H13   S    
C15   H8    S    
C12   O3    A    
Cu1   O5    S    
C13   C14   S    
C25   H16   S    
Cu1   O1    S    
C3    H12   S    
C14   H6    S    
Cu2   O4    S    
C11   H4    S    
C16   O6    A    
C19   C21   S    
C7    H14   S    
C25   H17   S    
C2    C3    A    
C9    C15   S    
C5    C6    A    
C10   C11   A    
C23   H22   S    
C14   H5    S    
C12   C18   S    
C3    C4    A    
C23   H21   S    
C1    O1    A    
C7    C8    S    
C17   C20   S    
C24   C25   S    
C20   C21   D    
C10   N1    A    
C1    C2    S    
C19   H9    S    
C11   N2    A    
C16   O5    A    
Cu2   O8    S    
C12   O4    A    
Cu2   O2    S    
C9    C13   A    
C14   C15   S    
C18   C19   D    
C5    C16   S    
C21   H1    S    
Cu1   O7    S    
Cu2   N1    S    
Cu2   O6    S    
C1    O2    A    
C9    N1    A    
C17   O8    A    
Cu1   O3    S    
C24   H19   S    
C4    C23   S    
C4    C5    A    
C6    C22   A    
