data_mof_unit_42736.cif
_audit_creation_date              2013-03-05T16:08:54-0500
_audit_creation_method            fapswitch 2.2
_symmetry_space_group_name_H-M    P1
_symmetry_Int_Tables_number       1
_space_group_crystal_system       triclinic
_cell_length_a                    17.227576
_cell_length_b                    6.884947
_cell_length_c                    14.374481
_cell_angle_alpha                 89.474824
_cell_angle_beta                  110.102736
_cell_angle_gamma                 90.613798
_cell_volume                      1600.98113431

loop_
_atom_site_label
_atom_site_type_symbol
_atom_site_description
_atom_site_fract_x
_atom_site_fract_y
_atom_site_fract_z
_atom_type_partial_charge
O1    O     O_R   0.314130 0.635770 0.168990 -0.589529
O2    O     O_R   0.685870 0.364230 0.831010 -0.589437
O3    O     O_R   0.185870 0.135770 0.331010 -0.599681
O4    O     O_R   0.814130 0.864230 0.668990 -0.591709
O5    O     O_R   0.146800 0.302460 0.139760 -0.578564
O6    O     O_R   0.853200 0.697540 0.860240 -0.579539
O7    O     O_R   0.353200 0.802460 0.360240 -0.579056
O8    O     O_R   0.646800 0.197540 0.639760 -0.589542
C1    C     C_R   0.113973 0.475639 0.112848 1.027288
C2    C     C_R   0.886029 0.524362 0.887148 1.026104
C3    C     C_R   0.385983 0.976021 0.387222 1.019935
C4    C     C_R   0.613904 0.023999 0.612978 1.047891
O9    O     O_R   0.311100 0.305780 0.157130 -0.570287
O10   O     O_R   0.688900 0.694220 0.842870 -0.570737
O11   O     O_R   0.188900 0.805780 0.342870 -0.567461
O12   O     O_R   0.811100 0.194220 0.657130 -0.594184
O13   O     O_R   0.351340 0.139640 0.348510 -0.588966
O14   O     O_R   0.648660 0.860360 0.651490 -0.583655
O15   O     O_R   0.148660 0.639640 0.151490 -0.577582
O16   O     O_R   0.851340 0.360360 0.848510 -0.577991
C5    C     C_R   0.332645 0.476588 0.135662 1.098107
C6    C     C_R   0.667339 0.523421 0.864319 1.099608
C7    C     C_R   0.168736 0.973703 0.365933 1.097437
C8    C     C_R   0.833256 0.026477 0.636376 1.125936
C9    C     C_1   0.533499 0.008696 0.533215 -0.112910
C10   C     C_1   0.466362 0.991315 0.467027 -0.120982
C11   C     C_1   0.966447 0.509143 0.966936 -0.095127
C12   C     C_1   0.033557 0.490861 0.033056 -0.094929
O17   O     O_3   0.263010 0.470920 0.312770 -0.274024
O18   O     O_3   0.736990 0.529080 0.687230 -0.280306
O19   O     O_3   0.236990 0.970920 0.187230 -0.253391
O20   O     O_3   0.763010 0.029080 0.812770 -0.254845
V1    V     V_3+5 0.247590 0.194450 0.238360 1.326346
V2    V     V_3+5 0.752410 0.805550 0.761640 1.329197
V3    V     V_3+5 0.252410 0.694450 0.261640 1.326316
V4    V     V_3+5 0.747590 0.305550 0.738360 1.313306
C13   C     C_R   0.118321 0.977511 0.431018 -0.446695
C14   C     C_R   0.883724 0.021689 0.571468 -0.450746
C15   C     C_R   0.382392 0.495130 0.070033 -0.441151
C16   C     C_R   0.617589 0.504918 0.929946 -0.443423
C17   C     C_R   0.901464 0.091588 0.413738 -0.147719
C18   C     C_R   0.101644 0.918654 0.590320 -0.139556
C19   C     C_R   0.584247 0.325245 0.058155 -0.118163
C20   C     C_R   0.415760 0.674898 0.941867 -0.123624
C21   C     C_R   0.850830 0.086713 0.472080 0.303987
C22   C     C_R   0.152126 0.920679 0.531842 0.290554
C23   C     C_R   0.638331 0.363141 0.006363 0.334194
C24   C     C_R   0.361668 0.636977 0.993646 0.332410
C25   C     C_R   0.966860 0.960648 0.610703 0.304389
C26   C     C_R   0.035225 0.039465 0.391851 0.313344
C27   C     C_R   0.544512 0.613789 0.910171 0.333299
C28   C     C_R   0.455472 0.386276 0.089807 0.333707
C29   C     C_R   0.017767 0.969661 0.551306 -0.039575
C30   C     C_R   0.984793 0.035214 0.451906 -0.042898
C31   C     C_R   0.490295 0.573799 0.963213 -0.042778
C32   C     C_R   0.509699 0.426305 0.036784 -0.041869
H1    H     H_    0.874298 0.136880 0.337186 0.222754
H2    H     H_    0.128990 0.875596 0.667212 0.221903
H3    H     H_    0.601961 0.217460 0.116788 0.215884
H4    H     H_    0.398065 0.782751 0.883270 0.221116
N1    N     N_R   0.002144 0.104813 0.290720 0.230375
O21   O     O_R   0.999439 0.988207 0.218929 -0.373551
O22   O     O_R   0.981019 0.285486 0.270874 -0.369946
N2    N     N_R   0.999549 0.891734 0.711256 0.229365
O23   O     O_R   0.001033 0.004510 0.784001 -0.378172
O24   O     O_R   0.022600 0.711893 0.729626 -0.371588
N3    N     N_R   0.476134 0.240720 0.166377 0.233952
O25   O     O_R   0.494966 0.290537 0.258666 -0.378703
O26   O     O_R   0.474327 0.057865 0.143569 -0.378215
N4    N     N_R   0.523833 0.759284 0.833570 0.233940
O27   O     O_R   0.505019 0.709394 0.741292 -0.383666
O28   O     O_R   0.525577 0.942154 0.856332 -0.377639
N5    N     N_R   0.238224 0.872968 0.578012 0.235550
O29   O     O_R   0.275357 0.762592 0.533761 -0.380785
O30   O     O_R   0.277144 0.919792 0.669961 -0.332406
N6    N     N_R   0.765692 0.144092 0.428235 0.249788
O31   O     O_R   0.707902 0.053186 0.450792 -0.408654
O32   O     O_R   0.744395 0.271993 0.356853 -0.332929
N7    N     N_R   0.284964 0.741260 0.966175 0.254378
O33   O     O_R   0.216973 0.652287 0.962621 -0.384011
O34   O     O_R   0.280807 0.918582 0.932694 -0.328037
N8    N     N_R   0.715046 0.258910 0.033850 0.255136
O35   O     O_R   0.783029 0.347919 0.037398 -0.382151
O36   O     O_R   0.719219 0.081592 0.067339 -0.334408

loop_
_geom_bond_atom_site_label_1
_geom_bond_atom_site_label_2
_geom_bond_distance
_ccdc_geom_bond_type
C2    C11   1.467791 S    
C16   C23   1.416024 A    
C31   C32   1.416315 A    
O1    C5    1.286280 A    
N5    O29   1.300119 A    
O3    C7    1.291800 A    
C18   H2    1.081904 S    
C14   C25   1.413961 A    
C29   C30   1.415498 A    
O7    C3    1.319390 A    
O5    C1    1.321637 A    
C26   C30   1.419686 A    
C21   N6    1.441157 S    
O20   V4    2.148502 S    
C24   N7    1.440144 S    
N6    O32   1.301711 A    
C18   C29   1.405725 A    
O8    V4    1.968941 S    
O4    C8    1.290301 A    
O3    V1    2.005452 S    
O17   V1    2.160794 S    
C18   C22   1.401858 A    
C23   N8    1.440120 S    
N1    O22   1.301157 A    
C14   C21   1.414139 A    
C1    O15   1.307457 A    
C2    O16   1.307462 A    
O5    V1    1.973175 S    
O2    C6    1.286317 A    
C8    C14   1.478632 S    
O19   V1    1.692477 S    
N4    O27   1.301121 A    
C27   N4    1.435468 S    
C19   H3    1.082018 S    
O11   C7    1.289199 A    
C15   C28   1.413452 A    
O12   C8    1.289387 A    
C25   N2    1.437035 S    
N5    O30   1.301706 A    
O13   V1    1.975394 S    
O11   V3    2.015089 S    
O4    V2    2.005452 S    
O18   V2    2.160796 S    
N3    O25   1.301111 A    
N6    O31   1.301111 A    
N7    O34   1.301783 A    
C3    C10   1.466859 S    
C9    C10   1.224714 T    
C7    C13   1.479782 S    
O6    V2    1.973174 S    
N3    O26   1.301203 A    
N2    O24   1.301163 A    
O10   V2    1.997956 S    
C5    C15   1.480545 S    
O8    C4    1.319439 A    
C6    C16   1.480528 S    
O9    C5    1.295648 A    
O14   V2    1.975393 S    
C28   N3    1.435454 S    
N8    O35   1.301513 A    
N8    O36   1.301778 A    
O19   V3    2.148501 S    
O1    V3    2.014936 S    
O2    V4    2.014937 S    
C3    O13   1.307474 A    
O7    V3    1.968941 S    
O6    C2    1.321634 A    
C16   C27   1.413476 A    
O17   V3    1.683760 S    
O18   V4    1.683759 S    
C4    C9    1.466904 S    
N2    O23   1.301174 A    
O10   C6    1.295601 A    
C17   H1    1.081651 S    
O15   V3    1.973621 S    
O12   V4    2.015087 S    
C13   C26   1.415235 A    
C20   C31   1.404234 A    
C20   H4    1.081972 S    
C25   C29   1.419341 A    
C27   C31   1.417641 A    
N1    O21   1.301149 A    
C17   C30   1.406801 A    
N7    O33   1.301509 A    
O16   V4    1.973621 S    
C28   C32   1.417630 A    
C19   C32   1.404241 A    
O9    V1    1.997957 S    
C4    O14   1.307462 A    
C11   C12   1.225313 T    
C26   N1    1.436832 S    
C17   C21   1.402532 A    
N4    O28   1.301212 A    
C13   C22   1.416692 A    
C19   C23   1.399476 A    
C22   N5    1.441594 S    
C20   C24   1.399484 A    
C1    C12   1.467793 S    
O20   V2    1.692475 S    
C15   C24   1.416061 A    
