data_mof_unit_49753.cif
_audit_creation_date              2012-12-11T17:46:15-0500
_audit_creation_method            fapswitch 2.2
_symmetry_space_group_name_H-M    P1
_symmetry_Int_Tables_number       1
_space_group_crystal_system       triclinic
_cell_length_a                    6.935121
_cell_length_b                    22.981881
_cell_length_c                    25.462961
_cell_angle_alpha                 90.551715
_cell_angle_beta                  90.227718
_cell_angle_gamma                 89.979382
_cell_volume                      4058.12043756

loop_
_atom_site_label
_atom_site_type_symbol
_atom_type_description
_atom_site_fract_x
_atom_site_fract_y
_atom_site_fract_z
_atom_type_partial_charge
O1    O     O_R   0.692030 0.303130 0.695360 -0.538659
O2    O     O_R   0.307970 0.696870 0.304640 -0.546011
O3    O     O_R   0.363210 0.310250 0.803560 -0.541718
O4    O     O_R   0.636790 0.689750 0.196440 -0.542814
O5    O     O_R   0.192880 0.197710 0.803930 -0.542289
O6    O     O_R   0.807120 0.802290 0.196070 -0.539345
C1    C     C_R   0.531422 0.324319 0.821920 0.710991
C2    C     C_R   0.468333 0.674788 0.178730 0.712492
O7    O     O_R   0.362320 0.310070 0.695740 -0.542238
O8    O     O_R   0.637680 0.689930 0.304260 -0.541554
O9    O     O_R   0.191980 0.197530 0.695350 -0.538838
O10   O     O_R   0.808020 0.802470 0.304650 -0.533616
C3    C     C_R   0.530366 0.323913 0.677271 0.709962
C4    C     C_R   0.469489 0.676111 0.322750 0.700889
O11   O     O_R   0.692920 0.303310 0.803940 -0.537585
O12   O     O_R   0.307080 0.696690 0.196060 -0.537821
O13   O     O_3   0.525970 0.213500 0.749640 -0.370224
O14   O     O_3   0.474030 0.786500 0.250360 -0.365823
V1    V     V_3+5 0.251120 0.257270 0.749650 1.393914
V2    V     V_3+5 0.748880 0.742730 0.250350 1.398512
O15   O     O_R   0.862270 0.190590 0.695730 -0.541444
O16   O     O_R   0.137730 0.809410 0.304270 -0.544617
C5    C     C_R   0.030235 0.175540 0.678210 0.718661
C6    C     C_R   0.970615 0.820961 0.324343 0.706629
O17   O     O_R   0.863160 0.190770 0.803550 -0.543312
O18   O     O_R   0.136840 0.809230 0.196450 -0.543188
C7    C     C_R   0.032039 0.175832 0.820596 0.702961
C8    C     C_R   0.968008 0.823863 0.179101 0.708940
V3    V     V_3+5 0.751120 0.243570 0.749640 1.395309
V4    V     V_3+5 0.248880 0.756430 0.250360 1.393158
O19   O     O_3   0.026140 0.287350 0.749650 -0.368320
O20   O     O_3   0.973860 0.712650 0.250350 -0.370794
C9    C     C_R   0.039138 0.129014 0.859897 -0.070117
C10   C     C_R   0.960944 0.869362 0.138499 -0.074854
C11   C     C_R   0.877725 0.092900 0.866791 -0.218647
C12   C     C_R   0.122952 0.904826 0.130101 -0.215145
C13   C     C_R   0.880013 0.047606 0.903317 0.173598
C14   C     C_R   0.120765 0.948601 0.092051 0.175674
C15   C     C_R   0.046722 0.039746 0.934790 0.147531
C16   C     C_R   0.953500 0.955446 0.060558 0.147727
C17   C     C_R   0.209037 0.074919 0.927002 -0.186998
C18   C     C_R   0.791021 0.920769 0.069654 -0.186896
C19   C     C_R   0.205930 0.119026 0.889748 -0.184740
C20   C     C_R   0.794049 0.878260 0.108384 -0.182981
C21   C     C_2   0.056952 0.995719 0.976337 -0.198130
C22   C     C_2   0.941488 0.998632 0.018322 -0.199147
H1    H     H_    0.750546 0.099058 0.842606 0.129936
H2    H     H_    0.250706 0.899290 0.154183 0.127765
H3    H     H_    0.666810 0.851805 0.114181 0.129340
H4    H     H_    0.332906 0.145846 0.884915 0.128479
H5    H     H_    0.830363 0.031869 0.020863 0.125098
H6    H     H_    0.168202 0.962537 0.973752 0.125182
H7    H     H_    0.337605 0.068851 0.950642 0.115717
H8    H     H_    0.662126 0.926062 0.045995 0.115219
C23   C     C_R   0.970645 0.857129 0.373244 -0.094707
C24   C     C_R   0.032673 0.131206 0.635148 -0.063571
C25   C     C_R   0.070527 0.839137 0.419576 0.076385
C26   C     C_R   0.916633 0.080060 0.637131 0.079115
C27   C     C_R   0.084883 0.878581 0.463476 0.096916
C28   C     C_R   0.878139 0.048451 0.589379 0.095326
C29   C     C_R   0.998347 0.934420 0.460798 0.362904
C30   C     C_R   0.994305 0.059611 0.544510 0.393676
C31   C     C_R   0.893730 0.949716 0.415466 -0.184994
C32   C     C_R   0.119720 0.107245 0.545172 -0.227507
C33   C     C_R   0.880312 0.911599 0.372528 -0.257552
C34   C     C_R   0.135304 0.143378 0.589323 -0.258039
N1    N     N_2   0.013485 0.972582 0.505549 -0.305650
N2    N     N_2   0.981800 0.025280 0.497527 -0.305106
H9    H     H_    0.822303 0.991497 0.413029 0.150963
H10   H     H_    0.203050 0.117228 0.510526 0.143090
H11   H     H_    0.802821 0.925406 0.337778 0.138224
H12   H     H_    0.225653 0.181744 0.587370 0.138717
C35   C     C_R   0.534077 0.368389 0.865013 -0.072688
C36   C     C_R   0.463914 0.628109 0.137768 -0.074007
C37   C     C_R   0.371912 0.374532 0.897543 -0.232865
C38   C     C_R   0.627122 0.592470 0.130250 -0.237540
C39   C     C_R   0.360650 0.418590 0.936177 0.140710
C40   C     C_R   0.627258 0.547107 0.092826 0.123967
C41   C     C_R   0.519099 0.457364 0.943112 0.393397
C42   C     C_R   0.462964 0.538302 0.060881 0.416673
C43   C     C_R   0.679269 0.451363 0.909929 -0.219926
C44   C     C_R   0.300274 0.573790 0.068119 -0.211088
C45   C     C_R   0.688738 0.406924 0.871930 -0.214953
C46   C     C_R   0.299937 0.618069 0.106408 -0.216001
N3    N     N_2   0.521735 0.504116 0.980558 -0.315943
N4    N     N_2   0.455100 0.491252 0.024397 -0.311204
H13   H     H_    0.753769 0.598847 0.154689 0.137862
H14   H     H_    0.250398 0.345364 0.892167 0.135370
H15   H     H_    0.798298 0.481620 0.913677 0.126058
H16   H     H_    0.172859 0.566748 0.044193 0.123000
H17   H     H_    0.814402 0.403852 0.846934 0.136942
H18   H     H_    0.171985 0.644580 0.111261 0.137681
C47   C     C_R   0.535610 0.366052 0.632943 -0.069607
C48   C     C_R   0.463237 0.633976 0.367071 -0.066046
C49   C     C_R   0.372258 0.373953 0.600727 -0.243730
C50   C     C_R   0.626537 0.625404 0.399106 -0.247058
C51   C     C_R   0.374990 0.411810 0.557277 0.137127
C52   C     C_R   0.622396 0.587659 0.442629 0.140729
C53   C     C_R   0.544599 0.444898 0.547306 0.410405
C54   C     C_R   0.451459 0.555290 0.452837 0.410396
C55   C     C_R   0.706512 0.436621 0.579643 -0.228896
C56   C     C_R   0.289799 0.564091 0.420556 -0.235463
C57   C     C_R   0.703168 0.397617 0.621583 -0.210426
C58   C     C_R   0.294382 0.603103 0.378628 -0.215433
N5    N     N_2   0.565739 0.482665 0.503307 -0.315036
N6    N     N_2   0.429515 0.517474 0.496810 -0.314294
H19   H     H_    0.756457 0.649928 0.391206 0.131414
H20   H     H_    0.243494 0.348775 0.608401 0.129101
H21   H     H_    0.837106 0.460915 0.572219 0.127438
H22   H     H_    0.158584 0.540121 0.427964 0.128618
H23   H     H_    0.831729 0.392519 0.645390 0.139936
H24   H     H_    0.165700 0.608733 0.354975 0.142661
C59   C     C_3   0.801412 0.507746 0.088653 -0.351149
C60   C     C_3   0.763434 0.449184 0.114424 -0.736667
H25   H     H_    0.897813 0.422947 0.114450 0.212894
H26   H     H_    0.650282 0.424622 0.092667 0.238922
H27   H     H_    0.716981 0.455769 0.155766 0.224349
H28   H     H_    0.841583 0.501059 0.046830 0.198254
H29   H     H_    0.927777 0.528032 0.108579 0.175125
C61   C     C_3   0.172084 0.424781 0.965397 -0.339115
C62   C     C_3   0.160187 0.381979 0.010707 -0.726622
H30   H     H_    0.175510 0.336591 0.995908 0.216761
H31   H     H_    0.274885 0.390868 0.040219 0.241648
H32   H     H_    0.017658 0.386234 0.029993 0.218608
H33   H     H_    0.147741 0.469896 0.979744 0.196052
H34   H     H_    0.051327 0.415420 0.937919 0.169743
C63   C     C_3   0.798201 0.585777 0.478142 -0.343458
C64   C     C_3   0.759162 0.614481 0.531368 -0.728106
H35   H     H_    0.711536 0.660203 0.525926 0.220432
H36   H     H_    0.646911 0.590492 0.553249 0.247796
H37   H     H_    0.893642 0.614623 0.555184 0.213191
H38   H     H_    0.850448 0.540599 0.483215 0.195551
H39   H     H_    0.919732 0.609461 0.460006 0.167021
C65   C     C_3   0.199126 0.413170 0.521682 -0.344006
C66   C     C_3   0.240630 0.386132 0.467876 -0.722692
H40   H     H_    0.350173 0.411591 0.446362 0.248165
H41   H     H_    0.292784 0.340733 0.472376 0.219295
H42   H     H_    0.106070 0.385402 0.444095 0.211859
H43   H     H_    0.079013 0.388011 0.539195 0.170044
H44   H     H_    0.144176 0.458191 0.517424 0.194481
C67   C     C_3   0.295003 0.988189 0.087782 -0.375543
C68   C     C_3   0.251543 0.049373 0.108421 -0.734243
H45   H     H_    0.139922 0.070892 0.084065 0.231389
H46   H     H_    0.201092 0.047487 0.149724 0.225418
H47   H     H_    0.384776 0.076100 0.107152 0.212536
H48   H     H_    0.417429 0.970818 0.111187 0.177695
H49   H     H_    0.346740 0.990278 0.046747 0.170524
C69   C     C_3   0.706821 0.007446 0.905904 -0.376378
C70   C     C_3   0.752320 0.947585 0.882590 -0.735930
H50   H     H_    0.801336 0.951860 0.841317 0.222159
H51   H     H_    0.865856 0.925360 0.905762 0.231822
H52   H     H_    0.620392 0.920231 0.883011 0.213850
H53   H     H_    0.655467 0.002968 0.946806 0.172364
H54   H     H_    0.583772 0.025758 0.883338 0.177804
C71   C     C_3   0.849477 0.057913 0.690548 -0.374179
C72   C     C_3   0.019772 0.044790 0.727045 -0.755942
H55   H     H_    0.119882 0.013516 0.707796 0.227401
H56   H     H_    0.100356 0.084734 0.737939 0.212945
H57   H     H_    0.965846 0.025048 0.763828 0.217826
H58   H     H_    0.751003 0.089721 0.709530 0.196306
H59   H     H_    0.770262 0.016409 0.687892 0.173901
C73   C     C_3   0.158834 0.778155 0.422114 -0.346681
C74   C     C_3   0.046331 0.737766 0.458070 -0.773834
H60   H     H_    0.055222 0.751772 0.499621 0.243303
H61   H     H_    0.892587 0.735806 0.445781 0.222984
H62   H     H_    0.109122 0.693447 0.455320 0.222165
H63   H     H_    0.160867 0.755905 0.383604 0.191209
H64   H     H_    0.312982 0.780267 0.433735 0.163197
C75   C     C_3   0.703568 0.008096 0.583742 -0.356685
C76   C     C_3   0.561435 0.029455 0.541993 -0.715881
H65   H     H_    0.529466 0.076343 0.548360 0.224296
H66   H     H_    0.618267 0.022872 0.501779 0.241704
H67   H     H_    0.424478 0.004650 0.544778 0.223544
H68   H     H_    0.749895 0.963051 0.574314 0.198251
H69   H     H_    0.616786 0.005686 0.619825 0.168734
C77   C     C_3   0.199897 0.863891 0.512927 -0.327887
C78   C     C_3   0.069718 0.854722 0.560615 -0.748725
H70   H     H_    0.024478 0.896935 0.577972 0.235315
H71   H     H_    0.938995 0.829391 0.549750 0.222552
H72   H     H_    0.150274 0.830690 0.591326 0.209648
H73   H     H_    0.291073 0.824831 0.508185 0.178961
H74   H     H_    0.303281 0.899648 0.521758 0.182442

loop_
_geom_bond_atom_site_label_1
_geom_bond_atom_site_label_2
_ccdc_geom_bond_type
C20   H3    S    
C66   H42   S    
V4    O20   S    
C31   C33   A    
O13   V3    S    
C75   C76   S    
C74   H60   S    
O4    C2    A    
C39   C61   S    
V1    O19   S    
C64   H35   S    
C47   C57   A    
C60   H25   S    
C66   H40   S    
C1    C35   S    
C21   C22   D    
C7    C9    S    
C6    C23   S    
C77   H74   S    
O9    V1    S    
C2    C36   S    
C69   H54   S    
C28   C75   S    
C57   H23   S    
C72   H55   S    
C11   C13   A    
C38   C40   A    
C73   C74   S    
O3    C1    A    
C70   H51   S    
C65   H44   S    
C56   C58   A    
C40   C42   A    
C25   C27   A    
C76   H65   S    
C26   C28   A    
C28   C30   A    
C29   C31   A    
O7    C3    A    
C63   H38   S    
C62   H32   S    
C30   C32   A    
C51   C53   A    
O5    C7    A    
C72   H56   S    
O7    V1    S    
O6    C8    A    
C25   C73   S    
C31   H9    S    
O8    V2    S    
C78   H71   S    
C50   C52   A    
C42   N4    S    
C75   H68   S    
O3    V1    S    
O14   V4    S    
C32   H10   S    
C10   C12   A    
C15   C21   S    
C43   H15   S    
C16   C18   A    
C55   H21   S    
C48   C58   A    
C47   C49   A    
C59   H29   S    
C17   C19   A    
C68   H47   S    
C18   C20   A    
C51   C65   S    
O1    V3    S    
C43   C45   A    
O11   V3    S    
C39   C41   A    
O17   V3    S    
C77   H73   S    
C53   N5    S    
C34   H12   S    
C27   C29   A    
N1    N2    D    
C9    C19   A    
C5    C24   S    
C74   H62   S    
C10   C20   A    
C69   C70   S    
C42   C44   A    
C27   C77   S    
O8    C4    A    
C70   H52   S    
C65   H43   S    
C58   H24   S    
C61   H33   S    
C1    O11   A    
C21   H6    S    
C33   H11   S    
O15   V3    S    
C22   H5    S    
C71   H59   S    
C73   H63   S    
C3    C47   S    
C32   C34   A    
C16   C22   S    
C29   N1    S    
C78   H72   S    
O10   V2    S    
C54   C56   A    
C75   H69   S    
C48   C50   A    
C37   C39   A    
C38   H13   S    
C17   H7    S    
C62   H30   S    
C61   H34   S    
C36   C38   A    
C67   H48   S    
C73   H64   S    
C4    C48   S    
C77   C78   S    
C53   C55   A    
C50   H19   S    
O18   V4    S    
C44   C46   A    
C23   C25   A    
C14   C67   S    
O16   C6    A    
C56   H22   S    
C40   C59   S    
O1    C3    A    
C69   H53   S    
C35   C37   A    
C63   C64   S    
C64   H37   S    
C41   N3    S    
C68   H46   S    
O6    V2    S    
C61   C62   S    
C41   C43   A    
C59   C60   S    
V2    O20   S    
C26   C71   S    
C66   H41   S    
C52   C63   S    
O16   V4    S    
C74   H61   S    
C71   H58   S    
C23   C33   A    
O18   C8    A    
C72   H57   S    
C63   H39   S    
C36   C46   A    
N3    N4    D    
C60   H26   S    
C49   C51   A    
C19   H4    S    
C65   C66   S    
O5    V1    S    
C64   H36   S    
O17   C7    A    
C45   H17   S    
N5    N6    D    
O10   C6    A    
C54   N6    S    
C44   H16   S    
C55   C57   A    
C30   N2    S    
O2    V4    S    
O15   C5    A    
V3    O19   S    
C67   C68   S    
C18   H8    S    
C12   C14   A    
C14   C16   A    
C9    C11   A    
C76   H66   S    
C24   C34   A    
O9    C5    A    
O13   V1    S    
C24   C26   A    
C12   H2    S    
O14   V2    S    
C13   C69   S    
O2    C4    A    
C52   C54   A    
C62   H31   S    
C60   H27   S    
C49   H20   S    
C67   H49   S    
C8    C10   S    
C59   H28   S    
O4    V2    S    
C37   H14   S    
C13   C15   A    
C15   C17   A    
C2    O12   A    
C78   H70   S    
C71   C72   S    
C68   H45   S    
C46   H18   S    
C11   H1    S    
C70   H50   S    
O12   V4    S    
C35   C45   A    
C76   H67   S    
