data_mof_unit_42827.cif
_audit_creation_date              2012-12-11T14:50:32-0500
_audit_creation_method            fapswitch 2.2
_symmetry_space_group_name_H-M    P1
_symmetry_Int_Tables_number       1
_space_group_crystal_system       triclinic
_cell_length_a                    10.885066
_cell_length_b                    10.907959
_cell_length_c                    18.818826
_cell_angle_alpha                 90.384367
_cell_angle_beta                  89.805638
_cell_angle_gamma                 60.278738
_cell_volume                      1940.38513277

loop_
_atom_site_label
_atom_site_type_symbol
_atom_type_description
_atom_site_fract_x
_atom_site_fract_y
_atom_site_fract_z
_atom_type_partial_charge
C1    C     C_R   0.237794 0.646060 0.610114 0.539084
C2    C     C_3   0.668459 0.553801 0.799854 -0.260223
C3    C     C_3   0.700495 0.674784 0.811861 0.032868
C4    C     C_3   0.670714 0.648473 0.676157 0.055516
C5    C     C_3   0.820821 0.627267 0.690094 -0.084526
C6    C     C_3   0.652865 0.536749 0.719919 -0.235014
C7    C     C_R   0.788734 0.142102 0.708717 -0.102776
C8    C     C_R   0.806049 0.122520 0.782135 -0.131025
C9    C     C_R   0.687095 0.163735 0.826258 0.019617
C10   C     C_R   0.551622 0.231975 0.797123 -0.145307
C11   C     C_R   0.535286 0.245363 0.724650 -0.135981
C12   C     C_R   0.653618 0.622149 0.601039 0.536342
C13   C     C_R   0.653053 0.198903 0.679597 0.060049
C14   C     C_R   0.189423 0.554983 0.721509 -0.153329
C15   C     C_R   0.179363 0.559926 0.795387 -0.156687
C16   C     C_R   0.174611 0.673780 0.833069 0.026455
C17   C     C_R   0.188915 0.777356 0.796437 -0.144675
C18   C     C_R   0.196345 0.773745 0.723370 -0.128084
C19   C     C_R   0.197897 0.662149 0.685063 0.048234
C20   C     C_R   0.729796 0.526001 0.271608 -0.123031
C21   C     C_R   0.728052 0.538605 0.198823 -0.129675
C22   C     C_R   0.650459 0.671385 0.167739 0.029580
C23   C     C_R   0.625496 0.233325 0.604550 0.561484
C24   C     C_R   0.561805 0.789369 0.210327 -0.128591
C25   C     C_R   0.559272 0.775386 0.283951 -0.132367
C26   C     C_R   0.647671 0.644165 0.315046 0.035013
C27   C     C_R   0.542657 0.159534 0.287468 -0.136277
C28   C     C_R   0.542294 0.155244 0.214658 -0.137997
C29   C     C_R   0.650966 0.158271 0.176309 0.038980
C30   C     C_R   0.756760 0.172122 0.211590 -0.145179
C31   C     C_R   0.756062 0.178308 0.284923 -0.146781
C32   C     C_R   0.646828 0.175754 0.322988 0.037939
C33   C     C_R   0.088090 0.803399 0.305144 -0.135313
C34   C     C_R   0.218981 0.649575 0.402457 0.551555
C35   C     C_R   0.069303 0.815589 0.233028 -0.121550
C36   C     C_R   0.107299 0.695211 0.190618 0.039093
C37   C     C_R   0.152081 0.564222 0.221683 -0.138270
C38   C     C_R   0.173172 0.551417 0.294392 -0.128265
C39   C     C_R   0.148991 0.670086 0.335296 0.031679
C40   C     C_R   0.701822 0.103720 0.896674 0.543751
C41   C     C_R   0.724030 0.688378 0.887920 0.540849
C42   C     C_R   0.117806 0.706638 0.905265 0.543720
C43   C     C_R   0.674305 0.108110 0.103911 0.546254
C44   C     C_R   0.693858 0.689911 0.097093 0.547181
C45   C     C_R   0.640307 0.619965 0.390658 0.549789
C46   C     C_R   0.082688 0.715325 0.115464 0.552884
C47   C     C_R   0.618023 0.227614 0.395164 0.553548
C48   C     C_3   0.576048 0.814060 0.781912 -0.223756
C49   C     C_3   0.555506 0.796950 0.702462 -0.223772
C50   C     C_3   0.837595 0.642807 0.770511 -0.188513
Cr1   Cr    Cr6+3 0.392930 0.397900 0.502230 1.007819
Cr2   Cr    Cr6+3 0.398240 0.708600 0.501260 1.015197
Cr3   Cr    Cr6+3 0.708800 0.393470 0.496460 1.007533
Cr4   Cr    Cr6+3 0.937620 0.938540 0.007640 1.009497
Cr5   Cr    Cr6+3 0.625150 0.937450 0.994520 1.009098
Cr6   Cr    Cr6+3 0.937990 0.625080 0.001190 1.011025
H1    H     H_    0.598349 0.902608 0.788982 0.169031
H2    H     H_    0.733919 0.428041 0.703374 0.139542
H3    H     H_    0.927702 0.542026 0.789532 0.111139
H4    H     H_    0.900632 0.517149 0.674549 0.087745
H5    H     H_    0.880483 0.109809 0.674789 0.126141
H6    H     H_    0.911882 0.068175 0.803687 0.127390
H7    H     H_    0.458231 0.265569 0.830057 0.128334
H8    H     H_    0.429282 0.293202 0.703885 0.133196
H9    H     H_    0.190747 0.467790 0.693014 0.108272
H10   H     H_    0.168197 0.478815 0.822615 0.118415
H11   H     H_    0.185639 0.866707 0.823733 0.124245
H12   H     H_    0.476299 0.842551 0.811281 0.116620
H13   H     H_    0.203913 0.857847 0.697157 0.124065
H14   H     H_    0.795645 0.422480 0.293745 0.131630
H15   H     H_    0.796210 0.445629 0.167253 0.125570
H16   H     H_    0.501264 0.893167 0.187371 0.126763
H17   H     H_    0.491497 0.866849 0.316478 0.119096
H18   H     H_    0.456729 0.157370 0.315598 0.125888
H19   H     H_    0.460360 0.142731 0.188806 0.124099
H20   H     H_    0.842795 0.172606 0.182719 0.114794
H21   H     H_    0.837712 0.189976 0.311583 0.114941
H22   H     H_    0.065945 0.896213 0.336267 0.126477
H23   H     H_    0.448506 0.809834 0.694902 0.124008
H24   H     H_    0.027485 0.919592 0.210435 0.138395
H25   H     H_    0.176022 0.471929 0.189721 0.120437
H26   H     H_    0.219117 0.447154 0.317310 0.134709
H27   H     H_    0.558958 0.881569 0.671478 0.171061
H28   H     H_    0.864457 0.727059 0.781974 0.169898
H29   H     H_    0.755210 0.453187 0.821289 0.132495
H30   H     H_    0.569078 0.577227 0.828170 0.123931
H31   H     H_    0.547321 0.547125 0.709794 0.129960
O1    O     O_R   0.507430 0.255570 0.581420 -0.522943
O2    O     O_R   0.524460 0.695920 0.424060 -0.498598
O3    O     O_R   0.736530 0.504260 0.414810 -0.527435
O4    O     O_R   0.691460 0.277160 0.422180 -0.507031
O5    O     O_3   0.499990 0.499990 0.499980 -0.248127
O6    O     O_R   0.089490 0.825610 0.930610 -0.525031
O7    O     O_R   0.818370 0.054540 0.929880 -0.506123
O8    O     O_R   0.605870 0.077310 0.915530 -0.527100
O9    O     O_R   0.646440 0.806700 0.917570 -0.508533
O10   O     O_R   0.837200 0.593290 0.915250 -0.528967
O11   O     O_R   0.065330 0.635370 0.931590 -0.508785
O12   O     O_R   0.280190 0.527390 0.578910 -0.518034
O13   O     O_R   0.068300 0.828790 0.091860 -0.528940
O14   O     O_R   0.798730 0.057480 0.079370 -0.511486
O15   O     O_R   0.584680 0.080480 0.076790 -0.528092
O16   O     O_R   0.626790 0.809640 0.067050 -0.504107
O17   O     O_R   0.816010 0.596460 0.076500 -0.521397
O18   O     O_R   0.045680 0.638310 0.081070 -0.502444
O19   O     O_3   0.833590 0.833690 0.001120 -0.246150
O20   O     O_R   0.260310 0.739740 0.584580 -0.527901
O21   O     O_R   0.532250 0.695150 0.573830 -0.507561
O22   O     O_R   0.744930 0.503430 0.576380 -0.537578
O23   O     O_R   0.699250 0.276390 0.571950 -0.511587
O24   O     O_R   0.499020 0.256400 0.419850 -0.526463
O25   O     O_R   0.272400 0.528160 0.429140 -0.509305
O26   O     O_R   0.251910 0.740570 0.423020 -0.518401
C51   C     C_2   0.853894 0.722882 0.645836 0.193743
H32   H     H_    0.916248 0.681773 0.597502 0.113679
O27   O     O_2   0.808945 0.846386 0.662352 -0.532259

loop_
_geom_bond_atom_site_label_1
_geom_bond_atom_site_label_2
_ccdc_geom_bond_type
Cr3   O23   S    
Cr1   O25   S    
C5    C51   S    
C42   O6    A    
C34   O25   A    
C3    C48   S    
Cr4   O14   S    
C35   C36   A    
Cr6   O11   S    
C37   H25   S    
C1    O12   A    
C51   H32   S    
C44   O17   A    
C50   H28   S    
C7    C8    A    
Cr2   O26   S    
C34   O26   A    
Cr5   O15   S    
C33   C39   A    
C21   H15   S    
C50   H3    S    
C36   C37   A    
C42   O11   A    
C38   C39   A    
C33   H22   S    
C41   O9    A    
C15   C16   A    
C46   O18   A    
Cr5   O16   S    
C35   H24   S    
C13   C23   S    
C2    H29   S    
C18   C19   A    
C6    H2    S    
C7    H5    S    
Cr4   O6    S    
C26   C45   S    
C33   C35   A    
C3    C50   S    
C22   C44   S    
C10   H7    S    
Cr2   O20   S    
C8    C9    A    
Cr3   O4    S    
C36   C46   S    
C4    C12   S    
C29   C30   A    
C45   O2    A    
C9    C10   A    
C25   H17   S    
C18   H13   S    
C21   C22   A    
C29   C43   S    
C20   H14   S    
Cr2   O2    S    
C2    C6    S    
Cr6   O10   S    
C12   O22   A    
C44   O16   A    
C31   H21   S    
Cr1   O12   S    
C17   H11   S    
C1    C19   S    
Cr4   O19   S    
Cr5   O19   S    
C34   C39   S    
C48   H1    S    
C24   C25   A    
Cr6   O17   S    
Cr5   O8    S    
C11   H8    S    
C12   O21   A    
C16   C17   A    
C25   C26   A    
C15   H10   S    
C9    C40   S    
C6    H31   S    
C49   H23   S    
C43   O14   A    
C37   C38   A    
Cr1   O5    S    
C30   H20   S    
C31   C32   A    
C7    C13   A    
Cr3   O5    S    
C17   C18   A    
C48   H12   S    
C45   O3    A    
Cr6   O19   S    
C1    O20   A    
C4    C6    S    
C48   C49   S    
C23   O1    A    
C32   C47   S    
C41   O10   A    
C5    C50   S    
Cr2   O5    S    
C40   O8    A    
C27   H18   S    
C16   C42   S    
Cr3   O3    S    
C24   H16   S    
Cr3   O22   S    
C23   O23   A    
C46   O13   A    
C28   C29   A    
Cr1   O24   S    
C5    H4    S    
C27   C32   A    
C47   O4    A    
C14   C19   A    
C40   O7    A    
Cr5   O9    S    
Cr1   O1    S    
C51   O27   D    
C4    C49   S    
C49   H27   S    
C2    C3    S    
C43   O15   A    
C11   C13   A    
C30   C31   A    
C20   C26   A    
C47   O24   A    
Cr4   O13   S    
C14   H9    S    
C2    H30   S    
C22   C24   A    
Cr6   O18   S    
Cr4   O7    S    
C3    C41   S    
C10   C11   A    
C4    C5    S    
C20   C21   A    
Cr2   O21   S    
C27   C28   A    
C14   C15   A    
C28   H19   S    
C38   H26   S    
C8    H6    S    
