data_mof_unit_27939.cif
_audit_creation_date              2012-12-10T16:48:45-0500
_audit_creation_method            fapswitch 2.2
_symmetry_space_group_name_H-M    P1
_symmetry_Int_Tables_number       1
_space_group_crystal_system       triclinic
_cell_length_a                    17.109953
_cell_length_b                    8.69013
_cell_length_c                    7.437507
_cell_angle_alpha                 103.027873
_cell_angle_beta                  89.800685
_cell_angle_gamma                 92.787445
_cell_volume                      1076.09492141

loop_
_atom_site_label
_atom_site_type_symbol
_atom_type_description
_atom_site_fract_x
_atom_site_fract_y
_atom_site_fract_z
_atom_type_partial_charge
C1    C     C_R   0.497640 0.199721 0.453600 0.885138
C2    C     C_R   0.502360 0.800279 0.546400 0.885157
C3    C     C_2   0.496508 0.031841 0.427468 -0.374940
C4    C     C_2   0.503492 0.968159 0.572531 -0.374946
C5    C     C_R   0.351026 0.506195 0.527452 0.780356
C6    C     C_R   0.648972 0.493783 0.472543 0.780354
C7    C     C_R   0.267165 0.525134 0.549169 -0.015810
C8    C     C_R   0.732829 0.474799 0.450784 -0.015825
C9    C     C_R   0.228305 0.604477 0.433982 -0.195532
C10   C     C_R   0.771671 0.395229 0.565756 -0.195525
C11   C     C_R   0.148054 0.620143 0.448917 -0.198396
C12   C     C_R   0.851921 0.379520 0.550760 -0.198451
C13   C     C_R   0.105728 0.552262 0.575055 0.196065
C14   C     C_R   0.894249 0.447509 0.424719 0.195981
C15   C     C_R   0.144511 0.476610 0.693982 -0.179496
C16   C     C_R   0.855478 0.523384 0.306003 -0.179254
C17   C     C_R   0.225426 0.464950 0.682827 -0.206076
C18   C     C_R   0.774570 0.535145 0.317262 -0.206113
C19   C     C_2   0.019738 0.549284 0.571598 0.035572
C20   C     C_2   0.980238 0.450480 0.428154 0.035547
Cu1   Cu    Cu3+1 0.508700 0.517250 0.683000 0.947897
Cu2   Cu    Cu3+1 0.491300 0.482750 0.317000 0.947894
H1    H     H_    0.260064 0.654078 0.332312 0.151872
H2    H     H_    0.739901 0.345493 0.667296 0.151850
H3    H     H_    0.745092 0.595984 0.226947 0.142055
H4    H     H_    0.254916 0.404314 0.773347 0.142080
H5    H     H_    0.111878 0.423759 0.791735 0.133936
H6    H     H_    0.888116 0.576358 0.208370 0.133907
H7    H     H_    0.881583 0.319629 0.641825 0.129871
H8    H     H_    0.118387 0.679902 0.357717 0.129839
H9    H     H_    0.489922 0.960290 0.287651 0.179739
H10   H     H_    0.510078 0.039710 0.712349 0.179740
H11   H     H_    0.438998 0.379252 0.958476 0.223884
H12   H     H_    0.561002 0.620748 0.041524 0.223891
N1    N     N_2   0.478180 0.456750 0.041980 -0.217216
N2    N     N_2   0.521820 0.543250 0.958020 -0.217207
O1    O     O_R   0.505650 0.286040 0.618880 -0.585201
O2    O     O_R   0.494350 0.713960 0.381120 -0.585198
O3    O     O_R   0.490960 0.256910 0.309800 -0.583582
O4    O     O_R   0.509040 0.743090 0.690200 -0.583581
O5    O     O_R   0.394600 0.516230 0.672450 -0.587780
O6    O     O_R   0.605400 0.483770 0.327550 -0.587759
O7    O     O_R   0.379910 0.487100 0.363380 -0.583414
O8    O     O_R   0.620090 0.512900 0.636620 -0.583390
C21   C     C_3   0.023381 0.343931 0.271049 -0.394056
C22   C     C_3   0.970746 0.224435 0.136113 -0.846839
H13   H     H_    0.935772 0.147770 0.210579 0.258202
H14   H     H_    0.931142 0.285856 0.060642 0.251333
H15   H     H_    0.007691 0.148579 0.032922 0.237741
H16   H     H_    0.056537 0.418402 0.190809 0.200756
H17   H     H_    0.065733 0.275753 0.330754 0.213846
C23   C     C_3   0.976599 0.655683 0.728841 -0.394103
C24   C     C_3   0.029190 0.775932 0.863005 -0.846718
H18   H     H_    0.069229 0.715172 0.938218 0.251538
H19   H     H_    0.063706 0.852781 0.787929 0.258060
H20   H     H_    0.992245 0.851501 0.966479 0.237727
H21   H     H_    0.933917 0.723304 0.669322 0.213993
H22   H     H_    0.943812 0.581100 0.809566 0.200581

loop_
_geom_bond_atom_site_label_1
_geom_bond_atom_site_label_2
_ccdc_geom_bond_type
C16   H6    S    
C2    C4    S    
C15   C17   A    
C2    O4    A    
C12   H7    S    
Cu1   O8    S    
C11   C13   A    
C2    O2    A    
C15   H5    S    
C20   C21   S    
C1    O1    A    
C19   C20   D    
C24   H19   S    
C5    O7    A    
Cu1   N2    S    
C4    H10   S    
C21   C22   S    
C3    H9    S    
Cu2   N1    S    
C9    C11   A    
C22   H15   S    
Cu2   O6    S    
Cu1   O4    S    
C10   C12   A    
C21   H16   S    
C11   H8    S    
Cu1   O5    S    
C17   H4    S    
C8    C10   A    
H11   N1    S    
C12   C14   A    
H12   N2    S    
C13   C15   A    
C23   H22   S    
C18   H3    S    
C14   C16   A    
C23   H21   S    
C1    O3    A    
C5    O5    A    
C3    C4    D    
Cu2   O2    S    
C22   H14   S    
C14   C20   S    
Cu1   O1    S    
C23   C24   S    
C6    O8    A    
C7    C9    A    
C6    O6    A    
C24   H20   S    
C1    C3    S    
C5    C7    S    
C21   H17   S    
C22   H13   S    
C9    H1    S    
C13   C19   S    
C6    C8    S    
C10   H2    S    
Cu1   Cu2   S    
Cu2   O3    S    
C19   C23   S    
C16   C18   A    
C8    C18   A    
Cu2   O7    S    
C24   H18   S    
C7    C17   A    
N1    N2    D    
