data_mof_unit_22435.cif
_audit_creation_date              2012-12-10T20:32:45-0500
_audit_creation_method            fapswitch 2.2
_symmetry_space_group_name_H-M    P1
_symmetry_Int_Tables_number       1
_space_group_crystal_system       triclinic
_cell_length_a                    11.535836
_cell_length_b                    10.719108
_cell_length_c                    9.877448
_cell_angle_alpha                 89.137875
_cell_angle_beta                  90.447774
_cell_angle_gamma                 90.252433
_cell_volume                      1221.19790031

loop_
_atom_site_label
_atom_site_type_symbol
_atom_type_description
_atom_site_fract_x
_atom_site_fract_y
_atom_site_fract_z
_atom_type_partial_charge
C1    C     C_R   0.503334 0.259952 0.500716 0.874382
C2    C     C_R   0.593527 0.541195 0.072003 -0.141182
C3    C     C_R   0.593523 0.541193 0.928239 -0.133546
C4    C     C_R   0.281932 0.500567 0.499664 0.902704
C5    C     C_R   0.401799 0.469876 0.928196 0.191542
C6    C     C_3   0.339268 0.348784 0.921354 -0.555205
C7    C     C_3   0.340685 0.345555 0.075374 -0.240307
C8    C     C_R   0.501572 0.739889 0.499105 0.877776
C9    C     C_R   0.718098 0.500794 0.500515 0.904109
C10   C     C_1   0.161547 0.503242 0.499655 -0.185364
C11   C     C_1   0.059410 0.505103 0.501244 0.010545
C12   C     C_R   0.519906 0.128401 0.501345 -0.089045
C13   C     C_1   0.940753 0.505231 0.502387 -0.013897
C14   C     C_1   0.838558 0.503491 0.501846 -0.213851
C15   C     C_R   0.519672 0.060985 0.622852 0.082126
C16   C     C_R   0.220773 0.346627 0.136793 0.215295
C17   C     C_R   0.187752 0.248456 0.224413 -0.151491
C18   C     C_R   0.074323 0.240619 0.272705 -0.155070
C19   C     C_R   0.992859 0.330651 0.234186 -0.096420
C20   C     C_R   0.025412 0.430594 0.150223 -0.141820
C21   C     C_R   0.138797 0.439023 0.101837 -0.143614
C22   C     C_3   0.310240 0.879987 0.705211 -0.868405
C23   C     C_R   0.538842 0.066469 0.379046 -0.235852
C24   C     C_R   0.536922 0.937344 0.377768 -0.233501
C25   C     C_R   0.514911 0.871420 0.498479 -0.091390
C26   C     C_R   0.513764 0.933960 0.620755 0.110012
C27   C     C_3   0.433020 0.926413 0.739008 -0.010083
C28   C     C_3   0.441782 0.067818 0.742682 -0.499082
C29   C     C_R   0.401626 0.469241 0.071136 0.175318
H1    H     H_    0.548003 0.116844 0.283792 0.167012
H2    H     H_    0.252368 0.358621 0.872979 0.205285
H3    H     H_    0.249139 0.176459 0.253291 0.121192
H4    H     H_    0.049270 0.164002 0.338994 0.133024
H5    H     H_    0.904758 0.323657 0.270523 0.135162
H6    H     H_    0.962457 0.501007 0.121710 0.129564
H7    H     H_    0.161803 0.515953 0.034896 0.120334
H8    H     H_    0.277860 0.921974 0.608571 0.242315
H9    H     H_    0.309289 0.776945 0.696878 0.255869
H10   H     H_    0.250551 0.905586 0.787837 0.240276
H11   H     H_    0.394047 0.276357 0.877135 0.207714
H12   H     H_    0.397695 0.270492 0.117207 0.159036
H13   H     H_    0.545841 0.890290 0.282132 0.170716
H14   H     H_    0.472742 0.879471 0.829109 0.166998
H15   H     H_    0.359479 0.117767 0.719219 0.211053
H16   H     H_    0.489824 0.100145 0.833647 0.174649
H17   H     H_    0.669837 0.572684 0.126034 0.149380
H18   H     H_    0.669812 0.572627 0.874494 0.150194
N1    N     N_R   0.499240 0.499140 0.142800 -0.113127
N2    N     N_R   0.499240 0.499180 0.857150 -0.100077
O1    O     O_R   0.500010 0.316790 0.614690 -0.611894
O2    O     O_R   0.500000 0.316760 0.385350 -0.629742
O3    O     O_R   0.334450 0.500030 0.614670 -0.619666
O4    O     O_R   0.334440 0.500000 0.385330 -0.602793
O5    O     O_R   0.500000 0.683240 0.614650 -0.622272
O6    O     O_R   0.499990 0.683210 0.385310 -0.622817
O7    O     O_R   0.665560 0.500000 0.614670 -0.616038
O8    O     O_R   0.665550 0.499970 0.385330 -0.623762
Zn1   Zn    Zn3+2 0.500010 0.500020 0.653130 0.938230
Zn2   Zn    Zn3+2 0.499990 0.499980 0.346870 0.939496

loop_
_geom_bond_atom_site_label_1
_geom_bond_atom_site_label_2
_ccdc_geom_bond_type
C26   C27   S    
C23   C24   A    
C24   C25   A    
C6    C7    S    
C7    C29   S    
O6    Zn2   S    
C4    O4    A    
C11   C13   S    
C1    O1    A    
C5    C29   A    
C19   C20   A    
C12   C15   A    
C9    C14   S    
C22   H8    S    
C17   C18   A    
O4    Zn2   S    
C21   H7    S    
C13   C14   T    
C2    H17   S    
C8    C25   S    
C1    O2    A    
C12   C23   A    
C5    N2    A    
C15   C28   S    
C16   C21   A    
C1    C12   S    
O3    Zn1   S    
C4    O3    A    
C22   H10   S    
C8    O6    A    
C3    H18   S    
C7    C16   S    
O7    Zn1   S    
C2    C3    A    
C9    O8    A    
C22   C27   S    
C7    H12   S    
C3    N2    A    
C5    C6    S    
C18   H4    S    
C6    H11   S    
C28   H16   S    
O8    Zn2   S    
O2    Zn2   S    
C10   C11   T    
C29   N1    A    
C4    C10   S    
O1    Zn1   S    
C23   H1    S    
C27   H14   S    
C24   H13   S    
C20   C21   A    
N1    Zn2   S    
C18   C19   A    
O5    Zn1   S    
C8    O5    A    
C27   C28   S    
C9    O7    A    
C17   H3    S    
C15   C26   A    
C6    H2    S    
C2    N1    A    
C25   C26   A    
C20   H6    S    
C28   H15   S    
N2    Zn1   S    
C16   C17   A    
C19   H5    S    
C22   H9    S    
