data_mof_unit_24882.cif
_audit_creation_date              2012-12-10T20:35:55-0500
_audit_creation_method            fapswitch 2.2
_symmetry_space_group_name_H-M    P1
_symmetry_Int_Tables_number       1
_space_group_crystal_system       triclinic
_cell_length_a                    15.764931
_cell_length_b                    10.681919
_cell_length_c                    9.86711
_cell_angle_alpha                 89.888429
_cell_angle_beta                  89.745983
_cell_angle_gamma                 90.241885
_cell_volume                      1661.58417344

loop_
_atom_site_label
_atom_site_type_symbol
_atom_type_description
_atom_site_fract_x
_atom_site_fract_y
_atom_site_fract_z
_atom_type_partial_charge
C1    C     C_R   0.502374 0.259999 0.500107 0.874572
C2    C     C_R   0.515373 0.128711 0.500447 -0.104800
C3    C     C_R   0.530003 0.065217 0.378337 -0.223844
C4    C     C_R   0.338450 0.499956 0.500317 0.909366
C5    C     C_R   0.529562 0.935903 0.378139 -0.204922
C6    C     C_R   0.515022 0.871621 0.500137 -0.104460
C7    C     C_R   0.516160 0.936012 0.622705 0.127903
C8    C     C_3   0.456841 0.928399 0.741182 -0.465687
C9    C     C_3   0.456919 0.070359 0.741272 -0.482621
C10   C     C_R   0.450581 0.416828 0.071748 0.180112
C11   C     C_R   0.554771 0.573792 0.070752 0.005906
C12   C     C_3   0.949484 0.488126 0.646993 -0.213659
C13   C     C_R   0.554458 0.573788 0.926814 -0.162192
C14   C     C_R   0.450666 0.416757 0.929272 0.201333
C15   C     C_3   0.356410 0.406139 0.924061 -0.486542
C16   C     C_R   0.502267 0.740071 0.499881 0.884029
C17   C     C_3   0.356283 0.406444 0.077947 -0.470018
C18   C     C_R   0.661594 0.500255 0.499672 0.908206
C19   C     C_3   0.048241 0.475876 0.644977 -0.232959
C20   C     C_3   0.048646 0.408134 0.402242 -0.190105
C21   C     C_3   0.950552 0.406430 0.405915 -0.453887
C22   C     C_1   0.750193 0.503624 0.499080 -0.162226
C23   C     C_3   0.916968 0.511992 0.499561 0.186516
C24   C     C_3   0.083061 0.512249 0.500311 0.144849
C25   C     C_1   0.091772 0.539866 0.758833 0.227714
C26   C     C_1   0.917712 0.584284 0.742874 0.201688
C27   C     C_1   0.916413 0.669138 0.308962 0.193994
C28   C     C_1   0.613231 0.654830 0.139979 0.228653
C29   C     C_1   0.080586 0.418178 0.261496 0.205920
C30   C     C_1   0.074732 0.743422 0.555087 0.145478
C31   C     C_1   0.090734 0.688221 0.327124 0.185224
C32   C     C_3   0.949922 0.641724 0.446436 -0.216288
C33   C     C_3   0.049953 0.646496 0.455669 -0.034249
C34   C     C_1   0.825283 0.507389 0.499032 -0.069674
C35   C     C_1   0.174932 0.507107 0.500821 -0.079785
C36   C     C_1   0.249951 0.503203 0.500829 -0.175567
C37   C     C_R   0.516250 0.063750 0.622853 0.139849
H1    H     H_    0.922789 0.397276 0.683360 0.137762
H2    H     H_    0.071016 0.315288 0.438852 0.138676
H3    H     H_    0.928411 0.313900 0.444892 0.170827
H4    H     H_    0.534556 0.887522 0.282156 0.179322
H5    H     H_    0.487708 0.111365 0.832208 0.205931
H6    H     H_    0.062772 0.375116 0.662191 0.132410
H7    H     H_    0.335419 0.315462 0.880145 0.197381
H8    H     H_    0.923318 0.416000 0.302392 0.198237
H9    H     H_    0.921845 0.715816 0.511866 0.139375
H10   H     H_    0.535699 0.114314 0.282524 0.174436
H11   H     H_    0.394278 0.886833 0.714667 0.211185
H12   H     H_    0.487643 0.887293 0.832034 0.205689
H13   H     H_    0.394422 0.111453 0.714743 0.202036
H14   H     H_    0.597008 0.634950 0.870896 0.155781
H15   H     H_    0.325976 0.490366 0.879544 0.231947
H16   H     H_    0.325845 0.490923 0.121974 0.232274
H17   H     H_    0.335061 0.316010 0.122830 0.203114
N1    N     N_R   0.499430 0.499140 0.142800 -0.128672
N2    N     N_R   0.499430 0.499180 0.857150 -0.109329
N3    N     N_1   0.125863 0.589197 0.847752 -0.166698
N4    N     N_1   0.892853 0.659174 0.817595 -0.178182
N5    N     N_1   0.890209 0.690379 0.202007 -0.165295
N6    N     N_1   0.660709 0.720024 0.194915 -0.207096
N7    N     N_1   0.105619 0.425337 0.151287 -0.184045
N8    N     N_1   0.094016 0.819787 0.632278 -0.187992
N9    N     N_1   0.122640 0.721207 0.227272 -0.174579
O1    O     O_R   0.500010 0.316790 0.614690 -0.616351
O2    O     O_R   0.500000 0.316760 0.385350 -0.625449
O3    O     O_R   0.377150 0.500020 0.614720 -0.617218
O4    O     O_R   0.377140 0.499990 0.385380 -0.614438
O5    O     O_R   0.500000 0.683240 0.614650 -0.619587
O6    O     O_R   0.499990 0.683210 0.385310 -0.621260
O7    O     O_R   0.622860 0.500010 0.614620 -0.616684
O8    O     O_R   0.622850 0.499980 0.385280 -0.609065
Zn1   Zn    Zn3+2 0.500010 0.500020 0.653130 0.949509
Zn2   Zn    Zn3+2 0.499990 0.499980 0.346870 0.958224

loop_
_geom_bond_atom_site_label_1
_geom_bond_atom_site_label_2
_ccdc_geom_bond_type
C18   O7    A    
C4    O4    A    
C14   N2    A    
C8    H11   S    
O6    Zn2   S    
C6    C7    A    
O4    Zn2   S    
C17   H16   S    
C18   C22   S    
C11   C13   A    
C1    O2    A    
C24   C33   S    
C12   C23   S    
O5    Zn1   S    
C13   N2    A    
C23   C32   S    
C23   C34   S    
C4    C36   S    
C2    C3    A    
C7    C37   A    
O2    Zn2   S    
C7    C8    S    
C27   N5    T    
C15   H15   S    
C32   C33   S    
C4    O3    A    
C10   N1    A    
C26   N4    T    
C2    C37   A    
C9    H5    S    
C21   H3    S    
C25   N3    T    
C11   C28   S    
C16   O5    A    
C8    H12   S    
C12   C19   S    
C3    H10   S    
C19   H6    S    
C15   H7    S    
C19   C24   S    
C21   H8    S    
C20   C29   S    
C30   N8    T    
C21   C23   S    
C12   H1    S    
C5    C6    A    
C22   C34   T    
C29   N7    T    
C9    C37   S    
C28   N6    T    
C24   C35   S    
C31   C33   S    
C9    H13   S    
C19   C25   S    
C6    C16   S    
N1    Zn2   S    
C1    O1    A    
C31   N9    T    
C11   N1    A    
C20   C21   S    
O8    Zn2   S    
C1    C2    S    
C10   C14   A    
C18   O8    A    
C15   C17   S    
C20   H2    S    
C5    H4    S    
C14   C15   S    
O7    Zn1   S    
C10   C17   S    
C30   C33   S    
N2    Zn1   S    
C27   C32   S    
C13   H14   S    
C32   H9    S    
C17   H17   S    
O3    Zn1   S    
C16   O6    A    
C20   C24   S    
O1    Zn1   S    
C12   C26   S    
C8    C9    S    
C3    C5    A    
C35   C36   T    
