data_mof_unit_37555.cif
_audit_creation_date              2012-12-10T20:37:26-0500
_audit_creation_method            fapswitch 2.2
_symmetry_space_group_name_H-M    P1
_symmetry_Int_Tables_number       1
_space_group_crystal_system       triclinic
_cell_length_a                    15.720654
_cell_length_b                    10.695946
_cell_length_c                    9.914466
_cell_angle_alpha                 89.687605
_cell_angle_beta                  89.396332
_cell_angle_gamma                 90.307649
_cell_volume                      1666.94849683

loop_
_atom_site_label
_atom_site_type_symbol
_atom_type_description
_atom_site_fract_x
_atom_site_fract_y
_atom_site_fract_z
_atom_type_partial_charge
C1    C     C_R   0.502131 0.260142 0.500192 0.872351
C2    C     C_3   0.083305 0.499196 0.502286 0.024860
C3    C     C_3   0.971322 0.582416 0.590166 0.659976
C4    C     C_3   0.916747 0.501183 0.497518 -0.018205
C5    C     C_3   0.028803 0.612692 0.468787 0.175963
C6    C     C_3   0.973937 0.532718 0.374194 -0.315481
C7    C     C_1   0.174055 0.499345 0.502877 -0.017285
C8    C     C_1   0.825974 0.501030 0.497216 0.017375
C9    C     C_R   0.520881 0.063120 0.620719 0.125703
C10   C     C_R   0.514317 0.128686 0.499615 -0.114857
C11   C     C_R   0.522348 0.065583 0.376562 -0.175073
C12   C     C_R   0.338096 0.499790 0.500642 0.895461
C13   C     C_R   0.521167 0.936669 0.376084 -0.234452
C14   C     C_R   0.513809 0.871602 0.498762 -0.104655
C15   C     C_R   0.521043 0.935359 0.620252 0.153314
C16   C     C_3   0.467234 0.926652 0.745205 -0.454369
C17   C     C_3   0.466623 0.068257 0.745240 -0.474963
C18   C     C_R   0.426828 0.477960 0.072617 0.011693
C19   C     C_R   0.571031 0.532926 0.069618 0.123909
C20   C     C_R   0.570662 0.532471 0.926225 0.591360
C21   C     C_R   0.426151 0.480330 0.930490 -0.067548
C22   C     C_3   0.369910 0.366970 0.926148 -0.064598
C23   C     C_R   0.501934 0.739903 0.499609 0.872201
C24   C     C_3   0.373073 0.362913 0.079459 0.458537
C25   C     C_R   0.661913 0.500249 0.499360 0.897505
C26   C     C_3   0.971545 0.388040 0.530911 0.213025
C27   C     C_3   0.029451 0.416607 0.408210 -0.161694
C28   C     C_1   0.249286 0.499519 0.502181 -0.196606
C29   C     C_1   0.750734 0.500706 0.497856 -0.130885
C30   C     C_3   0.026385 0.467637 0.625888 -0.318550
H1    H     H_    0.054936 0.347384 0.335425 0.155118
H2    H     H_    0.502454 0.885784 0.831393 0.214066
H3    H     H_    0.402621 0.107945 0.725976 0.199254
H4    H     H_    0.501129 0.109243 0.831893 0.222500
H5    H     H_    0.400232 0.287095 0.873578 0.186512
H6    H     H_    0.311200 0.377681 0.132250 0.099358
H7    H     H_    0.951206 0.560884 0.272903 0.179644
H8    H     H_    0.048477 0.440361 0.727750 0.162430
H9    H     H_    0.523171 0.114640 0.280710 0.225924
H10   H     H_    0.519613 0.889505 0.279976 0.171108
H11   H     H_    0.403591 0.884456 0.726905 0.203930
N1    N     N_R   0.499430 0.499140 0.142800 -0.114462
N2    N     N_R   0.499430 0.499180 0.857150 -0.159254
O1    O     O_R   0.500010 0.316790 0.614690 -0.629781
O2    O     O_R   0.500000 0.316760 0.385350 -0.568578
O3    O     O_R   0.376780 0.500010 0.614650 -0.627236
O4    O     O_R   0.376770 0.499970 0.385310 -0.611753
O5    O     O_R   0.500000 0.683240 0.614650 -0.601340
O6    O     O_R   0.499990 0.683210 0.385310 -0.629135
O7    O     O_R   0.623230 0.500030 0.614690 -0.530292
O8    O     O_R   0.623220 0.499990 0.385350 -0.601008
Zn1   Zn    Zn3+2 0.500010 0.500020 0.653130 1.000866
Zn2   Zn    Zn3+2 0.499990 0.499980 0.346870 0.997073
N3    N     N_2   0.647776 0.562487 0.136313 -0.246168
H12   H     H_    0.699481 0.514116 0.099158 0.246581
C31   C     C_3   0.665312 0.694798 0.146855 -0.692010
H13   H     H_    0.722417 0.709360 0.209970 0.226343
H14   H     H_    0.611004 0.742911 0.195249 0.235500
H15   H     H_    0.677475 0.736312 0.045446 0.254236
F1    F     F_    0.642506 0.565176 0.857962 -0.650144
N4    N     N_2   0.284816 0.395627 0.879959 -0.319693
H16   H     H_    0.280788 0.465482 0.808514 0.273314
C32   C     C_3   0.232561 0.287770 0.850689 -0.795547
H17   H     H_    0.166330 0.318086 0.831887 0.239704
H18   H     H_    0.231853 0.221663 0.937554 0.258771
H19   H     H_    0.257238 0.239735 0.759315 0.238554
F2    F     F_    0.417793 0.260642 0.126260 -0.676273
N5    N     N_2   0.936757 0.266143 0.564432 -0.293255
H20   H     H_    0.891217 0.269345 0.639901 0.236343
C33   C     C_3   0.999395 0.169863 0.586026 -0.750717
H21   H     H_    0.966707 0.079066 0.604845 0.250817
H22   H     H_    0.038987 0.192763 0.674847 0.235496
H23   H     H_    0.040863 0.159950 0.495380 0.240629
N6    N     N_2   0.063806 0.734686 0.436078 -0.292102
H24   H     H_    0.111427 0.731119 0.363935 0.230243
C34   C     C_3   0.001514 0.830087 0.408379 -0.726895
H25   H     H_    0.034351 0.920993 0.390939 0.230541
H26   H     H_    0.957226 0.840683 0.495451 0.283651
H27   H     H_    0.964902 0.805885 0.316797 0.229020
F3    F     F_    0.939782 0.668005 0.681700 -0.655895

loop_
_geom_bond_atom_site_label_1
_geom_bond_atom_site_label_2
_ccdc_geom_bond_type
C32   H18   S    
C18   C21   A    
C2    C7    S    
C34   H27   S    
C4    C8    S    
C22   H5    S    
C26   C27   S    
C24   H6    S    
N6    C34   S    
C12   C28   S    
C18   C24   S    
C8    C29   T    
C34   H26   S    
C18   N1    A    
N1    Zn2   S    
C5    C6    S    
N2    Zn1   S    
C23   O6    A    
C15   C16   S    
O3    Zn1   S    
C31   H13   S    
C30   H8    S    
C5    N6    S    
N4    C32   S    
C25   O7    A    
C13   H10   S    
C24   F2    S    
C21   N2    A    
C19   C20   A    
N5    H20   S    
O7    Zn1   S    
C33   H21   S    
C20   F1    S    
C9    C10   A    
C19   N1    A    
O4    Zn2   S    
O1    Zn1   S    
C32   H19   S    
O2    Zn2   S    
C13   C14   A    
C17   H3    S    
C12   O4    A    
C3    F3    S    
C25   C29   S    
N3    C31   S    
N6    H24   S    
C27   H1    S    
C34   H25   S    
C4    C6    S    
C16   C17   S    
C7    C28   T    
O8    Zn2   S    
C14   C23   S    
C3    C30   S    
C25   O8    A    
C1    O1    A    
C6    C27   S    
C33   H23   S    
C6    H7    S    
C11   H9    S    
C2    C27   S    
C19   N3    S    
C12   O3    A    
C26   C30   S    
C22   C24   S    
C2    C5    S    
C17   H4    S    
C3    C4    S    
C20   N2    A    
C9    C17   S    
N3    H12   S    
C23   O5    A    
C1    C10   S    
C3    C5    S    
C4    C26   S    
C16   H2    S    
C31   H15   S    
C2    C30   S    
C26   N5    S    
C9    C15   A    
C22   N4    S    
C11   C13   A    
C1    O2    A    
O6    Zn2   S    
C31   H14   S    
N4    H16   S    
C10   C11   A    
C32   H17   S    
O5    Zn1   S    
N5    C33   S    
C14   C15   A    
C33   H22   S    
C21   C22   S    
C16   H11   S    
