data_mof_unit_59218.cif
_audit_creation_date              2012-12-10T17:07:14-0500
_audit_creation_method            fapswitch 2.2
_symmetry_space_group_name_H-M    P1
_symmetry_Int_Tables_number       1
_space_group_crystal_system       triclinic
_cell_length_a                    10.19658
_cell_length_b                    10.576842
_cell_length_c                    13.675619
_cell_angle_alpha                 91.673317
_cell_angle_beta                  85.119369
_cell_angle_gamma                 90.659029
_cell_volume                      1468.84827584

loop_
_atom_site_label
_atom_site_type_symbol
_atom_type_description
_atom_site_fract_x
_atom_site_fract_y
_atom_site_fract_z
_atom_type_partial_charge
C1    C     C_R   0.502186 0.735209 0.484639 0.912977
C2    C     C_R   0.499841 0.262051 0.499992 0.935315
C3    C     C_R   0.521569 0.498162 0.315361 0.874182
C4    C     C_1   0.534350 0.490346 0.212792 -0.200772
C5    C     C_2   0.546778 0.477496 0.022214 0.088163
C6    C     C_2   0.450208 0.533437 0.977709 0.096722
C7    C     C_1   0.455066 0.525413 0.873922 -0.040245
C8    C     C_1   0.543100 0.483331 0.125867 -0.044765
C9    C     C_3   0.335204 0.604241 0.031202 -0.418151
C10   C     C_3   0.207307 0.527842 0.025839 -0.341245
C11   C     C_3   0.091681 0.592505 0.084538 -0.895810
C12   C     C_1   0.465061 0.514676 0.787110 -0.213469
C13   C     C_3   0.906522 0.582880 0.574364 -0.224078
C14   C     C_3   0.815659 0.635483 0.660530 -0.289397
C15   C     C_3   0.888850 0.732418 0.721600 -0.980353
C16   C     C_3   0.663157 0.410605 0.967489 -0.409385
C17   C     C_3   0.772743 0.505642 0.937642 -0.334714
C18   C     C_3   0.892738 0.439263 0.886239 -0.888985
C19   C     C_3   0.379553 0.901159 0.395260 -0.430220
C20   C     C_3   0.348913 0.814268 0.307785 -0.332010
C21   C     C_3   0.246717 0.873129 0.248056 -0.906668
C22   C     C_3   0.142950 0.321861 0.376879 -0.358741
C23   C     C_2   0.601936 0.070796 0.439667 -0.191161
C24   C     C_3   0.133786 0.342178 0.266916 -0.381651
C25   C     C_3   0.185703 0.227041 0.206296 -0.898154
C26   C     C_2   0.503225 0.127257 0.494693 -0.391957
C27   C     C_2   0.613526 0.934127 0.436995 0.176781
C28   C     C_2   0.504186 0.859989 0.441226 -0.116632
C29   C     C_2   0.079866 0.427491 0.440978 0.097622
C30   C     C_2   0.932039 0.436865 0.437146 -0.073393
C31   C     C_R   0.478356 0.502498 0.684637 0.901876
H1    H     H_    0.680958 0.125789 0.402487 0.187479
H2    H     H_    0.351099 0.625584 0.109234 0.207983
H3    H     H_    0.325278 0.696957 0.996353 0.201937
H4    H     H_    0.977271 0.689617 0.748892 0.268967
H5    H     H_    0.919734 0.815403 0.676959 0.289221
H6    H     H_    0.822904 0.765861 0.785725 0.260901
H7    H     H_    0.731084 0.685648 0.636060 0.283904
H8    H     H_    0.785142 0.557792 0.710439 0.240183
H9    H     H_    0.976715 0.529273 0.614541 0.172053
H10   H     H_    0.947997 0.668050 0.537291 0.195685
H11   H     H_    0.933717 0.371949 0.936292 0.262988
H12   H     H_    0.424813 0.074670 0.534568 0.154745
H13   H     H_    0.865626 0.387104 0.819105 0.265043
H14   H     H_    0.969780 0.510478 0.864738 0.254620
H15   H     H_    0.735954 0.575295 0.887540 0.228252
H16   H     H_    0.802502 0.558115 0.003881 0.226935
H17   H     H_    0.701920 0.339138 0.015512 0.203843
H18   H     H_    0.632606 0.357595 0.901686 0.203943
H19   H     H_    0.154801 0.893261 0.295278 0.285243
H20   H     H_    0.286203 0.962043 0.215373 0.264450
H21   H     H_    0.223373 0.807255 0.187379 0.256869
H22   H     H_    0.440182 0.797052 0.258903 0.219006
H23   H     H_    0.127615 0.592908 0.497905 0.170710
H24   H     H_    0.309486 0.722074 0.334063 0.254876
H25   H     H_    0.294432 0.901652 0.451758 0.212437
H26   H     H_    0.389899 0.998061 0.366536 0.232321
H27   H     H_    0.291591 0.213005 0.216003 0.261169
H28   H     H_    0.128884 0.141132 0.229220 0.272477
H29   H     H_    0.174285 0.240382 0.127378 0.248534
H30   H     H_    0.030809 0.358081 0.250197 0.222715
H31   H     H_    0.193518 0.426602 0.244495 0.248390
H32   H     H_    0.247304 0.313053 0.385759 0.266711
H33   H     H_    0.094290 0.231022 0.398441 0.190716
H34   H     H_    0.886703 0.377207 0.383443 0.140107
H35   H     H_    0.112445 0.607554 0.162394 0.261876
H36   H     H_    0.071748 0.684960 0.052555 0.268019
H37   H     H_    0.002743 0.531426 0.082712 0.258561
H38   H     H_    0.184252 0.515706 0.948123 0.230244
H39   H     H_    0.220242 0.432802 0.055439 0.230214
I1    I     I_    0.812420 0.874159 0.436429 -0.454886
N1    N     N_2   0.147970 0.498670 0.498970 -0.231772
N2    N     N_2   0.852310 0.498640 0.498940 -0.079189
O1    O     O_R   0.386960 0.680940 0.500020 -0.627078
O2    O     O_R   0.613100 0.680900 0.499980 -0.597953
O3    O     O_R   0.370650 0.500000 0.640370 -0.592339
O4    O     O_R   0.596800 0.499960 0.640330 -0.636315
O5    O     O_R   0.386900 0.319100 0.500020 -0.634403
O6    O     O_R   0.613040 0.319060 0.499980 -0.596135
O7    O     O_R   0.403200 0.500040 0.359670 -0.642028
O8    O     O_R   0.629350 0.500000 0.359630 -0.597623
Zn1   Zn    Zn3+2 0.349000 0.500030 0.500020 0.910924
Zn2   Zn    Zn3+2 0.651000 0.499970 0.499980 0.952787

loop_
_geom_bond_atom_site_label_1
_geom_bond_atom_site_label_2
_ccdc_geom_bond_type
C19   H25   S    
C24   H30   S    
C22   C29   S    
C19   C20   S    
C4    C8    T    
C16   H17   S    
C6    C9    S    
C13   H10   S    
C19   H26   S    
C1    O1    A    
C18   H11   S    
C5    C6    D    
O4    Zn2   S    
C16   H18   S    
C23   C26   D    
C15   H6    S    
C5    C16   S    
C2    O6    A    
C22   H32   S    
C16   C17   S    
C13   H9    S    
C3    O8    A    
C1    C28   S    
C25   H29   S    
C23   C27   S    
C9    C10   S    
C11   H35   S    
C29   N1    D    
C14   H8    S    
C13   C14   S    
C9    H2    S    
O1    Zn1   S    
C20   H24   S    
C3    O7    A    
C15   H4    S    
C21   H19   S    
O8    Zn2   S    
C11   H36   S    
C26   H12   S    
C31   O4    A    
C7    C12   T    
C1    O2    A    
C24   C25   S    
O7    Zn1   S    
O3    Zn1   S    
C30   N2    D    
C29   C30   S    
C2    O5    A    
C18   H13   S    
C14   H7    S    
O5    Zn1   S    
C17   C18   S    
C2    C26   S    
C17   H15   S    
C19   C28   S    
C10   H39   S    
C13   N2    S    
C12   C31   S    
C9    H3    S    
C22   C24   S    
C25   H27   S    
C3    C4    S    
C18   H14   S    
C15   H5    S    
C21   H20   S    
C27   I1    S    
C11   H37   S    
C24   H31   S    
C17   H16   S    
C20   H22   S    
C5    C8    S    
C6    C7    S    
C23   H1    S    
O6    Zn2   S    
O2    Zn2   S    
C31   O3    A    
C30   H34   S    
C10   C11   S    
C22   H33   S    
C10   H38   S    
H23   N1    S    
C20   C21   S    
C27   C28   D    
C14   C15   S    
C25   H28   S    
N2    Zn2   S    
C21   H21   S    
N1    Zn1   S    
