data_mof_unit_25583.cif
_audit_creation_date              2012-12-10T18:46:18-0500
_audit_creation_method            fapswitch 2.2
_symmetry_space_group_name_H-M    P1
_symmetry_Int_Tables_number       1
_space_group_crystal_system       triclinic
_cell_length_a                    9.880833
_cell_length_b                    10.707241
_cell_length_c                    13.137439
_cell_angle_alpha                 90.496535
_cell_angle_beta                  69.570061
_cell_angle_gamma                 89.696163
_cell_volume                      1302.36944288

loop_
_atom_site_label
_atom_site_type_symbol
_atom_type_description
_atom_site_fract_x
_atom_site_fract_y
_atom_site_fract_z
_atom_type_partial_charge
C1    C     C_R   0.499588 0.739997 0.500490 0.898918
C2    C     C_R   0.433499 0.468190 0.983945 0.088972
C3    C     C_R   0.465481 0.436735 0.873724 0.090076
C4    C     C_R   0.545090 0.457937 0.027692 0.073528
C5    C     C_R   0.677490 0.397337 0.967917 0.193475
C6    C     C_R   0.698213 0.349416 0.864672 -0.210604
C7    C     C_R   0.593355 0.368271 0.818191 -0.203155
C8    C     C_R   0.529221 0.508772 0.128884 -0.256111
C9    C     C_R   0.760678 0.424153 0.119829 -0.217576
C10   C     C_R   0.369018 0.476113 0.822003 -0.131077
C11   C     C_R   0.605175 0.935810 0.528477 -0.187788
C12   C     C_R   0.420077 0.491312 0.704059 0.879362
C13   C     C_R   0.605709 0.063798 0.528014 -0.198126
C14   C     C_R   0.500074 0.127518 0.500318 -0.012304
C15   C     C_R   0.393577 0.064206 0.473496 -0.192161
C16   C     C_R   0.392962 0.936264 0.474059 -0.165216
C17   C     C_R   0.499017 0.872507 0.501213 -0.015800
C18   C     C_R   0.966659 0.442953 0.418058 -0.087172
C19   C     C_R   0.110173 0.442721 0.418158 -0.110055
C20   C     C_R   0.030687 0.556934 0.582980 0.029058
C21   C     C_R   0.887967 0.555681 0.582107 -0.101868
C22   C     C_R   0.500210 0.260005 0.499924 0.851448
C23   C     C_R   0.580486 0.499785 0.295544 0.864083
C24   C     C_R   0.785775 0.383329 0.013584 -0.174493
C25   C     C_R   0.629841 0.483880 0.178263 -0.055692
C26   C     C_R   0.229281 0.516091 0.884605 -0.178635
C27   C     C_R   0.189192 0.527718 0.996573 -0.153567
C28   C     C_R   0.291028 0.507787 0.045999 -0.195116
H1    H     H_    0.839851 0.404286 0.157535 0.149459
H2    H     H_    0.687579 0.112507 0.549981 0.155884
H3    H     H_    0.311879 0.113178 0.451279 0.156641
H4    H     H_    0.310944 0.887620 0.452230 0.162925
H5    H     H_    0.943336 0.397357 0.352308 0.126691
H6    H     H_    0.194706 0.396592 0.352578 0.140780
H7    H     H_    0.801336 0.601518 0.646502 0.177050
H8    H     H_    0.796341 0.298854 0.819146 0.149328
H9    H     H_    0.886877 0.336460 0.968893 0.142706
H10   H     H_    0.435750 0.564854 0.173131 0.151266
H11   H     H_    0.152442 0.541452 0.846729 0.185255
H12   H     H_    0.254282 0.520273 0.133050 0.127779
H13   H     H_    0.080592 0.557529 0.044724 0.149583
H14   H     H_    0.612645 0.326722 0.738978 0.170231
H15   H     H_    0.686868 0.886780 0.550657 0.159478
N1    N     N_R   0.142790 0.500030 0.500030 -0.111109
N2    N     N_R   0.857180 0.499940 0.500010 -0.089938
O1    O     O_R   0.385370 0.683250 0.500010 -0.571210
O2    O     O_R   0.614700 0.683220 0.500010 -0.627718
O3    O     O_R   0.328400 0.499990 0.653620 -0.588170
O4    O     O_R   0.557730 0.499960 0.653620 -0.621069
O5    O     O_R   0.385300 0.316780 0.499990 -0.624375
O6    O     O_R   0.614630 0.316750 0.499990 -0.630168
O7    O     O_R   0.442270 0.500040 0.346380 -0.625399
O8    O     O_R   0.671600 0.500010 0.346380 -0.617135
Zn1   Zn    Zn3+2 0.346870 0.500020 0.500000 0.973454
Zn2   Zn    Zn3+2 0.653130 0.499980 0.500000 0.940719
C29   C     C_2   0.050332 0.622654 0.676063 0.870712
O9    O     O_2   0.151154 0.693287 0.662833 -0.598872
O10   O     O_R   0.943738 0.612663 0.779019 -0.843524
H16   H     H_    0.961645 0.669171 0.835256 0.336346

loop_
_geom_bond_atom_site_label_1
_geom_bond_atom_site_label_2
_ccdc_geom_bond_type
C2    C4    A    
C9    C24   A    
C11   H15   S    
C6    C7    A    
C21   H7    S    
C29   O10   S    
C16   H4    S    
C2    C28   A    
C27   H13   S    
C1    C17   S    
C12   O3    A    
C9    H1    S    
C4    C8    A    
O1    Zn1   S    
C23   C25   S    
C12   O4    A    
C23   O7    A    
C9    C25   A    
C3    C10   A    
O4    Zn2   S    
C13   C14   A    
C19   N1    A    
O3    Zn1   S    
C8    C25   A    
C11   C13   A    
C14   C22   S    
C26   C27   A    
O5    Zn1   S    
C5    C24   A    
C10   C12   S    
C8    H10   S    
C23   O8    A    
C1    O2    A    
C20   N1    A    
C6    H8    S    
C24   H9    S    
C3    C7    A    
C21   N2    A    
C20   C29   S    
O8    Zn2   S    
C5    C6    A    
C26   H11   S    
C18   H5    S    
C1    O1    A    
C22   O6    A    
C29   O9    D    
C28   H12   S    
C15   C16   A    
C18   N2    A    
N1    Zn1   S    
C22   O5    A    
C20   C21   A    
N2    Zn2   S    
O2    Zn2   S    
C18   C19   A    
C7    H14   S    
C27   C28   A    
C14   C15   A    
C4    C5    A    
C2    C3    A    
O6    Zn2   S    
O10   H16   S    
C13   H2    S    
C15   H3    S    
C10   C26   A    
C11   C17   A    
O7    Zn1   S    
C16   C17   A    
C19   H6    S    
