data_mof_unit_36492.cif
_audit_creation_date              2012-12-10T17:11:04-0500
_audit_creation_method            fapswitch 2.2
_symmetry_space_group_name_H-M    P1
_symmetry_Int_Tables_number       1
_space_group_crystal_system       triclinic
_cell_length_a                    11.701504
_cell_length_b                    12.99891
_cell_length_c                    13.484571
_cell_angle_alpha                 92.405991
_cell_angle_beta                  77.175169
_cell_angle_gamma                 100.00056
_cell_volume                      1969.52738796

loop_
_atom_site_label
_atom_site_type_symbol
_atom_type_description
_atom_site_fract_x
_atom_site_fract_y
_atom_site_fract_z
_atom_type_partial_charge
C1    C     C_R   0.521019 0.700780 0.501710 0.806092
C2    C     C_R   0.449477 0.462859 0.973809 0.098916
C3    C     C_R   0.482535 0.454511 0.866371 0.078902
C4    C     C_R   0.537167 0.462410 0.031816 -0.016988
C5    C     C_R   0.657929 0.468783 0.982012 0.109039
C6    C     C_R   0.686394 0.447919 0.878364 -0.234331
C7    C     C_R   0.597788 0.432561 0.823090 -0.213660
C8    C     C_R   0.508823 0.453352 0.138055 0.359371
C9    C     C_R   0.716884 0.506420 0.142518 -0.253895
C10   C     C_R   0.400544 0.471000 0.806514 -0.103397
C11   C     C_R   0.464646 0.184718 0.496800 -0.141647
C12   C     C_R   0.436816 0.487137 0.695263 0.784757
C13   C     C_R   0.532727 0.814121 0.504196 -0.052897
C14   C     C_R   0.640032 0.984600 0.535746 -0.198302
C15   C     C_R   0.632267 0.876577 0.530422 -0.197700
C16   C     C_R   0.442059 0.860253 0.481932 -0.240020
C17   C     C_R   0.449193 0.967938 0.487156 0.117453
C18   C     C_R   0.548478 0.030637 0.514609 0.184992
C19   C     C_R   0.555158 0.138300 0.519717 -0.368521
C20   C     C_R   0.362486 0.121658 0.473115 0.446226
C21   C     C_R   0.357813 0.013277 0.465767 -0.330549
C22   C     C_R   0.933933 0.563927 0.618341 -0.353115
C23   C     C_R   0.478505 0.298886 0.498500 0.808730
C24   C     C_R   0.818717 0.563677 0.603407 -0.022910
C25   C     C_R   0.863174 0.473261 0.446192 0.592339
C26   C     C_R   0.983136 0.478422 0.455671 -0.017035
C27   C     C_R   0.017207 0.520842 0.544432 0.019874
C28   C     C_R   0.135059 0.521174 0.555571 0.028615
C29   C     C_R   0.184301 0.443286 0.393714 0.079213
C30   C     C_R   0.070123 0.443238 0.378473 -0.340517
C31   C     C_R   0.562397 0.498602 0.304510 0.831272
C32   C     C_R   0.747339 0.490842 0.037667 -0.218253
C33   C     C_R   0.597047 0.487376 0.193674 -0.157173
C34   C     C_R   0.284102 0.482051 0.855063 -0.190008
C35   C     C_R   0.250813 0.485845 0.960291 -0.187665
C36   C     C_R   0.333141 0.480201 0.019041 -0.136504
Cu1   Cu    Cu3+1 0.386470 0.492430 0.492410 0.963510
Cu2   Cu    Cu3+1 0.613530 0.507570 0.507590 0.954485
H1    H     H_    0.786882 0.528794 0.183853 0.211051
H2    H     H_    0.717104 0.031917 0.556504 0.127984
H3    H     H_    0.283373 0.964359 0.442553 0.136912
H4    H     H_    0.703240 0.841992 0.547925 0.156322
H5    H     H_    0.365339 0.812417 0.460950 0.157001
H6    H     H_    0.162603 0.555088 0.622955 0.117288
H7    H     H_    0.248057 0.413931 0.334745 0.204023
H8    H     H_    0.957902 0.598478 0.686974 0.149042
H9    H     H_    0.051268 0.415521 0.306190 0.177681
H10   H     H_    0.756341 0.598321 0.660779 0.161790
H11   H     H_    0.776648 0.440871 0.840416 0.144637
H12   H     H_    0.840345 0.498570 0.999853 0.144734
H13   H     H_    0.219622 0.492820 0.811542 0.148613
H14   H     H_    0.305179 0.494650 0.099429 0.183456
H15   H     H_    0.162020 0.498523 0.996509 0.140452
H16   H     H_    0.622739 0.404136 0.746491 0.181056
H17   H     H_    0.631321 0.185890 0.541719 0.159271
N1    N     N_R   0.215880 0.481050 0.481000 -0.184554
N2    N     N_R   0.784100 0.518950 0.519000 -0.215635
O1    O     O_R   0.419710 0.645650 0.494620 -0.586735
O2    O     O_R   0.611450 0.658430 0.507430 -0.583824
O3    O     O_R   0.357340 0.490460 0.641450 -0.594728
O4    O     O_R   0.549080 0.503250 0.654260 -0.603093
O5    O     O_R   0.388550 0.341570 0.492570 -0.528861
O6    O     O_R   0.580290 0.354350 0.505380 -0.608762
O7    O     O_R   0.450920 0.496750 0.345740 -0.561997
O8    O     O_R   0.642660 0.509540 0.358550 -0.533620
O9    O     O_3   0.272915 0.167413 0.449691 -0.573829
C37   C     C_3   0.160810 0.124740 0.510163 0.074717
H18   H     H_    0.165777 0.110921 0.590126 0.134593
H19   H     H_    0.124344 0.050230 0.476254 0.139609
C38   C     C_3   0.074427 0.200367 0.513245 -0.792094
H20   H     H_    0.066412 0.215946 0.434974 0.236686
H21   H     H_    0.985320 0.166231 0.558233 0.186434
H22   H     H_    0.106253 0.274884 0.549500 0.260809
O10   O     O_3   0.828871 0.432215 0.358645 -0.572614
C39   C     C_3   0.821587 0.322108 0.354208 0.042477
H23   H     H_    0.732817 0.283838 0.394032 0.184888
H24   H     H_    0.887581 0.292443 0.388640 0.115589
C40   C     C_3   0.837933 0.286567 0.243722 -0.825061
H25   H     H_    0.925496 0.324461 0.198935 0.241700
H26   H     H_    0.833410 0.200495 0.239360 0.209038
H27   H     H_    0.766405 0.307380 0.210275 0.253240
O11   O     O_3   0.400203 0.397184 0.185335 -0.617587
C41   C     C_3   0.411222 0.290728 0.189212 0.073741
H28   H     H_    0.449904 0.277863 0.255049 0.160726
H29   H     H_    0.468025 0.263918 0.118303 0.134183
C42   C     C_3   0.288956 0.223073 0.202248 -0.760078
H30   H     H_    0.248241 0.235832 0.137774 0.235487
H31   H     H_    0.297368 0.139413 0.203967 0.210539
H32   H     H_    0.229974 0.242370 0.274408 0.258597

loop_
_geom_bond_atom_site_label_1
_geom_bond_atom_site_label_2
_ccdc_geom_bond_type
C35   H15   S    
C14   C18   A    
C35   C36   A    
C4    C8    A    
Cu1   O5    S    
C28   N1    A    
C11   C19   A    
C34   H13   S    
Cu1   Cu2   S    
C8    O11   S    
C20   O9    S    
C25   O10   S    
C3    C7    A    
C1    O2    A    
C5    C6    A    
C42   H31   S    
C2    C36   A    
C9    H1    S    
C34   C35   A    
C9    C32   A    
Cu1   N1    S    
C23   O5    A    
C16   C17   A    
C31   C33   S    
C38   H20   S    
Cu1   O1    S    
C36   H14   S    
Cu2   O4    S    
C23   O6    A    
O9    C37   S    
C9    C33   A    
C25   N2    A    
C11   C20   A    
O10   C39   S    
C37   H18   S    
C24   H10   S    
C30   H9    S    
C42   H30   S    
C18   C19   A    
C25   C26   A    
C28   H6    S    
C17   C21   A    
C29   H7    S    
C37   H19   S    
C2    C4    A    
C39   H23   S    
C29   C30   A    
Cu2   N2    S    
C41   H28   S    
Cu2   O8    S    
C38   H22   S    
C17   C18   A    
C26   C27   A    
C10   C34   A    
C39   H24   S    
C16   H5    S    
C32   H12   S    
C10   C12   S    
C21   H3    S    
C41   H29   S    
C26   C30   A    
C22   C27   A    
C13   C15   A    
C22   C24   A    
C1    C13   S    
Cu1   O7    S    
Cu2   O6    S    
C24   N2    A    
C19   H17   S    
C31   O8    A    
C22   H8    S    
C40   H25   S    
C31   O7    A    
C15   H4    S    
C4    C5    A    
C42   H32   S    
C6    C7    A    
C29   N1    A    
C37   C38   S    
C5    C32   A    
C2    C3    A    
C3    C10   A    
C1    O1    A    
C12   O4    A    
C40   H27   S    
C11   C23   S    
C40   H26   S    
C8    C33   A    
C6    H11   S    
C39   C40   S    
Cu1   O3    S    
C14   H2    S    
Cu2   O2    S    
C12   O3    A    
C41   C42   S    
C20   C21   A    
O11   C41   S    
C13   C16   A    
C27   C28   A    
C14   C15   A    
C38   H21   S    
C7    H16   S    
