data_mof_unit_40009.cif
_audit_creation_date              2013-03-05T16:11:12-0500
_audit_creation_method            fapswitch 2.2
_symmetry_space_group_name_H-M    P1
_symmetry_Int_Tables_number       1
_space_group_crystal_system       triclinic
_cell_length_a                    18.135182
_cell_length_b                    18.125562
_cell_length_c                    18.087494
_cell_angle_alpha                 119.949344
_cell_angle_beta                  89.980512
_cell_angle_gamma                 59.916793
_cell_volume                      4201.34480825

loop_
_atom_site_label
_atom_site_type_symbol
_atom_site_description
_atom_site_fract_x
_atom_site_fract_y
_atom_site_fract_z
_atom_type_partial_charge
Zn1   Zn    Zn3+2 0.618190 0.587870 0.793920 1.020311
Zn2   Zn    Zn3+2 0.381810 0.412130 0.206080 1.031386
Zn3   Zn    Zn3+2 0.793940 0.412090 0.793920 1.013937
Zn4   Zn    Zn3+2 0.206060 0.587910 0.206080 1.006615
Zn5   Zn    Zn3+2 0.793970 0.587840 0.793920 1.034694
Zn6   Zn    Zn3+2 0.206030 0.412160 0.206080 0.979205
Zn7   Zn    Zn3+2 0.793940 0.412130 0.618200 1.066868
Zn8   Zn    Zn3+2 0.206060 0.587870 0.381800 1.006434
O1    O     O_3   0.750010 0.499980 0.749990 -0.541301
O2    O     O_3   0.249990 0.500020 0.250010 -0.526603
O3    O     O_R   0.867280 0.265410 0.571220 -0.602774
O4    O     O_R   0.132720 0.734590 0.428780 -0.614309
O5    O     O_R   0.571230 0.734580 0.867270 -0.619730
O6    O     O_R   0.428770 0.265420 0.132730 -0.586346
O7    O     O_R   0.694200 0.438470 0.867270 -0.623577
O8    O     O_R   0.305800 0.561530 0.132730 -0.621114
O9    O     O_R   0.867340 0.561470 0.694210 -0.623069
O10   O     O_R   0.132660 0.438530 0.305790 -0.630030
O11   O     O_R   0.867310 0.438430 0.867270 -0.601333
O12   O     O_R   0.132690 0.561570 0.132730 -0.595196
O13   O     O_R   0.694200 0.438520 0.571220 -0.596535
O14   O     O_R   0.305800 0.561480 0.428780 -0.633283
O15   O     O_R   0.867340 0.561440 0.867270 -0.626636
O16   O     O_R   0.132660 0.438560 0.132730 -0.657475
O17   O     O_R   0.571190 0.561530 0.694210 -0.620911
O18   O     O_R   0.428810 0.438470 0.305790 -0.613972
O19   O     O_R   0.571190 0.561490 0.867270 -0.646380
O20   O     O_R   0.428810 0.438510 0.132730 -0.606623
O21   O     O_R   0.867310 0.438490 0.571220 -0.602818
O22   O     O_R   0.132690 0.561510 0.428780 -0.650770
O23   O     O_R   0.867280 0.265380 0.694210 -0.659363
O24   O     O_R   0.132720 0.734620 0.305790 -0.650905
O25   O     O_R   0.694250 0.734550 0.867270 -0.622229
O26   O     O_R   0.305750 0.265450 0.132730 -0.646221
C1    C     C_R   0.891328 0.217086 0.608663 0.944607
C2    C     C_R   0.107762 0.783005 0.391329 0.953461
C3    C     C_R   0.608545 0.782737 0.892206 0.882531
C4    C     C_R   0.391659 0.217006 0.108266 0.875906
C5    C     C_R   0.608503 0.501380 0.892785 0.856056
C6    C     C_R   0.391535 0.499970 0.108435 0.852048
C7    C     C_R   0.890620 0.500508 0.608385 0.911946
C8    C     C_R   0.108504 0.500248 0.391702 0.925029
C9    C     C_R   0.891355 0.499976 0.891529 0.920640
C10   C     C_R   0.110175 0.498334 0.106814 0.874521
C11   C     C_R   0.608723 0.500282 0.608390 0.904182
C12   C     C_R   0.391454 0.499228 0.391544 0.895062
C13   C     C_3   0.586072 0.439042 0.447324 0.482183
C14   C     C_3   0.414932 0.557870 0.552146 0.499072
C15   C     C_3   0.509334 0.537161 0.454347 -0.473601
C16   C     C_3   0.492294 0.460149 0.545572 -0.485721
H1    H     H_    0.514684 0.569963 0.418329 0.183135
H2    H     H_    0.489736 0.425936 0.581127 0.183312
C17   C     C_3   0.448596 0.498434 0.448480 -0.243102
C18   C     C_3   0.552414 0.498855 0.550867 -0.175700
C19   C     C_3   0.525869 0.401527 0.441665 0.233046
C20   C     C_3   0.475471 0.595084 0.557908 0.292654
C21   C     C_3   0.448741 0.966978 0.972909 0.278716
C22   C     C_3   0.552183 0.032214 0.028999 0.315938
C23   C     C_3   0.460892 0.032798 0.951938 0.451920
C24   C     C_3   0.540775 0.965400 0.049448 0.458738
C25   C     C_3   0.449221 0.102820 0.051869 -0.203790
C26   C     C_3   0.551644 0.896466 0.949606 -0.234992
C27   C     C_3   0.436322 0.036588 0.073797 -0.488096
C28   C     C_3   0.564847 0.962780 0.928381 -0.448037
H3    H     H_    0.381795 0.069228 0.132220 0.192656
H4    H     H_    0.618925 0.931013 0.870104 0.189845
C29   C     C_3   0.975373 0.438542 0.447084 0.489158
C30   C     C_3   0.020594 0.564647 0.553285 0.456296
C31   C     C_3   0.074496 0.402185 0.441443 -0.493272
C32   C     C_3   0.921668 0.600856 0.559224 -0.450756
H5    H     H_    0.138509 0.323283 0.395254 0.198090
H6    H     H_    0.858749 0.680590 0.606144 0.186517
C33   C     C_3   0.050840 0.501377 0.449232 -0.264397
C34   C     C_3   0.945608 0.501709 0.550920 -0.199186
C35   C     C_3   0.953059 0.535938 0.454605 0.277163
C36   C     C_3   0.042734 0.467467 0.545922 0.307991
C37   C     C_3   0.927119 0.035996 0.474730 0.454623
C38   C     C_3   0.069926 0.964621 0.525184 0.440407
C39   C     C_3   0.950459 0.967523 0.508854 0.239752
C40   C     C_3   0.046737 0.032758 0.490759 0.244517
C41   C     C_3   0.049333 0.897051 0.447447 -0.211415
C42   C     C_3   0.948118 0.103221 0.552313 -0.196804
C43   C     C_3   0.026362 0.965617 0.411612 -0.423803
C44   C     C_3   0.970604 0.034885 0.588124 -0.453698
H7    H     H_    0.050280 0.936299 0.339956 0.195521
H8    H     H_    0.946064 0.064333 0.659750 0.192994
C45   C     C_3   0.993110 0.420343 0.971868 0.475587
C46   C     C_3   0.015056 0.570090 0.018170 0.429941
C47   C     C_3   0.965482 0.510775 0.071172 -0.487741
C48   C     C_3   0.041931 0.479291 0.919108 -0.426083
H9    H     H_    0.936105 0.522237 0.132900 0.200088
H10   H     H_    0.071331 0.465003 0.855683 0.212942
C49   C     C_3   0.057682 0.493016 0.045105 -0.268360
C50   C     C_3   0.950538 0.497698 0.946234 -0.177828
C51   C     C_3   0.084221 0.401940 0.946021 0.415600
C52   C     C_3   0.924609 0.587569 0.043902 0.436535
C53   C     C_3   0.540423 0.412149 0.915300 -0.542974
C54   C     C_3   0.459153 0.591176 0.087549 -0.522212
C55   C     C_3   0.437255 0.496035 0.965957 0.499201
C56   C     C_3   0.562404 0.507677 0.037170 0.414078
H11   H     H_    0.576124 0.339455 0.845487 0.185680
H12   H     H_    0.425828 0.662451 0.157957 0.178396
C57   C     C_3   0.448495 0.500807 0.052065 -0.189253
C58   C     C_3   0.551397 0.502197 0.950430 -0.218152
C59   C     C_3   0.551486 0.418683 0.002769 0.442828
C60   C     C_3   0.449073 0.584321 0.999862 0.506877
N1    N     N_R   0.895753 0.932881 0.517437 0.200657
O27   O     O_R   0.812885 0.001373 0.572841 -0.383047
O28   O     O_R   0.928456 0.834182 0.469042 -0.435595
N2    N     N_R   0.101636 0.066865 0.481318 0.216400
O29   O     O_R   0.184579 0.997900 0.426054 -0.372840
O30   O     O_R   0.068832 0.165541 0.528137 -0.392390
O31   O     O_3   0.846165 0.083003 0.457413 -0.611464
C61   C     C_3   0.849641 0.011067 0.372087 0.147955
H13   H     H_    0.784060 0.020704 0.380982 0.187337
H14   H     H_    0.903287 0.927499 0.343372 0.121783
C62   C     C_3   0.860936 0.036585 0.305777 -0.349032
H15   H     H_    0.808844 0.120666 0.336361 0.281880
H16   H     H_    0.928524 0.021366 0.291962 0.206393
C63   C     C_3   0.851445 0.971302 0.216772 -0.885932
H17   H     H_    0.901092 0.886960 0.186537 0.258070
H18   H     H_    0.864217 0.987925 0.168664 0.273765
H19   H     H_    0.781986 0.990874 0.228358 0.298249
O32   O     O_3   0.150276 0.919769 0.543997 -0.612688
C64   C     C_3   0.139581 0.991987 0.633043 0.092821
H20   H     H_    0.090161 0.004732 0.682343 0.133577
H21   H     H_    0.116139 0.068036 0.644929 0.170676
C65   C     C_3   0.230518 0.947346 0.647982 -0.273254
H22   H     H_    0.258812 0.866891 0.627246 0.276972
H23   H     H_    0.278346 0.943369 0.605255 0.233761
C66   C     C_3   0.220787 0.013941 0.747068 -0.867533
H24   H     H_    0.191511 0.095337 0.770030 0.275958
H25   H     H_    0.288070 0.980488 0.755229 0.296237
H26   H     H_    0.176959 0.013961 0.789890 0.271102
O33   O     O_3   0.977109 0.343087 0.942068 -0.604588
C67   C     C_3   0.018379 0.285861 0.978689 0.119469
H27   H     H_    0.992346 0.338027 0.054051 0.144831
H28   H     H_    0.093082 0.243336 0.954055 0.164448
C68   C     C_3   0.995838 0.206536 0.947764 -0.342414
H29   H     H_    0.921384 0.248803 0.974183 0.230821
H30   H     H_    0.018049 0.156468 0.872620 0.228914
C69   C     C_3   0.041552 0.137767 0.981245 -0.965278
H31   H     H_    0.115815 0.098389 0.959314 0.294770
H32   H     H_    0.028346 0.077061 0.953011 0.274400
H33   H     H_    0.013960 0.185778 0.056146 0.269154
O34   O     O_3   0.025786 0.651872 0.050595 -0.632215
C70   C     C_3   0.022952 0.677738 0.988287 0.098683
H34   H     H_    0.988087 0.763477 0.027751 0.167402
H35   H     H_    0.982934 0.660167 0.944111 0.167444
C71   C     C_3   0.119277 0.624459 0.931870 -0.324725
H36   H     H_    0.156502 0.645613 0.977859 0.267389
H37   H     H_    0.155804 0.538359 0.890699 0.215459
C72   C     C_3   0.118768 0.657612 0.869055 -0.910405
H38   H     H_    0.081850 0.637342 0.822417 0.300042
H39   H     H_    0.189312 0.616661 0.828286 0.259422
H40   H     H_    0.085841 0.743103 0.909083 0.261015
O35   O     O_3   0.162533 0.300072 0.881483 -0.641070
C73   C     C_3   0.235000 0.273775 0.914826 0.095082
H41   H     H_    0.284719 0.187995 0.868545 0.197403
H42   H     H_    0.214509 0.289198 0.981285 0.167288
C74   C     C_3   0.282489 0.323544 0.913366 -0.422048
H43   H     H_    0.321378 0.283042 0.842071 0.211177
H44   H     H_    0.232425 0.407117 0.941294 0.231423
C75   C     C_3   0.346578 0.315708 0.968160 -0.823211
H45   H     H_    0.308714 0.358684 0.040350 0.237721
H46   H     H_    0.380867 0.350313 0.964044 0.241484
H47   H     H_    0.399213 0.233337 0.941278 0.278743
O36   O     O_3   0.838772 0.684039 0.088863 -0.624433
C76   C     C_3   0.828103 0.750449 0.180324 0.133538
H48   H     H_    0.798281 0.829116 0.195824 0.170412
H49   H     H_    0.892701 0.726695 0.195583 0.151389
C77   C     C_3   0.762469 0.758912 0.242330 -0.402120
H50   H     H_    0.697037 0.786946 0.229462 0.221911
H51   H     H_    0.790295 0.680940 0.227603 0.242285
C78   C     C_3   0.745752 0.834303 0.341882 -0.825872
H52   H     H_    0.810218 0.807110 0.356612 0.304881
H53   H     H_    0.698398 0.838271 0.385019 0.275908
H54   H     H_    0.715340 0.913770 0.358914 0.247345
O37   O     O_3   0.362647 0.503140 0.937472 -0.616923
C79   C     C_3   0.391112 0.414691 0.849438 0.080907
H55   H     H_    0.332366 0.410714 0.840834 0.158836
H56   H     H_    0.444728 0.340514 0.839902 0.138536
C80   C     C_3   0.419982 0.424221 0.776641 -0.350974
H57   H     H_    0.360127 0.489102 0.778958 0.222397
H58   H     H_    0.470681 0.442313 0.788997 0.237906
C81   C     C_3   0.460893 0.322760 0.682739 -0.943262
H59   H     H_    0.523882 0.258436 0.677868 0.281531
H60   H     H_    0.477696 0.332278 0.630549 0.270504
H61   H     H_    0.412235 0.301517 0.668939 0.271685
O38   O     O_3   0.632282 0.511977 0.068729 -0.638742
C82   C     C_3   0.621645 0.529411 0.154683 0.095926
H62   H     H_    0.687695 0.471061 0.152007 0.153815
H63   H     H_    0.571269 0.519077 0.175187 0.143440
C83   C     C_3   0.596606 0.638570 0.226343 -0.371385
H64   H     H_    0.649590 0.646172 0.207586 0.236040
H65   H     H_    0.531361 0.698179 0.229109 0.220662
C84   C     C_3   0.588082 0.659095 0.319722 -0.874232
H66   H     H_    0.533739 0.654665 0.340901 0.253005
H67   H     H_    0.570841 0.738344 0.369948 0.275107
H68   H     H_    0.652973 0.600946 0.318779 0.284064
O39   O     O_3   0.600488 0.332194 0.007475 -0.611191
C85   C     C_3   0.693606 0.274288 0.961842 0.097559
H69   H     H_    0.722522 0.314470 0.005181 0.164935
H70   H     H_    0.706879 0.263498 0.895778 0.153332
C86   C     C_3   0.741296 0.166418 0.943182 -0.269020
H71   H     H_    0.722501 0.174929 0.006767 0.272946
H72   H     H_    0.719068 0.121755 0.892971 0.240000
C87   C     C_3   0.843766 0.106081 0.906934 -1.013063
H73   H     H_    0.864179 0.102886 0.846944 0.271843
H74   H     H_    0.876349 0.025314 0.887359 0.285196
H75   H     H_    0.867521 0.144544 0.960109 0.276412
O40   O     O_3   0.394382 0.667708 0.992093 -0.604132
C88   C     C_3   0.403306 0.750315 0.045909 0.136777
H76   H     H_    0.410263 0.777290 0.004743 0.215050
H77   H     H_    0.464733 0.727312 0.066701 0.104684
C89   C     C_3   0.317958 0.841328 0.129207 -0.319852
H78   H     H_    0.258715 0.870158 0.106996 0.244791
H79   H     H_    0.306121 0.814344 0.168227 0.233103
C90   C     C_3   0.325842 0.930975 0.190828 -0.936075
H80   H     H_    0.383248 0.904567 0.215813 0.258076
H81   H     H_    0.262632 0.995899 0.249974 0.290048
H82   H     H_    0.336388 0.960403 0.153689 0.274479
O41   O     O_3   0.679024 0.376024 0.398164 -0.599115
C91   C     C_3   0.691534 0.339765 0.306689 0.136182
H83   H     H_    0.655737 0.406230 0.300333 0.129968
H84   H     H_    0.666667 0.289942 0.275036 0.193483
C92   C     C_3   0.792544 0.274798 0.256423 -0.312583
H85   H     H_    0.817297 0.324911 0.285951 0.252154
H86   H     H_    0.830037 0.210118 0.264732 0.227713
C93   C     C_3   0.811826 0.228763 0.155743 -0.977183
H87   H     H_    0.791131 0.174825 0.124276 0.292650
H88   H     H_    0.885406 0.184146 0.121905 0.268181
H89   H     H_    0.774817 0.291811 0.145457 0.260714
O42   O     O_3   0.321939 0.628043 0.604633 -0.589935
C94   C     C_3   0.296169 0.587821 0.640799 0.116527
H90   H     H_    0.228711 0.653119 0.693968 0.168210
H91   H     H_    0.341914 0.560897 0.676037 0.137277
C95   C     C_3   0.287919 0.501975 0.568290 -0.422005
H92   H     H_    0.238268 0.533476 0.538084 0.273174
H93   H     H_    0.353918 0.435263 0.513350 0.228476
C96   C     C_3   0.257197 0.461521 0.608340 -0.814062
H94   H     H_    0.304631 0.431532 0.640712 0.251560
H95   H     H_    0.255885 0.396794 0.553339 0.295030
H96   H     H_    0.188529 0.524825 0.659470 0.306610
N3    N     N_R   0.555054 0.293966 0.378676 0.210652
O43   O     O_R   0.622026 0.220301 0.380997 -0.398551
O44   O     O_R   0.511475 0.271681 0.323929 -0.410290
N4    N     N_R   0.449611 0.700517 0.623810 0.225584
O45   O     O_R   0.505828 0.724123 0.620298 -0.417386
O46   O     O_R   0.372521 0.769639 0.689329 -0.330603
O47   O     O_3   0.414039 0.071630 0.903735 -0.670626
C97   C     C_3   0.458033 0.995247 0.809139 0.139747
H97   H     H_    0.405486 0.997677 0.777230 0.174650
H98   H     H_    0.503481 0.913576 0.789276 0.182363
C98   C     C_3   0.509896 0.020753 0.770487 -0.443409
H99   H     H_    0.461261 0.095207 0.778390 0.230428
H100  H     H_    0.556258 0.030708 0.808135 0.240437
C99   C     C_3   0.564751 0.934622 0.670272 -0.834247
H101  H     H_    0.616026 0.859847 0.660741 0.273007
H102  H     H_    0.600240 0.956191 0.643884 0.271461
H103  H     H_    0.519536 0.923975 0.631089 0.273531
O48   O     O_3   0.594259 0.921745 0.092130 -0.590267
C100  C     C_3   0.540121 0.949772 0.169985 0.059720
H104  H     H_    0.582219 0.891302 0.184161 0.164683
H105  H     H_    0.481786 0.945168 0.159143 0.124310
C101  C     C_3   0.510080 0.057509 0.252115 -0.283575
H106  H     H_    0.570809 0.055926 0.264169 0.278852
H107  H     H_    0.470477 0.117570 0.238936 0.236809
C102  C     C_3   0.452054 0.088305 0.336912 -0.916094
H108  H     H_    0.390122 0.092122 0.326800 0.268975
H109  H     H_    0.431595 0.166373 0.395084 0.287857
H110  H     H_    0.490838 0.030748 0.352962 0.264376
N5    N     N_R   0.391918 0.930909 0.940757 0.231338
O49   O     O_R   0.325642 0.956889 0.998223 -0.428146
O50   O     O_R   0.405987 0.874347 0.854560 -0.330043
N6    N     N_R   0.608325 0.069557 0.060322 0.241946
O51   O     O_R   0.650663 0.051306 0.113581 -0.341964
O52   O     O_R   0.618943 0.118152 0.032181 -0.399096
O53   O     O_3   0.939841 0.382861 0.396206 -0.594191
C103  C     C_3   0.009463 0.277662 0.327703 0.124684
H111  H     H_    0.979540 0.232812 0.307038 0.161871
H112  H     H_    0.063471 0.241793 0.352634 0.156478
C104  C     C_3   0.047485 0.266919 0.244422 -0.419451
H113  H     H_    0.993090 0.292321 0.215877 0.234238
H114  H     H_    0.071057 0.317830 0.263761 0.259267
C105  C     C_3   0.126712 0.154608 0.172308 -0.865671
H115  H     H_    0.182147 0.129042 0.199671 0.269148
H116  H     H_    0.152909 0.149676 0.113351 0.296695
H117  H     H_    0.104838 0.101683 0.149324 0.265922
O54   O     O_3   0.050983 0.624170 0.608773 -0.633621
C106  C     C_3   0.999009 0.724549 0.626982 0.124024
H118  H     H_    0.931511 0.772396 0.678028 0.143838
H119  H     H_    0.989461 0.721248 0.564764 0.193748
C107  C     C_3   0.047233 0.777165 0.665597 -0.319629
H120  H     H_    0.047967 0.791552 0.732885 0.213257
H121  H     H_    0.118227 0.724983 0.619810 0.260770
C108  C     C_3   0.000733 0.880253 0.675437 -0.891335
H122  H     H_    0.011674 0.865060 0.607582 0.304079
H123  H     H_    0.029758 0.922876 0.714137 0.253489
H124  H     H_    0.927010 0.929560 0.711536 0.269508
N7    N     N_R   0.902180 0.572716 0.403997 0.226010
O55   O     O_R   0.820489 0.596817 0.413815 -0.368986
O56   O     O_R   0.936583 0.584503 0.351019 -0.408655
N8    N     N_R   0.088585 0.431246 0.598885 0.212204
O57   O     O_R   0.057893 0.494046 0.686791 -0.402604
O58   O     O_R   0.154813 0.333532 0.559021 -0.381329

loop_
_geom_bond_atom_site_label_1
_geom_bond_atom_site_label_2
_geom_bond_distance
_ccdc_geom_bond_type
C55   C57   1.535644 S    
C98   H100  1.110383 S    
O35   C73   1.406275 S    
Zn7   O21   1.939778 S    
C76   H49   1.116753 S    
C83   H65   1.110974 S    
O41   C91   1.409072 S    
C89   C90   1.525695 S    
C27   H3    1.110438 S    
C61   H13   1.111046 S    
C48   C51   1.547435 S    
C78   H53   1.110423 S    
N7    O55   1.300273 A    
C79   H55   1.109193 S    
C20   N4    1.455864 S    
C44   H8    1.110131 S    
C62   H16   1.110380 S    
C68   C69   1.525070 S    
C21   C23   1.526802 S    
C83   C84   1.526349 S    
O20   C6    1.274787 A    
C22   C24   1.531215 S    
C45   C50   1.530055 S    
C56   C58   1.541326 S    
O15   C9    1.274814 A    
C24   C26   1.536612 S    
C25   C27   1.552443 S    
N2    O29   1.300265 A    
C26   C28   1.548759 S    
C41   C43   1.556819 S    
C7    C34   1.455654 S    
C106  H118  1.112855 S    
C15   H1    1.109896 S    
C32   C34   1.545600 S    
C16   H2    1.107831 S    
C52   O36   1.411596 S    
Zn3   O11   1.940146 S    
C77   C78   1.526124 S    
C50   C52   1.534160 S    
C53   C59   1.547338 S    
C22   C25   1.539724 S    
C14   C16   1.555041 S    
N3    O43   1.299986 A    
C33   C35   1.540090 S    
C40   C43   1.542277 S    
C37   O31   1.411445 S    
C74   H44   1.109508 S    
N4    O46   1.299624 A    
C3    C26   1.456697 S    
C37   C39   1.529320 S    
C95   H93   1.109375 S    
C85   H69   1.110437 S    
C82   H62   1.111075 S    
O33   C67   1.408144 S    
C70   C71   1.532670 S    
C54   H12   1.109094 S    
C28   H4    1.109788 S    
C80   H57   1.110882 S    
O6    C4    1.274120 A    
C48   H10   1.109935 S    
C92   H85   1.111915 S    
Zn2   O18   1.938133 S    
C29   C34   1.536979 S    
C72   H40   1.110771 S    
C93   H88   1.110214 S    
O7    C5    1.275162 A    
Zn4   O24   1.938320 S    
O8    C6    1.275272 A    
O36   C76   1.414621 S    
C42   C44   1.554009 S    
C102  H109  1.110796 S    
C73   H41   1.107103 S    
C69   H32   1.109987 S    
C36   N8    1.456504 S    
O34   C70   1.412808 S    
C100  H105  1.112179 S    
C13   O41   1.411209 S    
C8    C33   1.460605 S    
C105  H117  1.110791 S    
C56   O38   1.411713 S    
C68   H29   1.111481 S    
C54   C60   1.546149 S    
C47   C52   1.543249 S    
O3    C1    1.274993 A    
C82   C83   1.529453 S    
C105  H116  1.110297 S    
C37   C42   1.535322 S    
C15   C17   1.555024 S    
C12   C17   1.461219 S    
Zn2   O6    1.939865 S    
Zn4   O12   1.940148 S    
C108  H122  1.108677 S    
O40   C88   1.415423 S    
Zn8   O2    1.946670 S    
C64   H21   1.115161 S    
C76   C77   1.530496 S    
C96   H95   1.108744 S    
C81   H59   1.110947 S    
C97   H97   1.107619 S    
O38   C82   1.415019 S    
C99   H102  1.110505 S    
C70   H34   1.109690 S    
C65   H22   1.110935 S    
C5    C58   1.458880 S    
C34   C36   1.530946 S    
O24   C2    1.270648 A    
C106  H119  1.115028 S    
C89   H79   1.110501 S    
O10   C8    1.276953 A    
C39   C44   1.542596 S    
C38   C40   1.528777 S    
C9    C50   1.459394 S    
C31   C36   1.544804 S    
C84   H67   1.110397 S    
C96   H94   1.108002 S    
Zn5   O25   1.938207 S    
Zn8   O14   1.939626 S    
N1    O27   1.300147 A    
C35   N7    1.458383 S    
N8    O58   1.300400 A    
C49   C51   1.554850 S    
C104  C105  1.524821 S    
C108  H123  1.109918 S    
O12   C10   1.277902 A    
C1    C42   1.458451 S    
C77   H51   1.109958 S    
C21   C27   1.545492 S    
O13   C11   1.271327 A    
C86   H72   1.111750 S    
C22   C28   1.540077 S    
C14   C17   1.540158 S    
C22   N6    1.457429 S    
C23   C25   1.537076 S    
C24   O48   1.415598 S    
C103  H111  1.110874 S    
C40   C42   1.535688 S    
C80   C81   1.526368 S    
C85   C86   1.526565 S    
Zn4   O8    1.938682 S    
Zn5   O1    1.952635 S    
Zn3   O1    1.948294 S    
C59   O39   1.411098 S    
Zn5   O15   1.938137 S    
C2    C41   1.460999 S    
Zn8   O4    1.939150 S    
Zn6   O16   1.938137 S    
C57   C59   1.544589 S    
C101  H107  1.110478 S    
C97   C98   1.531444 S    
C92   H86   1.111844 S    
C23   O47   1.411096 S    
C94   C95   1.536074 S    
C29   C35   1.530592 S    
C29   O53   1.416240 S    
C65   C66   1.525257 S    
O17   C11   1.275310 A    
C63   H17   1.109872 S    
C55   C60   1.531947 S    
O21   C7    1.271341 A    
C51   O35   1.416620 S    
C67   H27   1.113623 S    
C101  C102  1.525320 S    
C61   H14   1.116883 S    
O48   C100  1.410602 S    
C21   N5    1.457289 S    
C30   C36   1.529175 S    
C96   H96   1.108986 S    
C99   H101  1.111070 S    
C62   H15   1.111585 S    
C6    C57   1.461942 S    
C68   H30   1.111183 S    
N5    O50   1.299419 A    
C47   C49   1.558857 S    
C84   H66   1.110977 S    
N2    O30   1.300248 A    
C61   C62   1.530717 S    
N6    O51   1.300389 A    
C32   C35   1.547227 S    
C71   H36   1.111799 S    
C46   C52   1.529313 S    
C30   O54   1.410787 S    
C103  C104  1.534356 S    
C66   H26   1.109349 S    
C91   H83   1.113674 S    
C58   C60   1.536064 S    
C74   H43   1.111004 S    
C100  H104  1.110001 S    
C88   H76   1.111150 S    
C95   C96   1.520689 S    
C16   C18   1.545932 S    
C85   H70   1.115054 S    
C75   H45   1.109436 S    
C70   H35   1.115626 S    
C107  H120  1.111774 S    
Zn5   O9    1.936906 S    
C54   C57   1.549229 S    
Zn7   O1    1.946669 S    
O54   C106  1.410466 S    
C76   H48   1.109918 S    
C73   C74   1.535842 S    
C79   H56   1.113832 S    
C87   H73   1.110518 S    
C71   C72   1.525847 S    
C94   H90   1.110612 S    
C31   C33   1.552462 S    
C72   H39   1.110078 S    
C63   H19   1.110905 S    
C88   H77   1.116891 S    
C83   H64   1.112003 S    
C98   C99   1.526058 S    
C102  H108  1.111131 S    
C73   H42   1.105097 S    
N1    O28   1.300307 A    
C69   H33   1.108574 S    
C67   C68   1.527633 S    
O11   C9    1.275232 A    
C48   C50   1.542964 S    
C78   H54   1.110962 S    
N7    O56   1.300299 A    
C45   O33   1.410469 S    
Zn1   O1    1.949613 S    
C107  C108  1.523932 S    
O47   C97   1.416811 S    
C62   C63   1.524412 S    
C90   H80   1.110805 S    
Zn7   O13   1.939626 S    
O25   C3    1.275660 A    
Zn6   O26   1.938208 S    
C84   H68   1.111149 S    
C82   H63   1.117116 S    
C55   O37   1.415891 S    
C23   C28   1.551527 S    
C39   N1    1.457531 S    
C13   C18   1.537504 S    
O14   C12   1.273998 A    
C46   C48   1.551609 S    
C54   C56   1.551740 S    
N3    O44   1.299817 A    
C64   H20   1.112649 S    
O16   C10   1.274435 A    
O23   C1    1.270876 A    
O42   C94   1.412563 S    
C81   H60   1.108537 S    
C66   H24   1.110779 S    
C91   C92   1.528481 S    
C74   C75   1.526148 S    
N4    O45   1.300355 A    
C97   H98   1.115970 S    
O31   C61   1.412178 S    
C88   C89   1.531036 S    
C95   H92   1.109821 S    
C75   H47   1.105790 S    
C65   H23   1.111756 S    
Zn6   O2    1.952635 S    
Zn8   O22   1.939777 S    
C81   H61   1.110871 S    
O53   C103  1.411257 S    
C38   C41   1.534911 S    
C87   H75   1.108398 S    
C93   H87   1.110411 S    
C53   C58   1.548397 S    
O18   C12   1.274125 A    
O37   C79   1.411755 S    
C102  H110  1.110981 S    
C45   C47   1.549326 S    
C69   H31   1.110781 S    
O22   C8    1.272821 A    
C14   O42   1.416328 S    
C90   H82   1.110079 S    
C100  C101  1.534084 S    
C104  H114  1.109011 S    
O39   C85   1.411318 S    
C21   C26   1.537599 S    
C13   C15   1.552047 S    
C86   H71   1.110201 S    
Zn7   O3    1.939149 S    
C56   C59   1.531816 S    
C24   C27   1.558482 S    
C103  H112  1.113562 S    
C80   H58   1.109996 S    
C105  H115  1.110257 S    
C37   C43   1.553285 S    
C93   H89   1.111075 S    
C31   H5    1.110355 S    
C10   C49   1.465146 S    
C78   H52   1.111016 S    
O19   C5    1.273217 A    
C64   C65   1.525881 S    
O4    C2    1.276474 A    
C38   O32   1.410312 S    
O5    C3    1.273799 A    
C79   C80   1.534600 S    
C4    C25   1.462595 S    
Zn1   O17   1.938130 S    
C94   H91   1.112503 S    
C53   C55   1.551721 S    
C63   H18   1.110487 S    
C17   C19   1.542832 S    
Zn6   O10   1.936910 S    
C18   C20   1.530911 S    
C106  C107  1.527658 S    
C89   H78   1.111691 S    
C67   H28   1.112572 S    
C39   C41   1.538299 S    
C30   C33   1.540059 S    
C45   C51   1.533378 S    
C29   C31   1.556043 S    
Zn3   O23   1.938318 S    
C90   H81   1.110476 S    
C60   O40   1.413226 S    
N5    O49   1.299914 A    
C30   C32   1.552396 S    
N8    O57   1.300267 A    
N6    O52   1.299849 A    
C11   C18   1.458194 S    
C108  H124  1.109707 S    
C71   H37   1.109853 S    
C99   H103  1.111020 S    
Zn1   O5    1.939865 S    
Zn4   O2    1.948295 S    
C98   H99   1.110677 S    
Zn2   O2    1.949611 S    
C104  H113  1.110871 S    
Zn3   O7    1.938682 S    
C77   H50   1.110961 S    
C13   C19   1.529600 S    
C86   C87   1.524803 S    
C14   C20   1.530842 S    
C46   C49   1.543942 S    
C43   H7    1.109609 S    
O26   C4    1.278370 A    
C66   H25   1.107289 S    
C91   H84   1.113077 S    
Zn2   O20   1.938179 S    
C15   C20   1.541865 S    
C16   C19   1.545534 S    
C75   H46   1.106003 S    
C107  H121  1.111058 S    
O9    C7    1.276012 A    
C101  H106  1.111758 S    
C38   C44   1.553585 S    
C92   C93   1.524668 S    
C87   H74   1.110309 S    
C47   H9    1.109326 S    
C19   N3    1.458233 S    
C40   N2    1.457696 S    
Zn1   O19   1.938179 S    
C46   O34   1.414351 S    
C32   H6    1.110134 S    
C72   H38   1.110117 S    
C53   H11   1.110298 S    
O32   C64   1.409035 S    
