data_mof_unit_47497.cif
_audit_creation_date              2012-12-10T20:44:40-0500
_audit_creation_method            fapswitch 2.2
_symmetry_space_group_name_H-M    P1
_symmetry_Int_Tables_number       1
_space_group_crystal_system       triclinic
_cell_length_a                    9.849894
_cell_length_b                    10.652322
_cell_length_c                    16.849212
_cell_angle_alpha                 89.475197
_cell_angle_beta                  94.354304
_cell_angle_gamma                 89.654906
_cell_volume                      1762.67404345

loop_
_atom_site_label
_atom_site_type_symbol
_atom_type_description
_atom_site_fract_x
_atom_site_fract_y
_atom_site_fract_z
_atom_type_partial_charge
C1    C     C_R   0.500080 0.259715 0.497300 0.893705
C2    C     C_R   0.653760 0.526185 0.782116 -0.222530
C3    C     C_R   0.580700 0.584193 0.143017 -0.158601
C4    C     C_R   0.589440 0.557838 0.223618 -0.231571
C5    C     C_R   0.453852 0.578401 0.098590 0.325474
C6    C     C_R   0.472014 0.527146 0.261322 -0.021923
C7    C     C_R   0.344812 0.526650 0.217906 -0.179684
C8    C     C_R   0.336172 0.552440 0.136764 -0.192090
C9    C     C_R   0.622008 0.062427 0.486999 0.148877
C10   C     C_R   0.499846 0.128728 0.481891 -0.135588
C11   C     C_R   0.379171 0.068524 0.454482 -0.273859
C12   C     C_R   0.517467 0.501675 0.653328 0.866639
C13   C     C_R   0.377412 0.938129 0.447872 -0.044060
C14   C     C_R   0.497559 0.870931 0.474325 -0.196258
C15   C     C_R   0.620519 0.934851 0.484448 0.126670
C16   C     C_3   0.736544 0.921972 0.546668 -0.444456
C17   C     C_3   0.739002 0.064078 0.548829 -0.490946
C18   C     C_R   0.080439 0.480904 0.569104 0.215647
C19   C     C_R   0.063113 0.530406 0.433181 -0.106927
C20   C     C_R   0.919184 0.530471 0.433185 -0.139624
C21   C     C_R   0.937803 0.481602 0.569232 0.217319
C22   C     C_3   0.939591 0.368499 0.621994 -0.512992
C23   C     C_R   0.498662 0.739770 0.493187 0.907660
C24   C     C_3   0.093575 0.367045 0.621207 -0.499356
C25   C     C_R   0.482384 0.505138 0.346702 0.882212
C26   C     C_R   0.526707 0.520859 0.738792 -0.029202
C27   C     C_R   0.407294 0.543444 0.776635 -0.234297
C28   C     C_R   0.414270 0.568647 0.857021 -0.162596
C29   C     C_R   0.541593 0.570597 0.901188 0.329371
C30   C     C_R   0.660749 0.550809 0.863096 -0.193138
H1    H     H_    0.688337 0.561882 0.256237 0.155514
H2    H     H_    0.706151 0.878444 0.602853 0.200863
H3    H     H_    0.828559 0.880302 0.522641 0.220138
H4    H     H_    0.711451 0.103473 0.606416 0.197895
H5    H     H_    0.832019 0.103449 0.524980 0.217646
H6    H     H_    0.109944 0.552956 0.378906 0.173101
H7    H     H_    0.858175 0.553332 0.378929 0.147647
H8    H     H_    0.904282 0.389832 0.681455 0.194436
H9    H     H_    0.889987 0.286712 0.592186 0.215875
H10   H     H_    0.146392 0.387028 0.680301 0.196996
H11   H     H_    0.673614 0.605955 0.115423 0.149024
H12   H     H_    0.133626 0.284356 0.590351 0.224460
H13   H     H_    0.758934 0.551770 0.896725 0.137932
H14   H     H_    0.747301 0.511440 0.753662 0.153011
H15   H     H_    0.252585 0.505211 0.246323 0.157130
H16   H     H_    0.319774 0.584167 0.884468 0.148199
H17   H     H_    0.238341 0.547902 0.102934 0.137967
H18   H     H_    0.308101 0.542727 0.744207 0.158905
H19   H     H_    0.286518 0.122211 0.440221 0.202017
N1    N     N_2   0.553474 0.580364 0.984724 -0.206978
N2    N     N_2   0.442079 0.585331 0.014871 -0.207210
N3    N     N_R   0.142860 0.499130 0.500540 -0.107775
N4    N     N_R   0.857210 0.499170 0.500530 -0.106068
O1    O     O_R   0.614690 0.316790 0.499990 -0.611830
O2    O     O_R   0.385350 0.316760 0.500000 -0.621979
O3    O     O_R   0.627460 0.498860 0.616130 -0.621785
O4    O     O_R   0.398120 0.498820 0.616130 -0.622287
O5    O     O_R   0.614650 0.683240 0.500000 -0.618707
O6    O     O_R   0.385310 0.683210 0.500010 -0.592179
O7    O     O_R   0.601880 0.501180 0.383870 -0.635045
O8    O     O_R   0.372540 0.501140 0.383870 -0.610030
Zn1   Zn    Zn3+2 0.653130 0.500020 0.499990 0.947169
Zn2   Zn    Zn3+2 0.346870 0.499980 0.500010 0.972411
C31   C     C_2   0.250229 0.877787 0.414894 0.941726
O9    O     O_2   0.255652 0.787337 0.371033 -0.639038
O10   O     O_R   0.123887 0.927804 0.431314 -0.826353
H20   H     H_    0.044757 0.879035 0.405177 0.333323

loop_
_geom_bond_atom_site_label_1
_geom_bond_atom_site_label_2
_ccdc_geom_bond_type
C27   H18   S    
C14   C23   S    
C23   O5    A    
C23   O6    A    
C1    O1    A    
O5    Zn1   S    
C29   C30   A    
C11   H19   S    
C25   O7    A    
C17   H4    S    
C16   H3    S    
C16   H2    S    
C18   C21   A    
C24   H12   S    
C9    C10   A    
O6    Zn2   S    
C19   C20   A    
C2    C30   A    
C31   O9    D    
O10   H20   S    
C9    C15   A    
C8    H17   S    
C18   N3    A    
C7    C8    A    
C2    C26   A    
C25   O8    A    
C21   C22   S    
C21   N4    A    
C20   H7    S    
C11   C13   A    
C28   H16   S    
C26   C27   A    
C12   O3    A    
C13   C31   S    
C18   C24   S    
C12   O4    A    
C7    H15   S    
C4    C6    A    
C28   C29   A    
C24   H10   S    
C12   C26   S    
N1    N2    D    
C6    C7    A    
C22   C24   S    
C29   N1    S    
C1    O2    A    
O3    Zn1   S    
C30   H13   S    
C6    C25   S    
C16   C17   S    
C10   C11   A    
C22   H9    S    
C3    C4    A    
C4    H1    S    
O7    Zn1   S    
N4    Zn1   S    
C9    C17   S    
C27   C28   A    
O8    Zn2   S    
C5    C8    A    
C14   C15   A    
C3    H11   S    
O2    Zn2   S    
C17   H5    S    
C19   H6    S    
C13   C14   A    
O1    Zn1   S    
C19   N3    A    
N3    Zn2   S    
C5    N2    S    
C1    C10   S    
C15   C16   S    
O4    Zn2   S    
C2    H14   S    
C20   N4    A    
C3    C5    A    
C22   H8    S    
C31   O10   S    
