data_mof_unit_38587.cif
_audit_creation_date              2012-12-10T16:58:29-0500
_audit_creation_method            fapswitch 2.2
_symmetry_space_group_name_H-M    P1
_symmetry_Int_Tables_number       1
_space_group_crystal_system       triclinic
_cell_length_a                    7.82829
_cell_length_b                    8.696358
_cell_length_c                    23.307949
_cell_angle_alpha                 90.596895
_cell_angle_beta                  85.092547
_cell_angle_gamma                 93.249238
_cell_volume                      1578.36657024

loop_
_atom_site_label
_atom_site_type_symbol
_atom_type_description
_atom_site_fract_x
_atom_site_fract_y
_atom_site_fract_z
_atom_type_partial_charge
C1    C     C_R   0.545336 0.794465 0.498268 0.943778
C2    C     C_R   0.454663 0.205535 0.501727 0.944031
C3    C     C_R   0.430570 0.406603 0.766999 -0.154299
C4    C     C_R   0.570024 0.593018 0.232970 -0.154498
C5    C     C_R   0.443420 0.387555 0.707643 -0.034656
C6    C     C_R   0.556977 0.612271 0.292323 -0.034596
C7    C     C_R   0.507797 0.510837 0.672603 -0.082545
C8    C     C_R   0.492255 0.489147 0.327396 -0.082623
C9    C     C_R   0.568302 0.648044 0.697389 -0.299757
C10   C     C_R   0.431794 0.351874 0.302642 -0.299701
C11   C     C_R   0.544634 0.672048 0.756931 0.079280
C12   C     C_R   0.455776 0.327656 0.243116 0.079304
C13   C     C_R   0.479767 0.547061 0.792068 0.230281
C14   C     C_R   0.520795 0.452519 0.207943 0.230157
C15   C     C_2   0.568982 0.957556 0.496889 -0.370962
C16   C     C_2   0.431013 0.042444 0.503093 -0.371073
C17   C     C_R   0.502151 0.502262 0.610404 0.843850
C18   C     C_R   0.497864 0.497783 0.389595 0.843756
C19   C     C_R   0.364529 0.421616 0.123068 0.504011
C20   C     C_R   0.636131 0.577734 0.876931 0.503926
C21   C     C_R   0.665972 0.489416 0.113247 0.469575
C22   C     C_R   0.334695 0.509923 0.886762 0.469634
C23   C     C_R   0.660631 0.515913 0.054479 -0.012879
C24   C     C_R   0.340070 0.483310 0.945521 -0.012935
C25   C     C_R   0.504437 0.487241 0.029580 -0.021395
C26   C     C_R   0.496269 0.511952 0.970417 -0.021399
C27   C     C_R   0.355988 0.435381 0.063778 -0.016415
C28   C     C_R   0.644709 0.563850 0.936219 -0.016469
C29   C     C_R   0.806160 0.573679 0.020493 -0.209773
C30   C     C_R   0.194553 0.425508 0.979504 -0.209796
C31   C     C_R   0.798666 0.596533 0.961757 -0.159581
C32   C     C_R   0.202041 0.402665 0.038239 -0.159602
H1    H     H_    0.925759 0.602350 0.039232 0.195962
H2    H     H_    0.074959 0.396845 0.960765 0.195949
H3    H     H_    0.913641 0.639739 0.936508 0.211968
H4    H     H_    0.087064 0.359473 0.063488 0.211923
H5    H     H_    0.387844 0.309563 0.794324 0.157680
H6    H     H_    0.612973 0.689928 0.205608 0.157665
H7    H     H_    0.627602 0.738111 0.669822 0.137497
H8    H     H_    0.372446 0.261870 0.330233 0.137446
H9    H     H_    0.699692 0.007565 0.491039 0.189122
H10   H     H_    0.300303 0.992435 0.508942 0.189127
N1    N     N_R   0.518426 0.447004 0.146570 -0.356017
N2    N     N_R   0.482214 0.552414 0.853439 -0.356025
N3    N     N_2   0.950330 0.457950 0.484560 0.193163
N4    N     N_2   0.049670 0.542050 0.515440 0.193167
O1    O     O_R   0.389250 0.738570 0.503790 -0.640986
O2    O     O_R   0.610750 0.261430 0.496210 -0.640940
O3    O     O_R   0.678390 0.711620 0.493890 -0.568905
O4    O     O_R   0.321610 0.288380 0.506110 -0.568930
O5    O     O_R   0.355400 0.513520 0.588790 -0.652029
O6    O     O_R   0.644600 0.486480 0.411210 -0.652007
O7    O     O_R   0.644550 0.486570 0.578900 -0.589067
O8    O     O_R   0.355450 0.513430 0.421100 -0.589068
O9    O     O_2   0.219234 0.388392 0.157165 -0.541601
O10   O     O_2   0.781400 0.611029 0.842828 -0.541574
O11   O     O_2   0.816705 0.508289 0.137302 -0.555320
O12   O     O_2   0.183950 0.491105 0.862715 -0.555287
Zn1   Zn    Zn3+2 0.306930 0.518000 0.506610 1.024383
Zn2   Zn    Zn3+2 0.693070 0.482000 0.493390 1.024407
C33   C     C_R   0.412916 0.232177 0.684187 0.108470
C34   C     C_R   0.256596 0.148799 0.698141 -0.130931
C35   C     C_R   0.236108 0.995282 0.680994 -0.140892
C36   C     C_R   0.371484 0.925422 0.650040 -0.125488
C37   C     C_R   0.526984 0.008267 0.635853 -0.146039
C38   C     C_R   0.548091 0.161123 0.652933 -0.130772
H11   H     H_    0.152661 0.202223 0.722986 0.130793
H12   H     H_    0.116837 0.929851 0.692470 0.117931
H13   H     H_    0.357872 0.805779 0.638202 0.129457
H14   H     H_    0.632627 0.953539 0.612474 0.130437
H15   H     H_    0.671412 0.222456 0.643399 0.141813
C39   C     C_R   0.587900 0.767686 0.315714 0.108752
C40   C     C_R   0.453125 0.838977 0.347094 -0.131063
C41   C     C_R   0.474522 0.991946 0.364006 -0.145788
C42   C     C_R   0.629880 0.074690 0.349512 -0.125730
C43   C     C_R   0.764894 0.004578 0.318469 -0.140969
C44   C     C_R   0.744147 0.850944 0.301506 -0.131004
H16   H     H_    0.329836 0.777773 0.356829 0.141824
H17   H     H_    0.369160 0.046845 0.387468 0.130349
H18   H     H_    0.643687 0.194443 0.361167 0.129491
H19   H     H_    0.884049 0.069923 0.306768 0.118241
H20   H     H_    0.847780 0.797352 0.276568 0.130854
C45   C     C_R   0.581810 0.827850 0.781307 0.162662
C46   C     C_R   0.463504 0.892481 0.822260 -0.148924
C47   C     C_R   0.499316 0.038078 0.845788 -0.163545
C48   C     C_R   0.652357 0.121285 0.828264 -0.102192
C49   C     C_R   0.769163 0.059506 0.786878 -0.118064
C50   C     C_R   0.734381 0.913600 0.763412 -0.096185
H21   H     H_    0.343081 0.830668 0.835778 0.154936
H22   H     H_    0.407959 0.086852 0.877397 0.145101
H23   H     H_    0.679816 0.234113 0.846450 0.150637
H24   H     H_    0.887004 0.124546 0.773206 0.132684
H25   H     H_    0.827289 0.866646 0.731939 0.111116
C51   C     C_R   0.418810 0.171766 0.218785 0.162660
C52   C     C_R   0.266252 0.085977 0.236650 -0.096178
C53   C     C_R   0.231612 0.940028 0.213201 -0.118024
C54   C     C_R   0.348555 0.878249 0.171858 -0.102112
C55   C     C_R   0.501609 0.961488 0.154373 -0.163539
C56   C     C_R   0.537280 0.107123 0.177889 -0.148861
H26   H     H_    0.173252 0.132947 0.268083 0.111031
H27   H     H_    0.113776 0.874956 0.226849 0.132612
H28   H     H_    0.321196 0.765393 0.153681 0.150591
H29   H     H_    0.593084 0.912709 0.122803 0.145052
H30   H     H_    0.657711 0.168963 0.164400 0.154963
O13   O     O_3   0.036445 0.344636 0.457486 -0.524746
C57   C     C_3   0.953809 0.298992 0.409017 -0.173040
H31   H     H_    0.931899 0.398750 0.381684 0.168259
H32   H     H_    0.835836 0.229700 0.422461 0.179099
H33   H     H_    0.038709 0.223113 0.382489 0.123344
O14   O     O_3   0.963547 0.655374 0.542502 -0.524727
C58   C     C_3   0.046104 0.700993 0.590990 -0.173128
H34   H     H_    0.163977 0.770450 0.577564 0.178958
H35   H     H_    0.068150 0.601212 0.618296 0.168334
H36   H     H_    0.961064 0.776714 0.617538 0.123157

loop_
_geom_bond_atom_site_label_1
_geom_bond_atom_site_label_2
_ccdc_geom_bond_type
C49   C50   A    
N3    Zn2   S    
C16   H10   S    
N4    Zn1   S    
C40   C41   A    
C52   C53   A    
C20   O10   S    
C17   O5    A    
C2    O4    A    
C54   C55   A    
C18   O6    A    
C47   C48   A    
C6    C39   S    
C34   C35   A    
O3    Zn2   S    
C34   H11   S    
O4    Zn1   S    
C23   C29   A    
C24   C26   A    
C48   H23   S    
C57   H31   S    
C55   H29   S    
C29   H1    S    
C9    H7    S    
C10   H8    S    
O14   C58   S    
C44   H20   S    
O6    Zn2   S    
C21   N1    A    
C33   C38   A    
C22   N2    A    
C45   C46   A    
N3    O13   S    
C7    C17   S    
C40   H16   S    
C1    C15   S    
C19   C27   A    
C42   H18   S    
C54   H28   S    
C3    C13   A    
C56   H30   S    
C53   H27   S    
C12   C51   S    
C51   C52   A    
C20   N2    A    
O7    Zn2   S    
C19   N1    A    
O2    Zn2   S    
O8    Zn1   S    
C41   C42   A    
C30   H2    S    
C43   C44   A    
C15   H9    S    
C4    C6    A    
C5    C7    A    
C50   H25   S    
C52   H26   S    
C1    O1    A    
C6    C8    A    
C20   C28   A    
C11   C45   S    
C25   C26   A    
N3    N4    D    
C8    C18   S    
C42   C43   A    
C21   O11   S    
C39   C44   A    
C38   H15   S    
C53   C54   A    
C5    C33   S    
C58   H35   S    
C36   H13   S    
C46   C47   A    
C9    C11   A    
C10   C12   A    
C4    H6    S    
C55   C56   A    
C41   H17   S    
N4    O14   S    
C22   C24   A    
O5    Zn1   S    
C46   H21   S    
C17   O7    A    
C2    C16   S    
C19   O9    S    
C7    C9    A    
C35   H12   S    
C58   H34   S    
C27   C32   A    
C48   C49   A    
C28   C31   A    
C12   C14   A    
C39   C40   A    
C3    C5    A    
C43   H19   S    
C22   O12   S    
C47   H22   S    
C32   H4    S    
C25   C27   A    
O13   C57   S    
C26   C28   A    
C2    O2    A    
C36   C37   A    
C21   C23   A    
C29   C31   A    
C30   C32   A    
C11   C13   A    
C57   H32   S    
C51   C56   A    
C15   C16   D    
C45   C50   A    
C58   H36   S    
C31   H3    S    
C23   C25   A    
C4    C14   A    
C33   C34   A    
C24   C30   A    
C18   O8    A    
O1    Zn1   S    
C35   C36   A    
C3    H5    S    
C8    C10   A    
C37   C38   A    
C49   H24   S    
C1    O3    A    
C13   N2    S    
C37   H14   S    
C14   N1    S    
C57   H33   S    
