data_mof_unit_64116.cif
_audit_creation_date              2012-12-10T20:08:34-0500
_audit_creation_method            fapswitch 2.2
_symmetry_space_group_name_H-M    P1
_symmetry_Int_Tables_number       1
_space_group_crystal_system       triclinic
_cell_length_a                    32.141393
_cell_length_b                    32.14165
_cell_length_c                    32.141534
_cell_angle_alpha                 89.918358
_cell_angle_beta                  90.078128
_cell_angle_gamma                 89.999033
_cell_volume                      33204.6279302

loop_
_atom_site_label
_atom_site_type_symbol
_atom_type_description
_atom_site_fract_x
_atom_site_fract_y
_atom_site_fract_z
_atom_type_partial_charge
C1    C     C_R   0.999993 0.580596 0.499966 0.905616
C2    C     C_R   0.999968 0.500000 0.419406 0.904865
C3    C     C_1   0.838114 0.499721 0.999396 -0.093749
C4    C     C_1   0.499732 0.838113 0.000646 -0.094003
C5    C     C_1   0.499701 0.999457 0.838112 -0.097141
C6    C     C_1   0.499705 0.161887 0.999478 -0.092697
C7    C     C_1   0.500366 0.999311 0.161887 -0.094003
C8    C     C_1   0.838114 0.000710 0.499640 -0.093044
C9    C     C_1   0.000601 0.161887 0.499641 -0.094789
C10   C     C_1   0.161885 0.000694 0.500392 -0.094755
C11   C     C_1   0.000665 0.838114 0.500388 -0.092822
C12   C     C_1   0.499644 0.999585 0.661885 -0.095391
C13   C     C_R   0.499986 0.999964 0.580595 0.904408
C14   C     C_1   0.661886 0.999702 0.500607 -0.093136
C15   C     C_1   0.499425 0.000395 0.338113 -0.093495
C16   C     C_1   0.338114 0.999737 0.499392 -0.093865
C17   C     C_1   0.999696 0.338114 0.500682 -0.093845
C18   C     C_1   0.999692 0.499767 0.338116 -0.095747
C19   C     C_1   0.999724 0.661886 0.499341 -0.093209
C20   C     C_1   0.000375 0.499440 0.661887 -0.093473
C21   C     C_1   0.338115 0.500656 0.999609 -0.092997
C22   C     C_1   0.500686 0.661885 0.999611 -0.094830
C23   C     C_1   0.661884 0.500721 0.000371 -0.095229
C24   C     C_R   0.000032 0.499973 0.580596 0.904231
C25   C     C_1   0.500768 0.338114 0.000364 -0.093322
C26   C     C_1   0.999862 0.499891 0.375323 -0.155219
C27   C     C_1   0.375320 0.500331 0.999847 -0.152004
C28   C     C_1   0.000149 0.499714 0.624681 -0.153953
C29   C     C_1   0.624680 0.500364 0.000147 -0.156238
C30   C     C_1   0.500347 0.624680 0.999845 -0.156095
C31   C     C_1   0.499818 0.999830 0.624679 -0.155042
C32   C     C_1   0.500383 0.375319 0.000149 -0.152244
C33   C     C_1   0.499707 0.000156 0.375319 -0.153958
C34   C     C_1   0.624681 0.999923 0.500313 -0.152676
C35   C     C_R   0.499993 0.080596 0.999973 0.905685
C36   C     C_1   0.999923 0.375319 0.500348 -0.154744
C37   C     C_1   0.375320 0.999935 0.499690 -0.154766
C38   C     C_1   0.999929 0.624681 0.499661 -0.152752
C39   C     C_1   0.499868 0.999723 0.875318 -0.155530
C40   C     C_1   0.875319 0.000357 0.499855 -0.151705
C41   C     C_1   0.500147 0.999653 0.124681 -0.154098
C42   C     C_1   0.124680 0.000349 0.500153 -0.155594
C43   C     C_1   0.000299 0.124681 0.499854 -0.155667
C44   C     C_1   0.999790 0.499875 0.124681 -0.155655
C45   C     C_1   0.000337 0.875319 0.500154 -0.151551
C46   C     C_R   0.000023 0.080596 0.499967 0.902065
C47   C     C_1   0.999632 0.500153 0.875319 -0.153986
C48   C     C_1   0.124681 0.499931 0.000329 -0.152461
C49   C     C_1   0.499934 0.875318 0.000334 -0.154580
C50   C     C_1   0.875320 0.499930 0.999688 -0.154541
C51   C     C_1   0.499924 0.124681 0.999731 -0.152244
C52   C     C_2   0.957910 0.565587 0.295820 0.520153
C53   C     C_2   0.296327 0.554907 0.055418 0.531661
C54   C     C_2   0.048673 0.560507 0.703758 0.526669
C55   C     C_2   0.703664 0.550724 0.940581 0.528492
C56   C     C_2   0.946967 0.442755 0.703772 0.528783
C57   C     C_R   0.499994 0.919404 0.000035 0.904049
C58   C     C_2   0.296132 0.441916 0.948610 0.525687
C59   C     C_2   0.040754 0.433490 0.296106 0.527075
C60   C     C_2   0.703879 0.445923 0.055736 0.520838
C61   C     C_2   0.553803 0.703658 0.056657 0.528633
C62   C     C_2   0.567768 0.961652 0.704142 0.520526
C63   C     C_2   0.545966 0.296347 0.936990 0.530823
C64   C     C_2   0.560360 0.048865 0.296239 0.527223
C65   C     C_2   0.450477 0.296118 0.059717 0.526273
C66   C     C_2   0.430901 0.036372 0.703928 0.527627
C67   C     C_2   0.443007 0.703874 0.947256 0.520736
C68   C     C_R   0.000027 0.919404 0.500033 0.906130
C69   C     C_2   0.442843 0.946883 0.296232 0.528699
C70   C     C_2   0.703669 0.950621 0.440221 0.526814
C71   C     C_2   0.946498 0.296342 0.443736 0.526530
C72   C     C_2   0.296140 0.056794 0.446314 0.529129
C73   C     C_2   0.057952 0.703860 0.447714 0.532141
C74   C     C_2   0.296319 0.947454 0.557166 0.526918
C75   C     C_2   0.057440 0.296119 0.552989 0.529092
C76   C     C_2   0.703867 0.053744 0.556594 0.533024
C77   C     C_2   0.946096 0.703674 0.555724 0.526618
C78   C     C_2   0.437076 0.045913 0.795860 0.520966
C79   C     C_R   0.080595 0.000027 0.500032 0.902089
C80   C     C_2   0.796341 0.049878 0.559984 0.532249
C81   C     C_2   0.556916 0.052828 0.203779 0.527343
C82   C     C_2   0.203670 0.053114 0.442711 0.529185
C83   C     C_2   0.439485 0.950748 0.203753 0.528961
C84   C     C_2   0.796119 0.946656 0.443702 0.526687
C85   C     C_2   0.561555 0.952000 0.796059 0.526285
C86   C     C_2   0.203872 0.943675 0.553470 0.521689
C87   C     C_2   0.053789 0.203647 0.556627 0.529106
C88   C     C_2   0.049822 0.440133 0.204174 0.520332
C89   C     C_2   0.054369 0.796337 0.444041 0.532315
C90   C     C_R   0.080595 0.499993 0.000030 0.906333
C91   C     C_2   0.052626 0.557088 0.796217 0.526521
C92   C     C_2   0.942426 0.796127 0.551961 0.526454
C93   C     C_2   0.948648 0.558777 0.203909 0.526551
C94   C     C_2   0.942742 0.203894 0.447490 0.521424
C95   C     C_2   0.950831 0.439410 0.796250 0.529061
C96   C     C_2   0.203686 0.445561 0.944790 0.525988
C97   C     C_2   0.446708 0.796328 0.943549 0.524736
C98   C     C_2   0.796133 0.554547 0.944018 0.529073
C99   C     C_2   0.550068 0.203872 0.940149 0.530444
C100  C     C_2   0.796325 0.449828 0.059248 0.524918
C101  C     C_R   0.919404 0.000028 0.499968 0.906278
C102  C     C_2   0.557425 0.796136 0.053031 0.529087
C103  C     C_2   0.203858 0.558472 0.051681 0.530811
C104  C     C_2   0.454661 0.203662 0.062940 0.526499
C105  C     C_R   0.500027 0.580595 0.999967 0.902235
C106  C     C_R   0.919405 0.499994 0.999968 0.903768
C107  C     C_R   0.999967 0.500033 0.919404 0.904704
C108  C     C_R   0.499969 0.999980 0.919404 0.906480
C109  C     C_R   0.999985 0.499969 0.080596 0.906188
C110  C     C_R   0.500032 0.999971 0.080596 0.904325
C111  C     C_R   0.975819 0.529782 0.227977 -0.031138
C112  C     C_R   0.228065 0.527917 0.026573 -0.033321
C113  C     C_R   0.024707 0.529038 0.771973 -0.032213
C114  C     C_R   0.771931 0.525930 0.971399 -0.033463
C115  C     C_R   0.974579 0.471063 0.771986 -0.033454
C116  C     C_R   0.999993 0.419405 0.500031 0.903629
C117  C     C_R   0.227977 0.472290 0.973934 -0.031712
C118  C     C_R   0.022855 0.469295 0.228114 -0.029570
C119  C     C_R   0.772029 0.474339 0.028147 -0.031488
C120  C     C_R   0.527392 0.771931 0.027213 -0.033656
C121  C     C_R   0.530998 0.977418 0.772005 -0.031118
C122  C     C_R   0.523667 0.228073 0.969601 -0.032899
C123  C     C_R   0.528942 0.024831 0.228025 -0.032420
C124  C     C_R   0.476662 0.227966 0.030077 -0.031645
C125  C     C_R   0.467799 0.020748 0.771902 -0.029722
C126  C     C_R   0.472845 0.772029 0.973296 -0.031469
C127  C     C_R   0.500028 0.419404 0.000033 0.906866
C128  C     C_R   0.471087 0.974562 0.228015 -0.033496
C129  C     C_R   0.771927 0.974938 0.471360 -0.031909
C130  C     C_R   0.972897 0.228079 0.473186 -0.030443
C131  C     C_R   0.227972 0.027319 0.472748 -0.033510
C132  C     C_R   0.027893 0.772030 0.473404 -0.033650
C133  C     C_R   0.228068 0.973427 0.527316 -0.030523
C134  C     C_R   0.027582 0.227962 0.526960 -0.033486
C135  C     C_R   0.772032 0.025769 0.528649 -0.033810
C136  C     C_R   0.972765 0.771931 0.526575 -0.031718
C137  C     C_R   0.466635 0.018980 0.727989 -0.031090
C138  C     C_R   0.580595 0.500029 0.000032 0.902560
C139  C     C_R   0.728070 0.025511 0.528897 -0.033675
C140  C     C_R   0.528720 0.025088 0.271984 -0.032260
C141  C     C_R   0.271935 0.027076 0.472493 -0.033359
C142  C     C_R   0.470846 0.974841 0.271977 -0.032866
C143  C     C_R   0.727968 0.974703 0.471587 -0.031724
C144  C     C_R   0.532162 0.979257 0.728095 -0.028369
C145  C     C_R   0.272026 0.973206 0.527083 -0.032242
C146  C     C_R   0.027353 0.271924 0.527226 -0.033407
C147  C     C_R   0.021176 0.468059 0.272027 -0.030980
C148  C     C_R   0.027652 0.728067 0.473134 -0.033430
C149  C     C_R   0.580595 0.999993 0.500032 0.905199
C150  C     C_R   0.024970 0.528811 0.728015 -0.032096
C151  C     C_R   0.972543 0.727972 0.526325 -0.031796
C152  C     C_R   0.977580 0.531072 0.271887 -0.028542
C153  C     C_R   0.972693 0.272038 0.473426 -0.032081
C154  C     C_R   0.974862 0.470820 0.728024 -0.032890
C155  C     C_R   0.271935 0.472506 0.973690 -0.031579
C156  C     C_R   0.473072 0.728070 0.973048 -0.030428
C157  C     C_R   0.727969 0.526185 0.971649 -0.033576
C158  C     C_R   0.523933 0.272035 0.969824 -0.033644
C159  C     C_R   0.728070 0.474575 0.028380 -0.030680
C160  C     C_R   0.419405 0.500027 0.999968 0.906404
C161  C     C_R   0.527637 0.727968 0.026947 -0.033430
C162  C     C_R   0.272027 0.528150 0.026310 -0.033509
C163  C     C_R   0.476910 0.271926 0.030285 -0.031948
C164  C     C_R   0.999392 0.499588 0.206556 -0.049395
C165  C     C_R   0.206568 0.499406 0.000996 -0.048675
C166  C     C_R   0.998877 0.500712 0.793431 -0.049156
C167  C     C_R   0.793433 0.499383 0.999082 -0.049912
C168  C     C_R   0.499406 0.793432 0.000984 -0.049905
C169  C     C_R   0.499478 0.999175 0.793442 -0.049253
C170  C     C_R   0.499359 0.206568 0.999205 -0.048503
C171  C     C_R   0.419405 0.999994 0.499970 0.903393
C172  C     C_R   0.500683 0.998928 0.206569 -0.049049
C173  C     C_R   0.793432 0.001107 0.499325 -0.048203
C174  C     C_R   0.000949 0.206568 0.499334 -0.049465
C175  C     C_R   0.206566 0.001083 0.500741 -0.049436
C176  C     C_R   0.001031 0.793433 0.500727 -0.048281
C177  C     C_R   0.499464 0.999252 0.706554 -0.049037
C178  C     C_R   0.706567 0.999350 0.500922 -0.048275
C179  C     C_R   0.499111 0.000739 0.293432 -0.048844
C180  C     C_R   0.293433 0.999416 0.499066 -0.049486
C181  C     C_R   0.999330 0.293434 0.501046 -0.049623
C182  C     C_R   0.499973 0.000033 0.419404 0.904054
C183  C     C_R   0.999470 0.499623 0.293446 -0.049215
C184  C     C_R   0.999394 0.706568 0.498992 -0.048364
C185  C     C_R   0.000701 0.499139 0.706569 -0.048981
C186  C     C_R   0.293434 0.501019 0.999261 -0.048580
C187  C     C_R   0.501061 0.706566 0.999271 -0.049804
C188  C     C_R   0.706566 0.501122 0.000699 -0.049893
C189  C     C_R   0.501208 0.293433 0.000676 -0.048577
C190  C     C_1   0.999592 0.499747 0.161887 -0.097044
C191  C     C_1   0.161886 0.499730 0.000647 -0.093122
C192  C     C_1   0.999276 0.500382 0.838113 -0.093962
H1    H     H_    0.944663 0.559733 0.326305 0.063153
H2    H     H_    0.562694 0.948077 0.673663 0.062107
H3    H     H_    0.560547 0.325829 0.944595 0.061535
H4    H     H_    0.552016 0.063024 0.325699 0.064052
H5    H     H_    0.461398 0.325600 0.071997 0.065389
H6    H     H_    0.435861 0.050036 0.673447 0.062899
H7    H     H_    0.452232 0.674401 0.933665 0.064084
H8    H     H_    0.429988 0.957163 0.325678 0.056512
H9    H     H_    0.674186 0.936552 0.448729 0.063635
H10   H     H_    0.933068 0.325831 0.453160 0.063582
H11   H     H_    0.325608 0.047379 0.432842 0.057109
H12   H     H_    0.325802 0.568177 0.045689 0.060922
H13   H     H_    0.048842 0.674399 0.433999 0.060658
H14   H     H_    0.325802 0.933868 0.547948 0.063423
H15   H     H_    0.048223 0.325588 0.566593 0.057170
H16   H     H_    0.674403 0.043597 0.569564 0.060588
H17   H     H_    0.932723 0.674198 0.546146 0.064238
H18   H     H_    0.426785 0.035666 0.826339 0.067037
H19   H     H_    0.825816 0.063948 0.551447 0.061061
H20   H     H_    0.569763 0.042582 0.174317 0.065002
H21   H     H_    0.174194 0.066692 0.451966 0.057543
H22   H     H_    0.447862 0.936585 0.174303 0.057646
H23   H     H_    0.062861 0.552192 0.674303 0.063929
H24   H     H_    0.825598 0.956761 0.430736 0.065198
H25   H     H_    0.571948 0.962117 0.826541 0.066836
H26   H     H_    0.174389 0.953057 0.566930 0.064830
H27   H     H_    0.067235 0.174174 0.547176 0.057452
H28   H     H_    0.040185 0.429196 0.173727 0.066600
H29   H     H_    0.067738 0.825806 0.453648 0.060702
H30   H     H_    0.042342 0.569911 0.825676 0.065302
H31   H     H_    0.951503 0.825600 0.565674 0.064740
H32   H     H_    0.958142 0.569726 0.173419 0.066101
H33   H     H_    0.951906 0.174408 0.433887 0.064672
H34   H     H_    0.674188 0.564673 0.949272 0.058023
H35   H     H_    0.936649 0.447759 0.825699 0.057579
H36   H     H_    0.174203 0.432289 0.954489 0.064704
H37   H     H_    0.433233 0.825804 0.952948 0.064009
H38   H     H_    0.825600 0.544585 0.930944 0.056569
H39   H     H_    0.539119 0.174402 0.927864 0.058900
H40   H     H_    0.825804 0.435873 0.050583 0.063264
H41   H     H_    0.548172 0.825601 0.066621 0.057176
H42   H     H_    0.174390 0.549505 0.065476 0.059627
H43   H     H_    0.440070 0.174179 0.055362 0.063545
H44   H     H_    0.957278 0.429920 0.674328 0.056395
H45   H     H_    0.325609 0.450855 0.934816 0.064393
H46   H     H_    0.054132 0.439322 0.326555 0.063367
H47   H     H_    0.674402 0.455856 0.068809 0.064902
H48   H     H_    0.567273 0.674189 0.047228 0.057472
O1    O     O_R   0.034470 0.560990 0.499990 -0.607322
O2    O     O_R   0.560990 0.034470 0.500010 -0.606857
O3    O     O_R   0.560990 0.499990 0.034470 -0.612975
O4    O     O_R   0.560990 0.965530 0.499990 -0.612527
O5    O     O_R   0.439010 0.499990 0.965530 -0.612278
O6    O     O_R   0.439010 0.965530 0.500010 -0.612330
O7    O     O_R   0.439010 0.500010 0.034470 -0.606483
O8    O     O_R   0.439010 0.034470 0.499990 -0.607913
O9    O     O_R   0.500010 0.034470 0.439010 -0.611938
O10   O     O_R   0.034470 0.499990 0.439010 -0.609830
O11   O     O_R   0.499990 0.965530 0.439010 -0.607420
O12   O     O_R   0.499990 0.560990 0.965530 -0.613071
O13   O     O_R   0.965530 0.500010 0.439010 -0.610865
O14   O     O_R   0.499990 0.034470 0.560990 -0.609349
O15   O     O_R   0.965530 0.499990 0.560990 -0.607257
O16   O     O_R   0.500010 0.965530 0.560990 -0.610824
O17   O     O_R   0.034470 0.500010 0.560990 -0.612030
O18   O     O_R   0.534470 0.060990 0.999990 -0.606698
O19   O     O_R   0.999990 0.060990 0.465530 -0.612800
O20   O     O_R   0.465530 0.060990 0.000010 -0.611784
O21   O     O_R   0.000010 0.060990 0.534470 -0.607328
O22   O     O_R   0.534470 0.939010 0.000010 -0.607370
O23   O     O_R   0.965530 0.560990 0.500010 -0.612533
O24   O     O_R   0.999990 0.939010 0.534470 -0.612111
O25   O     O_R   0.465530 0.939010 0.999990 -0.612787
O26   O     O_R   0.000010 0.939010 0.465530 -0.606457
O27   O     O_R   0.060990 0.000010 0.465530 -0.607323
O28   O     O_R   0.060990 0.534470 0.000010 -0.607276
O29   O     O_R   0.060990 0.999990 0.534470 -0.612768
O30   O     O_R   0.060990 0.465530 0.999990 -0.612111
O31   O     O_R   0.939010 0.999990 0.465530 -0.612248
O32   O     O_R   0.939010 0.465530 0.000010 -0.612813
O33   O     O_R   0.939010 0.000010 0.534470 -0.606916
O34   O     O_R   0.500010 0.560990 0.034470 -0.607355
O35   O     O_R   0.939010 0.534470 0.999990 -0.607144
O36   O     O_R   0.000010 0.534470 0.939010 -0.612003
O37   O     O_R   0.534470 0.999990 0.939010 -0.610598
O38   O     O_R   0.999990 0.465530 0.939010 -0.607908
O39   O     O_R   0.465530 0.000010 0.939010 -0.611969
O40   O     O_R   0.999990 0.534470 0.060990 -0.610685
O41   O     O_R   0.465530 0.999990 0.060990 -0.608056
O42   O     O_R   0.000010 0.465530 0.060990 -0.611891
O43   O     O_R   0.534470 0.000010 0.060990 -0.612108
O44   O     O_2   0.958018 0.601215 0.282583 -0.510369
O45   O     O_R   0.034470 0.439010 0.500010 -0.607933
O46   O     O_2   0.284692 0.560728 0.091086 -0.507480
O47   O     O_2   0.050876 0.596583 0.715406 -0.505666
O48   O     O_2   0.715293 0.553903 0.904567 -0.509086
O49   O     O_2   0.911587 0.435331 0.715408 -0.508963
O50   O     O_2   0.284405 0.405988 0.944797 -0.506982
O51   O     O_2   0.040420 0.397843 0.283027 -0.505404
O52   O     O_2   0.715607 0.410376 0.062288 -0.510609
O53   O     O_2   0.558897 0.715277 0.092456 -0.509060
O54   O     O_2   0.603334 0.963858 0.717358 -0.509599
O55   O     O_2   0.546322 0.284716 0.900844 -0.507195
O56   O     O_R   0.499990 0.439010 0.034470 -0.612299
O57   O     O_2   0.596429 0.051165 0.284582 -0.505063
O58   O     O_2   0.415549 0.284385 0.068936 -0.506600
O59   O     O_2   0.395356 0.033861 0.717052 -0.504633
O60   O     O_2   0.407159 0.715589 0.942617 -0.510025
O61   O     O_2   0.435496 0.911488 0.284595 -0.509057
O62   O     O_2   0.715316 0.947962 0.404179 -0.504984
O63   O     O_2   0.941332 0.284691 0.407959 -0.504907
O64   O     O_2   0.284437 0.092583 0.441211 -0.508576
O65   O     O_2   0.093849 0.715556 0.443525 -0.506727
O66   O     O_2   0.284666 0.942840 0.593019 -0.504050
O67   O     O_R   0.965530 0.439010 0.499990 -0.612387
O68   O     O_2   0.093292 0.284406 0.557594 -0.508620
O69   O     O_2   0.715568 0.089202 0.563556 -0.506628
O70   O     O_2   0.940652 0.715315 0.591449 -0.505438
O71   O     O_2   0.424442 0.079243 0.782656 -0.510202
O72   O     O_2   0.784715 0.052559 0.596031 -0.504743
O73   O     O_2   0.564250 0.088217 0.215443 -0.505393
O74   O     O_2   0.215305 0.057774 0.406858 -0.508201
O75   O     O_2   0.403411 0.948419 0.215388 -0.508185
O76   O     O_2   0.784389 0.911201 0.436771 -0.506364
O77   O     O_2   0.573937 0.918601 0.782916 -0.507517
O78   O     O_R   0.500010 0.439010 0.965530 -0.607471
O79   O     O_2   0.215606 0.907895 0.558567 -0.509994
O80   O     O_2   0.058942 0.215265 0.592416 -0.508289
O81   O     O_2   0.083873 0.429570 0.217358 -0.510804
O82   O     O_2   0.059838 0.784717 0.408312 -0.505568
O83   O     O_2   0.087997 0.564515 0.784554 -0.506639
O84   O     O_2   0.906534 0.784409 0.556123 -0.506580
O85   O     O_2   0.914577 0.569175 0.217047 -0.506861
O86   O     O_2   0.906893 0.215639 0.442942 -0.510278
O87   O     O_2   0.948580 0.403332 0.784617 -0.508334
O88   O     O_2   0.215342 0.439765 0.909125 -0.506818
O89   O     O_R   0.560990 0.500010 0.965530 -0.607861
O90   O     O_2   0.441645 0.784690 0.907752 -0.508112
O91   O     O_2   0.784425 0.590096 0.937445 -0.508470
O92   O     O_2   0.585001 0.215580 0.930920 -0.507530
O93   O     O_2   0.784679 0.446681 0.095260 -0.507438
O94   O     O_2   0.593275 0.784439 0.057694 -0.508437
O95   O     O_2   0.215565 0.594404 0.055517 -0.506569
O96   O     O_2   0.454340 0.215306 0.099082 -0.505991
Zn1   Zn    Zn3+2 0.046020 0.500000 0.500000 1.029112
Zn2   Zn    Zn3+2 0.000000 1.000000 0.546020 1.029243
Zn3   Zn    Zn3+2 0.000000 0.546020 0.000000 1.029971
Zn4   Zn    Zn3+2 0.000000 0.453980 0.000000 1.024460
Zn5   Zn    Zn3+2 0.500000 0.500000 0.953980 1.027451
Zn6   Zn    Zn3+2 0.953980 0.500000 0.500000 1.024662
Zn7   Zn    Zn3+2 0.500000 0.500000 0.046020 1.028366
Zn8   Zn    Zn3+2 0.500000 0.046020 0.500000 1.029692
Zn9   Zn    Zn3+2 0.500000 0.953980 0.500000 1.024482
Zn10  Zn    Zn3+2 0.546020 0.000000 0.000000 1.030120
Zn11  Zn    Zn3+2 1.000000 0.000000 0.453980 1.029303
Zn12  Zn    Zn3+2 0.453980 0.000000 0.000000 1.024723

loop_
_geom_bond_atom_site_label_1
_geom_bond_atom_site_label_2
_ccdc_geom_bond_type
C100  O93   D    
C67   O60   D    
C121  C144  A    
C157  C188  A    
C83   C128  S    
C150  C185  A    
O3    Zn7   S    
C151  C184  A    
C110  O41   A    
C130  C174  A    
C135  C139  A    
C118  C164  A    
O24   Zn2   S    
C105  O34   A    
C135  C173  A    
C32   C127  S    
O40   Zn3   S    
C23   C188  S    
C116  O67   A    
C59   O51   D    
O17   Zn1   S    
O19   Zn11  S    
C143  C178  A    
C44   C190  T    
C1    O23   A    
C75   H15   S    
C56   O49   D    
C104  H43   S    
C87   O80   D    
C122  C170  A    
C85   C121  S    
C125  C169  A    
C7    C172  S    
C129  C173  A    
C90   O30   A    
O67   Zn6   S    
C34   C149  S    
C134  C146  A    
O78   Zn5   S    
C57   O22   A    
C73   C148  S    
O2    Zn8   S    
C56   C154  S    
C113  C166  A    
C20   C28   T    
C69   C142  S    
C4    C168  S    
C67   C156  S    
O38   Zn4   S    
C114  C157  A    
C52   O44   D    
C45   C68   S    
C63   O55   D    
C122  C158  A    
C2    C26   S    
C72   H11   S    
C103  H42   S    
C5    C39   T    
C35   C51   S    
C133  C145  A    
C62   H2    S    
C119  C167  A    
C109  O40   A    
O56   Zn7   S    
C95   O87   D    
C64   C140  S    
C156  C187  A    
C134  C174  A    
C146  C181  A    
C182  O9    A    
C106  O35   A    
C62   C144  S    
C97   C126  S    
C99   H39   S    
C126  C168  A    
C4    C49   T    
C72   O64   D    
C75   O68   D    
C18   C183  S    
C112  C165  A    
O29   Zn2   S    
C62   O54   D    
O12   Zn5   S    
C84   C129  S    
C95   H35   S    
C84   O76   D    
C98   C114  S    
C85   O77   D    
C119  C159  A    
O36   Zn3   S    
C33   C182  S    
C96   O88   D    
C8    C40   T    
C82   C131  S    
C78   C125  S    
C88   O81   D    
C138  O3    A    
C76   H16   S    
C59   C147  S    
C136  C176  A    
C15   C179  S    
C141  C180  A    
C74   C145  S    
C73   O65   D    
C3    C167  S    
C114  C167  A    
C54   C150  S    
C29   C138  S    
C83   O75   D    
C11   C176  S    
C94   C130  S    
C80   C135  S    
C69   O61   D    
C81   C123  S    
C96   H36   S    
C118  C147  A    
C80   O72   D    
C89   H29   S    
C127  O78   A    
C49   C57   S    
C86   H26   S    
C47   C192  T    
C48   C191  T    
C94   H33   S    
C40   C101  S    
C98   H38   S    
C117  C155  A    
C17   C36   T    
C78   H18   S    
C123  C172  A    
C131  C141  A    
C124  C163  A    
C42   C79   S    
C48   C90   S    
C87   C134  S    
C164  C190  S    
C3    C50   T    
O37   Zn10  S    
C75   C146  S    
C39   C108  S    
C138  O89   A    
C9    C43   T    
C96   C117  S    
C94   O86   D    
O16   Zn9   S    
C152  C183  A    
O7    Zn7   S    
C82   H21   S    
C65   C163  S    
O6    Zn9   S    
C116  O45   A    
C100  C119  S    
C14   C178  S    
C91   H30   S    
O5    Zn5   S    
C133  C175  A    
C66   H6    S    
C30   C105  S    
C88   C118  S    
C108  O37   A    
C58   H45   S    
C68   O24   A    
C83   H22   S    
C6    C170  S    
C76   C139  S    
C10   C175  S    
C73   H13   S    
C22   C30   T    
C35   O20   A    
C111  C164  A    
C24   C28   S    
C105  O12   A    
C19   C184  S    
C14   C34   T    
C104  C124  S    
C99   O92   D    
O34   Zn7   S    
O11   Zn9   S    
O1    Zn1   S    
C12   C31   T    
C25   C189  S    
O21   Zn2   S    
C13   O14   A    
C64   H4    S    
C103  O95   D    
C7    C41   T    
O31   Zn11  S    
C17   C181  S    
C64   O57   D    
C56   H44   S    
C120  C168  A    
C107  O38   A    
C16   C180  S    
C36   C116  S    
C71   H10   S    
C10   C42   T    
C70   O62   D    
C55   H34   S    
C18   C26   T    
C60   C159  S    
C160  O5    A    
C111  C152  A    
C46   O21   A    
C101  O31   A    
C89   O82   D    
C71   O63   D    
C67   H7    S    
C104  O96   D    
C53   C162  S    
O23   Zn6   S    
O32   Zn4   S    
O43   Zn10  S    
C132  C176  A    
O18   Zn10  S    
C117  C165  A    
C149  O2    A    
C69   H8    S    
O15   Zn6   S    
O8    Zn8   S    
C108  O39   A    
C91   O83   D    
C68   O26   A    
C74   O66   D    
C16   C37   T    
C44   C109  S    
C21   C27   T    
C102  O94   D    
C35   O18   A    
C92   C136  S    
C113  C150  A    
C72   C141  S    
C52   H1    S    
C21   C186  S    
C59   H46   S    
C125  C137  A    
O4    Zn9   S    
O22   Zn10  S    
C13   O16   A    
C24   O17   A    
C88   H28   S    
C90   O28   A    
C37   C171  S    
C19   C38   T    
C86   C133  S    
C65   O58   D    
C52   C152  S    
C70   C143  S    
C163  C189  A    
C60   H47   S    
C79   O29   A    
C115  C166  A    
C107  O36   A    
O89   Zn5   S    
O14   Zn8   S    
C1    C38   S    
C93   C111  S    
C99   C122  S    
C81   O73   D    
C60   O52   D    
C153  C181  A    
O26   Zn11  S    
C61   O53   D    
C115  C154  A    
C63   H3    S    
C11   C45   T    
C160  O7    A    
C2    O13   A    
C23   C29   T    
C136  C151  A    
C102  C120  S    
C46   O19   A    
C61   H48   S    
C13   C31   S    
C92   H31   S    
C129  C143  A    
C171  O8    A    
C54   O47   D    
C161  C187  A    
C109  O42   A    
C53   O46   D    
C149  O4    A    
C145  C180  A    
C131  C175  A    
C165  C191  S    
C93   H32   S    
C166  C192  S    
C58   O50   D    
O27   Zn11  S    
C55   C157  S    
C81   H20   S    
C144  C177  A    
C102  H41   S    
C50   C106  S    
C5    C169  S    
O39   Zn12  S    
C103  C112  S    
C127  O56   A    
C92   O84   D    
C121  C169  A    
C106  O32   A    
C98   O91   D    
O30   Zn4   S    
C77   C151  S    
C89   C132  S    
C61   C161  S    
C82   O74   D    
C2    O10   A    
C71   C153  S    
C66   O59   D    
C140  C179  A    
O33   Zn2   S    
C22   C187  S    
C85   H25   S    
C20   C185  S    
C97   H37   S    
C95   C115  S    
C79   O27   A    
C87   H27   S    
C6    C51   T    
C77   H17   S    
C97   O90   D    
C70   H9    S    
C77   O70   D    
C57   O25   A    
C101  O33   A    
O35   Zn3   S    
O25   Zn12  S    
C154  C185  A    
C53   H12   S    
C171  O6    A    
C132  C148  A    
O9    Zn8   S    
C100  H40   S    
C158  C189  A    
C162  C186  A    
C8    C173  S    
C110  O43   A    
C27   C160  S    
C123  C140  A    
C91   C113  S    
O28   Zn3   S    
C159  C188  A    
C24   O15   A    
C182  O11   A    
O45   Zn1   S    
O13   Zn6   S    
C142  C179  A    
C148  C184  A    
O10   Zn1   S    
C137  C177  A    
C9    C174  S    
C1    O1    A    
C120  C161  A    
C80   H19   S    
C65   H5    S    
C128  C172  A    
C47   C107  S    
C41   C110  S    
C74   H14   S    
C147  C183  A    
O41   Zn12  S    
O42   Zn4   S    
C155  C186  A    
C93   O85   D    
C112  C162  A    
C54   H23   S    
C139  C178  A    
C86   O79   D    
C66   C137  S    
C25   C32   T    
C55   O48   D    
C12   C177  S    
C130  C153  A    
C43   C46   S    
C58   C155  S    
C76   O69   D    
C124  C170  A    
C78   O71   D    
C63   C158  S    
C128  C142  A    
C15   C33   T    
C84   H24   S    
O20   Zn12  S    
C126  C156  A    
