data_mof_unit_18201.cif
_audit_creation_date              2012-12-10T17:12:30-0500
_audit_creation_method            fapswitch 2.2
_symmetry_space_group_name_H-M    P1
_symmetry_Int_Tables_number       1
_space_group_crystal_system       triclinic
_cell_length_a                    11.681318
_cell_length_b                    13.012804
_cell_length_c                    11.754568
_cell_angle_alpha                 98.619452
_cell_angle_beta                  92.907408
_cell_angle_gamma                 91.778191
_cell_volume                      1762.9677483

loop_
_atom_site_label
_atom_site_type_symbol
_atom_type_description
_atom_site_fract_x
_atom_site_fract_y
_atom_site_fract_z
_atom_type_partial_charge
C1    C     C_R   0.497160 0.300184 0.479837 0.859073
C2    C     C_R   0.501263 0.700055 0.519855 0.892522
C3    C     C_R   0.375451 0.413163 0.029803 0.160530
C4    C     C_R   0.597598 0.609504 0.972919 0.170340
C5    C     C_R   0.391409 0.421844 0.150874 -0.004345
C6    C     C_R   0.588905 0.596147 0.851631 -0.020185
C7    C     C_R   0.552445 0.537634 0.152262 0.395673
C8    C     C_R   0.453298 0.455025 0.844135 0.403908
C9    C     C_R   0.534776 0.539215 0.031415 -0.105402
C10   C     C_R   0.452862 0.468211 0.967662 -0.130462
C11   C     C_R   0.284198 0.500153 0.500856 0.824644
C12   C     C_R   0.715743 0.498775 0.499046 0.814593
C13   C     C_1   0.162524 0.499942 0.502035 -0.200472
C14   C     C_1   0.837354 0.498085 0.497626 -0.196691
C15   C     C_1   0.059894 0.499232 0.500820 -0.003892
C16   C     C_1   0.939951 0.498350 0.498580 -0.010742
C17   C     C_R   0.513987 0.812399 0.526969 -0.109900
C18   C     C_R   0.485323 0.188048 0.470547 -0.146298
C19   C     C_R   0.380478 0.027342 0.394186 -0.027374
C20   C     C_R   0.622111 0.972958 0.598944 -0.027463
C21   C     C_R   0.391685 0.135933 0.405279 0.131059
C22   C     C_R   0.609924 0.864400 0.589031 0.094137
C23   C     C_R   0.568726 0.133758 0.524320 0.155429
C24   C     C_R   0.431113 0.866309 0.471162 0.162168
C25   C     C_R   0.548441 0.027036 0.530089 -0.025996
C26   C     C_R   0.452605 0.972886 0.464159 -0.070407
Cu1   Cu    Cu3+1 0.508350 0.507730 0.615930 0.957305
Cu2   Cu    Cu3+1 0.491650 0.492270 0.384070 0.929853
H1    H     H_    0.634951 0.647906 0.804754 0.172155
H2    H     H_    0.332467 0.382548 0.199370 0.171178
N1    N     N_R   0.520920 0.519350 0.790130 -0.217087
N2    N     N_R   0.479080 0.480650 0.209870 -0.230872
O1    O     O_R   0.505930 0.354460 0.582000 -0.576526
O2    O     O_R   0.494070 0.645540 0.418000 -0.617716
O3    O     O_R   0.491820 0.341410 0.386200 -0.554771
O4    O     O_R   0.508180 0.658590 0.613800 -0.566322
O5    O     O_R   0.344250 0.506540 0.597900 -0.566284
O6    O     O_R   0.655750 0.493460 0.402100 -0.587050
O7    O     O_R   0.330140 0.493480 0.402100 -0.591051
O8    O     O_R   0.669860 0.506520 0.597900 -0.571076
N3    N     N_2   0.318458 0.819164 0.446217 -0.453627
H3    H     H_    0.251170 0.865286 0.471102 0.267610
C27   C     C_3   0.295990 0.746005 0.340981 -0.577159
H4    H     H_    0.222861 0.770960 0.289084 0.222428
H5    H     H_    0.270506 0.669274 0.363077 0.233083
H6    H     H_    0.371858 0.738649 0.287381 0.251261
N4    N     N_2   0.677396 0.183976 0.562288 -0.421031
H7    H     H_    0.675261 0.256444 0.611050 0.270217
C28   C     C_3   0.759792 0.179198 0.474098 -0.647594
H8    H     H_    0.843802 0.213143 0.512848 0.231443
H9    H     H_    0.730477 0.224148 0.405503 0.210980
H10   H     H_    0.771641 0.097077 0.435781 0.250222
N5    N     N_2   0.691598 0.806306 0.644680 -0.425261
H11   H     H_    0.721474 0.839692 0.726222 0.257614
C29   C     C_3   0.781892 0.766282 0.572700 -0.614258
H12   H     H_    0.836828 0.716708 0.619869 0.218235
H13   H     H_    0.835909 0.831062 0.549899 0.259020
H14   H     H_    0.745046 0.718557 0.492188 0.201415
N6    N     N_2   0.311547 0.193926 0.347438 -0.416360
H15   H     H_    0.286996 0.162600 0.263637 0.263565
C30   C     C_3   0.216402 0.229644 0.414900 -0.638893
H16   H     H_    0.163583 0.280463 0.367278 0.217223
H17   H     H_    0.248134 0.275113 0.498790 0.214211
H18   H     H_    0.161744 0.162543 0.431025 0.251511
C31   C     C_2   0.303817 0.973003 0.298594 0.842729
O9    O     O_2   0.199793 0.979597 0.301843 -0.620933
O10   O     O_R   0.351794 0.918232 0.202199 -0.770667
H19   H     H_    0.291559 0.886462 0.140806 0.325258
C32   C     C_2   0.706404 0.028337 0.687765 0.890675
O11   O     O_2   0.672832 0.089147 0.767645 -0.613549
O12   O     O_R   0.823452 0.011271 0.679906 -0.770170
H20   H     H_    0.871863 0.053786 0.745421 0.331265
N7    N     N_2   0.390778 0.371140 0.774297 -0.384584
H21   H     H_    0.302945 0.376195 0.769408 0.245079
C33   C     C_3   0.433062 0.268310 0.780334 -0.559013
H22   H     H_    0.526368 0.267088 0.766481 0.246174
H23   H     H_    0.387529 0.211030 0.712229 0.208977
H24   H     H_    0.419159 0.244075 0.865067 0.238080
N8    N     N_2   0.651835 0.590295 0.211116 -0.415096
H25   H     H_    0.644175 0.629542 0.292471 0.282826
C34   C     C_3   0.758875 0.538890 0.190771 -0.606272
H26   H     H_    0.830330 0.585695 0.241589 0.215443
H27   H     H_    0.777373 0.530934 0.098244 0.233500
H28   H     H_    0.754985 0.460128 0.216250 0.231122
N9    N     N_2   0.274601 0.360439 0.972951 -0.442522
H29   H     H_    0.214317 0.409436 0.946594 0.250105
C35   C     C_3   0.227025 0.270839 0.016534 -0.703753
H30   H     H_    0.168572 0.225308 0.948647 0.240859
H31   H     H_    0.176763 0.296024 0.092832 0.220389
H32   H     H_    0.296297 0.219692 0.039440 0.237839
N10   N     N_2   0.659983 0.697831 0.037024 -0.402260
H33   H     H_    0.612917 0.743187 0.095803 0.276688
C36   C     C_3   0.744146 0.755099 0.982482 -0.678208
H34   H     H_    0.796301 0.808116 0.049651 0.242133
H35   H     H_    0.700608 0.802833 0.923831 0.218288
H36   H     H_    0.802889 0.700980 0.934553 0.227559

loop_
_geom_bond_atom_site_label_1
_geom_bond_atom_site_label_2
_ccdc_geom_bond_type
C35   H30   S    
C36   H34   S    
C3    N9    S    
C18   C21   A    
N7    C33   S    
N7    H21   S    
C29   H12   S    
C34   H26   S    
C1    O1    A    
N4    C28   S    
N5    H11   S    
Cu1   O1    S    
C1    C18   S    
C19   C21   A    
C24   C26   A    
C21   N6    S    
C20   C25   A    
C15   C16   S    
C32   O12   S    
N3    H3    S    
C11   O5    A    
C19   C26   A    
Cu2   O3    S    
C31   O10   S    
C9    C10   A    
C4    N10   S    
C2    O2    A    
N9    C35   S    
C6    N1    A    
Cu2   O2    S    
N6    H15   S    
C36   H35   S    
C2    C17   S    
C24   N3    S    
N3    C27   S    
C32   O11   D    
C33   H24   S    
C34   H27   S    
C22   N5    S    
N5    C29   S    
N6    C30   S    
C17   C24   A    
C23   N4    S    
Cu1   N1    S    
O10   H19   S    
Cu2   N2    S    
C4    C6    A    
N10   H33   S    
N8    C34   S    
Cu2   O7    S    
C28   H9    S    
C25   C26   A    
N9    H29   S    
C18   C23   A    
C12   O8    A    
C30   H18   S    
C33   H22   S    
N10   C36   S    
C27   H5    S    
N4    H7    S    
Cu2   O6    S    
Cu1   O8    S    
C28   H10   S    
C30   H17   S    
C11   O7    A    
C33   H23   S    
C12   C14   S    
C31   O9    D    
C36   H36   S    
C29   H13   S    
C27   H4    S    
C14   C16   T    
C20   C32   S    
C29   H14   S    
C34   H28   S    
C1    O3    A    
C7    N8    S    
C5    H2    S    
C2    O4    A    
C7    C9    A    
C7    N2    A    
C8    N1    A    
C20   C22   A    
C3    C5    A    
Cu1   O4    S    
C17   C22   A    
C5    N2    A    
C13   C15   T    
O12   H20   S    
C3    C10   A    
C11   C13   S    
Cu1   O5    S    
C8    N7    S    
C19   C31   S    
C23   C25   A    
C12   O6    A    
C30   H16   S    
C27   H6    S    
N8    H25   S    
C6    H1    S    
C8    C10   A    
C28   H8    S    
C35   H32   S    
Cu1   Cu2   S    
C35   H31   S    
C4    C9    A    
