data_mof_unit_29313.cif
_audit_creation_date              2012-12-11T17:44:00-0500
_audit_creation_method            fapswitch 2.2
_symmetry_space_group_name_H-M    P1
_symmetry_Int_Tables_number       1
_space_group_crystal_system       monoclinic
_cell_length_a                    20.421637
_cell_length_b                    22.726075
_cell_length_c                    6.976687
_cell_angle_alpha                 90.0
_cell_angle_beta                  87.109876
_cell_angle_gamma                 90.0
_cell_volume                      3233.78751771

loop_
_atom_site_label
_atom_site_type_symbol
_atom_type_description
_atom_site_fract_x
_atom_site_fract_y
_atom_site_fract_z
_atom_type_partial_charge
O1    O     O_R   0.751270 0.447300 0.600030 -0.541387
O2    O     O_R   0.248730 0.947300 0.399970 -0.541387
O3    O     O_R   0.613530 0.440160 0.952150 -0.536407
O4    O     O_R   0.386470 0.940160 0.047850 -0.536408
O5    O     O_R   0.613050 0.552700 0.122560 -0.535008
O6    O     O_R   0.386950 0.052700 0.877440 -0.535009
C1    C     C_R   0.592397 0.425375 0.787045 0.705998
C2    C     C_R   0.407603 0.925375 0.212954 0.705998
O7    O     O_R   0.750780 0.440350 0.929820 -0.543744
O8    O     O_R   0.249220 0.940350 0.070180 -0.543743
O9    O     O_R   0.751280 0.552900 0.100070 -0.549425
O10   O     O_R   0.248720 0.052900 0.899930 -0.549425
C3    C     C_R   0.773464 0.425863 0.758096 0.687245
C4    C     C_R   0.226536 0.925863 0.241904 0.687245
O11   O     O_R   0.613040 0.447100 0.622520 -0.534525
O12   O     O_R   0.386960 0.947100 0.377480 -0.534525
O13   O     O_3   0.682160 0.536920 0.777780 -0.376478
O14   O     O_3   0.317840 0.036920 0.222220 -0.376478
V1    V     V_3+5 0.682160 0.493150 0.052630 1.397045
V2    V     V_3+5 0.317840 0.993150 0.947370 1.397045
O15   O     O_R   0.750790 0.559840 0.429870 -0.541482
O16   O     O_R   0.249210 0.059840 0.570130 -0.541482
C5    C     C_R   0.775260 0.572956 0.259250 0.671628
C6    C     C_R   0.224739 0.072956 0.740750 0.671628
O17   O     O_R   0.613540 0.559650 0.452200 -0.533261
O18   O     O_R   0.386460 0.059650 0.547800 -0.533261
C7    C     C_R   0.595262 0.577362 0.285787 0.689257
C8    C     C_R   0.404738 0.077362 0.714213 0.689258
V3    V     V_3+5 0.682160 0.506850 0.552630 1.403534
V4    V     V_3+5 0.317840 0.006850 0.447370 1.403534
O19   O     O_3   0.682150 0.463080 0.277610 -0.365168
O20   O     O_3   0.317850 0.963080 0.722390 -0.365168
C9    C     C_R   0.572119 0.861785 0.088816 -0.173495
C10   C     C_R   0.427881 0.361785 0.911184 -0.173495
H1    H     H_    0.525525 0.944621 0.049371 0.110848
H2    H     H_    0.474475 0.444621 0.950630 0.110848
H3    H     H_    0.614299 0.877194 0.003894 0.109622
H4    H     H_    0.385701 0.377194 0.996107 0.109622
C11   C     C_R   0.462392 0.883925 0.206876 -0.042295
C12   C     C_R   0.537608 0.383925 0.793124 -0.042295
C13   C     C_R   0.479035 0.600199 0.341852 -0.154533
C14   C     C_R   0.520965 0.100199 0.658147 -0.154532
C15   C     C_R   0.426054 0.638218 0.361525 -0.125212
C16   C     C_R   0.573946 0.138218 0.638472 -0.125213
C17   C     C_R   0.434374 0.698243 0.330585 -0.146622
C18   C     C_R   0.565626 0.198243 0.669413 -0.146622
C19   C     C_R   0.496727 0.722278 0.278368 0.077426
C20   C     C_R   0.503273 0.222278 0.721632 0.077426
C21   C     C_R   0.551291 0.682998 0.255606 0.035389
C22   C     C_R   0.448709 0.182998 0.744394 0.035389
C23   C     C_R   0.505586 0.783705 0.240456 0.053679
C24   C     C_R   0.494414 0.283705 0.759544 0.053679
C25   C     C_R   0.567560 0.804193 0.165124 0.102894
C26   C     C_R   0.432439 0.304194 0.834876 0.102894
C27   C     C_R   0.623006 0.766763 0.163096 0.072764
C28   C     C_R   0.376994 0.266763 0.836905 0.072764
C29   C     C_R   0.613717 0.706297 0.203533 -0.232272
C30   C     C_R   0.386283 0.206297 0.796468 -0.232271
C31   C     C_R   0.454323 0.825707 0.269874 -0.210876
C32   C     C_R   0.545677 0.325707 0.730125 -0.210876
C33   C     C_R   0.520391 0.900847 0.110145 -0.161357
C34   C     C_R   0.479608 0.400847 0.889855 -0.161357
C35   C     C_R   0.541680 0.621290 0.289053 -0.075323
C36   C     C_R   0.458320 0.121290 0.710947 -0.075323
H5    H     H_    0.407361 0.814549 0.337527 0.097682
H6    H     H_    0.592639 0.314549 0.662472 0.097682
H7    H     H_    0.471164 0.553709 0.369199 0.106009
H8    H     H_    0.528836 0.053709 0.630799 0.106009
H9    H     H_    0.390467 0.724432 0.344579 0.107771
H10   H     H_    0.609532 0.224432 0.655418 0.107771
H11   H     H_    0.377839 0.620962 0.401200 0.120106
H12   H     H_    0.622161 0.120962 0.598797 0.120106
H13   H     H_    0.655427 0.677007 0.192881 0.108431
H14   H     H_    0.344573 0.177007 0.807121 0.108431
C37   C     C_R   0.172659 0.881272 0.257239 -0.045579
C38   C     C_R   0.827341 0.381272 0.742761 -0.045579
C39   C     C_R   0.149645 0.853788 0.092072 -0.216636
C40   C     C_R   0.850355 0.353788 0.907927 -0.216636
C41   C     C_R   0.098883 0.812034 0.106430 -0.147966
C42   C     C_R   0.901116 0.312033 0.893569 -0.147966
C43   C     C_R   0.069698 0.796794 0.287274 0.424936
C44   C     C_R   0.930302 0.296794 0.712725 0.424936
C45   C     C_R   0.092652 0.824210 0.451101 -0.185573
C46   C     C_R   0.907348 0.324210 0.548898 -0.185573
C47   C     C_R   0.143439 0.865690 0.436967 -0.201190
C48   C     C_R   0.856561 0.365690 0.563032 -0.201190
C49   C     C_R   0.911365 0.684211 0.377533 -0.182441
C50   C     C_R   0.088634 0.184210 0.622466 -0.182443
C51   C     C_R   0.856730 0.646597 0.404713 0.041364
C52   C     C_R   0.143269 0.146596 0.595286 0.041363
C53   C     C_R   0.946052 0.689267 0.198982 0.407590
C54   C     C_R   0.053947 0.189266 0.801017 0.407591
N1    N     N_2   0.016618 0.755908 0.313048 -0.314400
N2    N     N_2   0.983382 0.255908 0.686951 -0.314400
N3    N     N_2   0.000362 0.728905 0.166340 -0.303777
N4    N     N_2   0.999637 0.228904 0.833660 -0.303778
C55   C     C_R   0.834267 0.613258 0.246528 -0.072692
C56   C     C_R   0.165733 0.113258 0.753471 -0.072692
H15   H     H_    0.926447 0.710286 0.497533 0.135581
H16   H     H_    0.073552 0.210285 0.502466 0.135581
H17   H     H_    0.070800 0.813401 0.591386 0.120357
H18   H     H_    0.929200 0.313401 0.408614 0.120357
H19   H     H_    0.159507 0.885776 0.567277 0.133381
H20   H     H_    0.840493 0.385776 0.432722 0.133381
C57   C     C_R   0.871875 0.616403 0.072105 -0.231963
C58   C     C_R   0.128124 0.116403 0.927894 -0.231963
C59   C     C_R   0.926273 0.654013 0.048224 -0.199854
C60   C     C_R   0.073726 0.154012 0.951775 -0.199853
H21   H     H_    0.859758 0.588565 0.953682 0.138007
H22   H     H_    0.140242 0.088565 0.046317 0.138007
H23   H     H_    0.082401 0.792236 0.976226 0.134010
H24   H     H_    0.917599 0.292236 0.023773 0.134010
H25   H     H_    0.953418 0.655512 0.910923 0.124471
H26   H     H_    0.046582 0.155512 0.089076 0.124471
H27   H     H_    0.170806 0.864545 0.950990 0.134492
H28   H     H_    0.829194 0.364545 0.049010 0.134492
C61   C     C_3   0.692018 0.791641 0.121199 -0.372249
C62   C     C_3   0.741801 0.771390 0.263121 -0.337034
C63   C     C_3   0.808263 0.801095 0.223941 -0.738713
H29   H     H_    0.830082 0.787105 0.082101 0.234102
H30   H     H_    0.803093 0.849744 0.226345 0.224455
H31   H     H_    0.841922 0.788460 0.336778 0.224875
H32   H     H_    0.722590 0.783456 0.409600 0.199152
H33   H     H_    0.749183 0.723260 0.253220 0.193145
H34   H     H_    0.709061 0.782050 0.971672 0.181292
H35   H     H_    0.692588 0.840047 0.135396 0.178312
C64   C     C_3   0.307982 0.291641 0.878802 -0.372247
C65   C     C_3   0.258199 0.271390 0.736880 -0.337035
C66   C     C_3   0.191737 0.301096 0.776057 -0.738702
H36   H     H_    0.169920 0.287109 0.917904 0.234100
H37   H     H_    0.196908 0.349745 0.773642 0.224452
H38   H     H_    0.158077 0.288458 0.663225 0.224874
H39   H     H_    0.277410 0.283455 0.590400 0.199152
H40   H     H_    0.250816 0.223260 0.746782 0.193144
H41   H     H_    0.290939 0.282050 0.028328 0.181290
H42   H     H_    0.307412 0.340047 0.864605 0.178311
C67   C     C_3   0.826340 0.643327 0.606506 -0.334665
C68   C     C_3   0.763310 0.679245 0.627784 -0.309620
C69   C     C_3   0.731920 0.674001 0.828210 -0.764645
H43   H     H_    0.724150 0.627858 0.867732 0.269688
H44   H     H_    0.764449 0.693859 0.932798 0.228041
H45   H     H_    0.683395 0.695956 0.832922 0.215432
H46   H     H_    0.776056 0.726132 0.604500 0.190371
H47   H     H_    0.727373 0.665045 0.523054 0.197536
H48   H     H_    0.819472 0.597052 0.652763 0.188620
H49   H     H_    0.860571 0.662185 0.708345 0.161328
C70   C     C_3   0.173660 0.143326 0.393493 -0.334664
C71   C     C_3   0.236689 0.179246 0.372217 -0.309621
C72   C     C_3   0.268080 0.174002 0.171792 -0.764644
H50   H     H_    0.275851 0.127859 0.132270 0.269687
H51   H     H_    0.235551 0.193860 0.067203 0.228041
H52   H     H_    0.316605 0.195958 0.167081 0.215431
H53   H     H_    0.223943 0.226132 0.395501 0.190370
H54   H     H_    0.272626 0.165045 0.476947 0.197536
H55   H     H_    0.180529 0.097052 0.347237 0.188620
H56   H     H_    0.139429 0.162185 0.291654 0.161328

loop_
_geom_bond_atom_site_label_1
_geom_bond_atom_site_label_2
_ccdc_geom_bond_type
C21   C35   A    
C49   C53   A    
C61   C62   S    
C46   H18   S    
C70   C71   S    
C10   C34   A    
O4    C2    A    
V1    O19   S    
C65   C66   S    
C12   C34   A    
C19   C21   A    
C57   C59   A    
O9    V1    S    
C71   H54   S    
C6    C56   S    
C22   C36   A    
C67   H48   S    
C38   C40   A    
C20   C22   A    
O3    C1    A    
C68   H46   S    
C72   H51   S    
C58   H22   S    
C69   H45   S    
C40   C42   A    
C29   H13   S    
C54   N4    S    
O13   V3    S    
O17   V3    S    
O7    V1    S    
C28   C64   S    
C60   H26   S    
C37   C39   A    
O7    C3    A    
C62   C63   S    
C59   H25   S    
C24   C32   A    
O5    C7    A    
C54   C60   A    
O6    C8    A    
C50   C54   A    
O8    V2    S    
C1    C12   S    
O3    V1    S    
O14   V4    S    
C2    C11   S    
C70   H55   S    
C61   H35   S    
C47   H19   S    
C66   H38   S    
C55   C57   A    
C25   C27   A    
C32   H6    S    
C2    O12   A    
C14   H8    S    
C13   C15   A    
C42   H24   S    
C14   C16   A    
H2    C34   S    
C43   C45   A    
C24   C26   A    
O11   V3    S    
C49   H15   S    
C63   H30   S    
C9    C25   A    
C11   C33   A    
C18   C20   A    
C17   H9    S    
C22   C30   A    
C53   C59   A    
C67   H49   S    
C64   H42   S    
C13   H7    S    
O8    C4    A    
C72   H52   S    
C41   C43   A    
C19   C23   A    
C1    O11   A    
C16   C18   A    
C27   C61   S    
O15   V3    S    
C9    H3    S    
C51   C55   A    
C23   C25   A    
O1    C3    A    
C65   H39   S    
C52   C70   S    
C65   H40   S    
C43   N1    S    
C3    C38   S    
C63   H29   S    
C11   C31   A    
O10   V2    S    
O1    V3    S    
C39   C41   A    
H1    C33   S    
C62   H33   S    
C71   C72   S    
N2    N4    D    
C70   H56   S    
C15   C17   A    
C50   H16   S    
C7    C35   S    
C8    C36   S    
C42   C44   A    
C45   C47   A    
C50   C52   A    
C10   C26   A    
C51   C67   S    
C27   C29   A    
O16   C6    A    
C23   C31   A    
C71   H53   S    
C13   C35   A    
C64   C65   S    
C14   C36   A    
C30   H14   S    
C37   C47   A    
C66   H36   S    
V2    O20   S    
C63   H31   S    
C57   H21   S    
C15   H11   S    
O16   V4    S    
C5    C55   S    
C10   H4    S    
O18   C8    A    
C40   H28   S    
C46   C48   A    
C48   H20   S    
C21   C29   A    
C69   H43   S    
C26   C28   A    
O18   V4    S    
O5    V1    S    
O17   C7    A    
O6    V2    S    
C67   C68   S    
O10   C6    A    
C44   C46   A    
C56   C58   A    
C41   H23   S    
O2    V4    S    
C4    C37   S    
O15   C5    A    
V3    O19   S    
C68   H47   S    
C72   H50   S    
C31   H5    S    
V4    O20   S    
C69   H44   S    
C64   H41   S    
C58   C60   A    
C9    C33   A    
O9    C5    A    
O13   V1    S    
C28   C30   A    
C16   H12   S    
O14   V2    S    
C62   H32   S    
O2    C4    A    
C18   H10   S    
C68   C69   S    
C53   N3    S    
O4    V2    S    
C20   C24   A    
C17   C19   A    
N1    N3    D    
C38   C48   A    
C12   C32   A    
C49   C51   A    
C45   H17   S    
C44   N2    S    
C39   H27   S    
C61   H34   S    
O12   V4    S    
C52   C56   A    
C66   H37   S    
