data_mof_unit_17267.cif
_audit_creation_date              2012-12-11T14:21:04-0500
_audit_creation_method            fapswitch 2.2
_symmetry_space_group_name_H-M    P1
_symmetry_Int_Tables_number       1
_space_group_crystal_system       triclinic
_cell_length_a                    11.467145
_cell_length_b                    11.6411
_cell_length_c                    19.610475
_cell_angle_alpha                 90.581778
_cell_angle_beta                  89.871072
_cell_angle_gamma                 60.101737
_cell_volume                      2269.20925006

loop_
_atom_site_label
_atom_site_type_symbol
_atom_type_description
_atom_site_fract_x
_atom_site_fract_y
_atom_site_fract_z
_atom_type_partial_charge
C1    C     C_R   0.640347 0.116508 0.599480 0.551479
C2    C     C_1   0.641021 0.704748 0.668162 0.004039
C3    C     C_1   0.126255 0.199742 0.859173 -0.004865
C4    C     C_1   0.171857 0.170403 0.727789 -0.028711
C5    C     C_1   0.150119 0.182958 0.798923 -0.029701
C6    C     C_1   0.195825 0.160623 0.667524 0.003135
C7    C     C_1   0.678498 0.191647 0.860699 -0.001693
C8    C     C_1   0.658470 0.166366 0.729172 -0.028746
C9    C     C_1   0.665582 0.180731 0.800390 -0.029213
C10   C     C_1   0.652913 0.148572 0.668875 0.004918
C11   C     C_R   0.681025 0.587248 0.204388 -0.010215
C12   C     C_R   0.612425 0.746397 0.598819 0.559163
C13   C     C_R   0.545820 0.648181 0.230645 0.045316
C14   C     C_R   0.513412 0.733158 0.286414 0.031071
C15   C     C_R   0.753685 0.646481 0.306625 -0.131693
C16   C     C_R   0.784100 0.581647 0.244151 -0.164379
C17   C     C_R   0.439072 0.635346 0.200214 -0.046543
C18   C     C_R   0.305493 0.728972 0.210633 -0.080695
C19   C     C_R   0.273345 0.818874 0.262866 -0.074029
C20   C     C_R   0.375548 0.818142 0.301379 -0.072352
C21   C     C_R   0.619242 0.727203 0.326716 0.009008
C22   C     C_R   0.158646 0.190849 0.187469 0.000762
C23   C     C_R   0.241648 0.144873 0.598298 0.554836
C24   C     C_R   0.244166 0.238226 0.210134 -0.003184
C25   C     C_R   0.278189 0.225540 0.279840 -0.043740
C26   C     C_R   0.152850 0.112442 0.300773 -0.161097
C27   C     C_R   0.112142 0.130834 0.233495 -0.164001
C28   C     C_R   0.282963 0.314076 0.168359 0.265775
C29   C     C_R   0.296821 0.415156 0.199560 -0.064340
C30   C     C_R   0.311217 0.414040 0.269971 0.089465
C31   C     C_R   0.326108 0.307140 0.305667 -0.090530
C32   C     C_R   0.245481 0.147850 0.323172 0.002991
C33   C     C_R   0.668306 0.185848 0.192897 -0.011868
C34   C     C_R   0.646947 0.107865 0.401371 0.527712
C35   C     C_R   0.720895 0.053658 0.213694 0.019524
C36   C     C_R   0.745534 0.024891 0.283557 0.023207
C37   C     C_R   0.622821 0.261328 0.310537 -0.149999
C38   C     C_R   0.624624 0.287233 0.241970 -0.140689
C39   C     C_R   0.763681 0.948493 0.165642 -0.089966
C40   C     C_R   0.853242 0.819026 0.184261 -0.109739
C41   C     C_R   0.898866 0.792872 0.250823 -0.135981
C42   C     C_R   0.842890 0.892747 0.300600 -0.095365
C43   C     C_R   0.677687 0.131444 0.332058 -0.010990
C44   C     C_R   0.080792 0.232013 0.928413 0.536255
C45   C     C_R   0.588760 0.788233 0.394009 0.517904
C46   C     C_R   0.684056 0.604069 0.929312 0.553279
C47   C     C_R   0.708476 0.207234 0.929953 0.530894
C48   C     C_R   0.085786 0.235034 0.123765 0.553858
C49   C     C_R   0.708311 0.547663 0.132906 0.547791
C50   C     C_R   0.705952 0.211101 0.126024 0.516708
C51   C     C_R   0.293644 0.120143 0.393788 0.511044
C52   C     C_1   0.670887 0.645774 0.859978 -0.000246
C53   C     C_1   0.654676 0.684201 0.728476 -0.028924
C54   C     C_1   0.663754 0.666363 0.799661 -0.030408
Cr1   Cr    Cr6+3 0.404720 0.198220 0.499960 1.046786
Cr2   Cr    Cr6+3 0.698290 0.897110 0.500380 1.033986
Cr3   Cr    Cr6+3 0.396970 0.904720 0.499610 1.048033
Cr4   Cr    Cr6+3 0.926180 0.151990 0.028120 1.020014
Cr5   Cr    Cr6+3 0.921330 0.451820 0.027470 1.044554
Cr6   Cr    Cr6+3 0.626260 0.446870 0.028710 1.012471
H1    H     H_    0.835367 0.636191 0.338400 0.149758
H2    H     H_    0.298588 0.490659 0.169014 0.121585
H3    H     H_    0.359262 0.305492 0.355996 0.218968
H4    H     H_    0.581170 0.342442 0.347197 0.180570
H5    H     H_    0.734757 0.967102 0.112612 0.117300
H6    H     H_    0.597192 0.385964 0.227777 0.137740
H7    H     H_    0.892031 0.740048 0.146397 0.138093
H8    H     H_    0.975969 0.693839 0.264374 0.142764
H9    H     H_    0.886607 0.864311 0.350357 0.170172
H10   H     H_    0.455859 0.554638 0.166563 0.143179
H11   H     H_    0.887563 0.529258 0.226259 0.134627
H12   H     H_    0.226705 0.722851 0.183387 0.118235
H13   H     H_    0.168791 0.880534 0.276894 0.125161
H14   H     H_    0.344537 0.884004 0.342933 0.157726
H15   H     H_    0.111048 0.070887 0.335841 0.133941
H16   H     H_    0.037890 0.103928 0.218432 0.146168
O1    O     O_R   0.267740 0.231960 0.575440 -0.492516
O2    O     O_R   0.685970 0.784660 0.430010 -0.501188
O3    O     O_R   0.502530 0.767000 0.423990 -0.496517
O4    O     O_R   0.288330 0.026350 0.429250 -0.525779
O5    O     O_3   0.499990 0.000020 0.499980 -0.291829
O6    O     O_R   0.821500 0.119340 0.952830 -0.502949
O7    O     O_R   0.037130 0.162530 0.957360 -0.490453
O8    O     O_R   0.056440 0.344740 0.951340 -0.495090
O9    O     O_R   0.797900 0.560360 0.957470 -0.490475
O10   O     O_R   0.596130 0.579390 0.952730 -0.499279
O11   O     O_R   0.639060 0.321160 0.958670 -0.498841
O12   O     O_R   0.527280 0.186640 0.570530 -0.486272
O13   O     O_R   0.821240 0.124200 0.104370 -0.514679
O14   O     O_R   0.036890 0.167040 0.097840 -0.513998
O15   O     O_R   0.056180 0.349610 0.102880 -0.473103
O16   O     O_R   0.797660 0.564870 0.097950 -0.503043
O17   O     O_R   0.595880 0.584250 0.104270 -0.534682
O18   O     O_R   0.638830 0.325670 0.099150 -0.529250
O19   O     O_3   0.824590 0.350230 0.028100 -0.276754
O20   O     O_R   0.728090 0.003450 0.576380 -0.500602
O21   O     O_R   0.682970 0.789190 0.570490 -0.487399
O22   O     O_R   0.499290 0.771880 0.575530 -0.493336
O23   O     O_R   0.285330 0.030870 0.569730 -0.487780
O24   O     O_R   0.270980 0.227080 0.423890 -0.506474
O25   O     O_R   0.530280 0.182120 0.430050 -0.521698
O26   O     O_R   0.731330 0.998570 0.424830 -0.534612
Br1   Br    Br    0.303896 0.553272 0.325020 -0.608294
O27   O     O_3   0.296497 0.300371 0.098065 -0.538066
C55   C     C_3   0.398550 0.170266 0.080969 -0.001506
H17   H     H_    0.364760 0.097441 0.090722 0.130652
H18   H     H_    0.491830 0.141651 0.110263 0.115812
C56   C     C_3   0.432600 0.163425 0.005577 -0.349796
H19   H     H_    0.462576 0.238188 0.993885 0.175729
H20   H     H_    0.517034 0.063270 0.992148 0.093035
H21   H     H_    0.343866 0.183587 0.974453 0.162970

loop_
_geom_bond_atom_site_label_1
_geom_bond_atom_site_label_2
_ccdc_geom_bond_type
C25   C31   A    
C23   O23   A    
C26   C32   A    
C41   C42   A    
Cr3   O3    S    
C22   C48   S    
C35   C36   A    
C44   O7    A    
C2    C12   S    
Cr2   O5    S    
C53   C54   S    
C55   H18   S    
C26   C27   A    
C29   C30   A    
C14   C21   A    
C28   C29   A    
Cr4   O6    S    
C30   C31   A    
Cr1   O1    S    
Cr3   O22   S    
C15   C16   A    
Cr3   O23   S    
C46   C52   S    
Cr2   O2    S    
C56   H19   S    
C7    C9    T    
C18   C19   A    
C47   O6    A    
Cr1   O12   S    
C51   O4    A    
C36   C42   A    
C38   H6    S    
C8    C9    S    
C48   O15   A    
Cr1   O24   S    
C45   O2    A    
Cr1   O5    S    
C12   O22   A    
C46   O9    A    
Cr6   O17   S    
C25   C32   A    
C17   H10   S    
C48   O14   A    
C13   C14   A    
C39   H5    S    
Cr3   O4    S    
C16   H11   S    
Cr5   O19   S    
Cr2   O21   S    
O27   C55   S    
Cr6   O11   S    
C52   C54   T    
C26   H15   S    
C41   H8    S    
C21   C45   S    
C18   H12   S    
C55   C56   S    
C3    C44   S    
C34   O25   A    
C34   C43   S    
C14   C20   A    
C19   H13   S    
C24   C25   A    
C4    C6    T    
C39   C40   A    
Cr6   O10   S    
C50   O18   A    
Cr5   O15   S    
C44   O8    A    
C33   C50   S    
C40   H7    S    
C42   H9    S    
C23   O1    A    
C47   O11   A    
C30   Br1   S    
C35   C39   A    
Cr4   O19   S    
Cr5   O9    S    
C32   C51   S    
C37   C38   A    
C11   C49   S    
C31   H3    S    
C11   C16   A    
C28   O27   S    
C50   O13   A    
C17   C18   A    
C15   H1    S    
C20   H14   S    
C45   O3    A    
C34   O26   A    
Cr5   O8    S    
Cr4   O14   S    
C12   O21   A    
C40   C41   A    
C22   C27   A    
C22   C24   A    
C37   C43   A    
C49   O16   A    
C27   H16   S    
C37   H4    S    
C51   O24   A    
Cr2   O20   S    
C29   H2    S    
C1    C10   S    
C24   C28   A    
C4    C5    S    
C3    C5    T    
C2    C53   T    
C55   H17   S    
Cr1   O25   S    
C33   C38   A    
C56   H21   S    
C13   C17   A    
C19   C20   A    
Cr2   O26   S    
Cr4   O7    S    
C11   C13   A    
C1    O12   A    
C1    O20   A    
C6    C23   S    
C33   C35   A    
C56   H20   S    
Cr3   O5    S    
Cr5   O16   S    
Cr4   O13   S    
Cr6   O19   S    
C15   C21   A    
C8    C10   T    
C36   C43   A    
C49   O17   A    
C7    C47   S    
C46   O10   A    
Cr6   O18   S    
