data_mof_unit_52158.cif
_audit_creation_date              2012-12-10T16:52:07-0500
_audit_creation_method            fapswitch 2.2
_symmetry_space_group_name_H-M    P1
_symmetry_Int_Tables_number       1
_space_group_crystal_system       triclinic
_cell_length_a                    7.777535
_cell_length_b                    8.555585
_cell_length_c                    15.015986
_cell_angle_alpha                 92.601066
_cell_angle_beta                  86.437026
_cell_angle_gamma                 94.041107
_cell_volume                      993.929427471

loop_
_atom_site_label
_atom_site_type_symbol
_atom_type_description
_atom_site_fract_x
_atom_site_fract_y
_atom_site_fract_z
_atom_type_partial_charge
C1    C     C_R   0.545903 0.794745 0.498506 0.941987
C2    C     C_R   0.594264 0.624365 0.813050 0.319532
C3    C     C_R   0.493264 0.506235 0.232604 -0.173632
C4    C     C_R   0.505976 0.498792 0.767548 -0.171683
C5    C     C_R   0.591781 0.625676 0.187772 0.006396
C6    C     C_R   0.415469 0.374022 0.811761 -0.000459
C7    C     C_R   0.593348 0.621726 0.093906 0.059409
C8    C     C_R   0.410029 0.378501 0.905698 0.060500
C9    C     C_R   0.495587 0.502359 0.047103 -0.045532
C10   C     C_R   0.497275 0.504115 0.953080 -0.040822
C11   C     C_R   0.400672 0.379507 0.093814 0.037690
C12   C     C_R   0.454102 0.205251 0.501558 0.941182
C13   C     C_R   0.587538 0.630451 0.906852 0.036299
C14   C     C_R   0.688570 0.738330 0.046379 -0.239812
C15   C     C_R   0.324471 0.255523 0.952616 -0.235434
C16   C     C_3   0.685330 0.762303 0.240182 -0.380207
C17   C     C_3   0.595566 0.916171 0.236710 -0.413968
C18   C     C_3   0.712968 0.057240 0.265978 -0.830751
C19   C     C_3   0.336851 0.231515 0.757863 -0.373922
C20   C     C_3   0.137148 0.221789 0.763220 -0.352644
C21   C     C_3   0.059514 0.196366 0.672527 -0.775296
C22   C     C_3   0.735257 0.915004 0.916859 -0.342612
C23   C     C_R   0.670553 0.757270 0.956358 0.119383
C24   C     C_3   0.744624 0.057016 0.984632 -0.440850
C25   C     C_3   0.793621 0.211201 0.939678 -0.850063
C26   C     C_3   0.245939 0.099330 0.089164 -0.351955
C27   C     C_3   0.226614 0.949587 0.028100 -0.457657
C28   C     C_3   0.183994 0.803934 0.082317 -0.837898
C29   C     C_R   0.322346 0.249272 0.044973 0.117329
C30   C     C_2   0.569905 0.958598 0.499163 -0.380295
C31   C     C_2   0.430120 0.041459 0.502175 -0.384782
C32   C     C_R   0.502758 0.501224 0.672476 0.879271
C33   C     C_R   0.497536 0.501931 0.327566 0.869515
C34   C     C_R   0.392406 0.388480 0.187709 0.318617
H1    H     H_    0.773744 0.820701 0.080384 0.165649
H2    H     H_    0.756783 0.042241 0.333768 0.268672
H3    H     H_    0.827627 0.071339 0.218396 0.256038
H4    H     H_    0.558662 0.935046 0.168378 0.227967
H5    H     H_    0.475578 0.910020 0.281075 0.233329
H6    H     H_    0.694222 0.742233 0.311633 0.225374
H7    H     H_    0.822410 0.775621 0.215579 0.193328
H8    H     H_    0.086708 0.302410 0.633191 0.295394
H9    H     H_    0.111956 0.093060 0.635661 0.245856
H10   H     H_    0.917122 0.175187 0.682140 0.236977
H11   H     H_    0.088680 0.119986 0.803059 0.203396
H12   H     H_    0.259750 0.160423 0.916956 0.152041
H13   H     H_    0.087441 0.330157 0.795981 0.239801
H14   H     H_    0.386705 0.228213 0.687257 0.207143
H15   H     H_    0.383714 0.122215 0.782157 0.160267
H16   H     H_    0.933755 0.220317 0.921979 0.247391
H17   H     H_    0.720979 0.221215 0.879109 0.270121
H18   H     H_    0.766752 0.310322 0.987473 0.264812
H19   H     H_    0.617736 0.065485 0.021789 0.241942
H20   H     H_    0.843684 0.045425 0.033382 0.228345
H21   H     H_    0.864327 0.903437 0.882066 0.232736
H22   H     H_    0.642251 0.945019 0.868104 0.232014
H23   H     H_    0.701773 0.010472 0.497294 0.178101
H24   H     H_    0.290059 0.785551 0.125874 0.266480
H25   H     H_    0.064213 0.817371 0.124736 0.249451
H26   H     H_    0.165379 0.699166 0.036619 0.263246
H27   H     H_    0.120583 0.958624 0.982848 0.228685
H28   H     H_    0.348247 0.933177 0.987080 0.239731
H29   H     H_    0.333580 0.071253 0.140523 0.231749
H30   H     H_    0.117569 0.121901 0.121994 0.236573
H31   H     H_    0.298294 0.989537 0.504297 0.179495
H32   H     H_    0.012620 0.381905 0.431687 0.210220
H33   H     H_    0.987343 0.617854 0.568442 0.207486
H34   H     H_    0.331738 0.255032 0.288331 0.324508
H35   H     H_    0.646585 0.755794 0.710141 0.324673
H36   H     H_    0.641701 0.165259 0.266988 0.248834
N1    N     N_2   0.950330 0.457950 0.475660 -0.178389
N2    N     N_2   0.049670 0.542050 0.524340 -0.190042
O1    O     O_R   0.389250 0.738570 0.505970 -0.611008
O2    O     O_3   0.698495 0.734538 0.766510 -0.803759
O3    O     O_R   0.610750 0.261430 0.494030 -0.612118
O4    O     O_R   0.678390 0.711620 0.490370 -0.637242
O5    O     O_R   0.321610 0.288380 0.509630 -0.643912
O6    O     O_R   0.355420 0.513510 0.639950 -0.613604
O7    O     O_R   0.644580 0.486490 0.360050 -0.626664
O8    O     O_R   0.644560 0.486560 0.624350 -0.611734
O9    O     O_R   0.355440 0.513440 0.375650 -0.595225
O10   O     O_3   0.276957 0.288629 0.235214 -0.797336
Zn1   Zn    Zn3+2 0.306940 0.517990 0.510420 0.938530
Zn2   Zn    Zn3+2 0.693060 0.482010 0.489580 0.937841

loop_
_geom_bond_atom_site_label_1
_geom_bond_atom_site_label_2
_ccdc_geom_bond_type
C18   H36   S    
C19   C20   S    
O8    Zn2   S    
O4    Zn2   S    
C6    C19   S    
C26   C27   S    
C18   H3    S    
O7    Zn2   S    
O3    Zn2   S    
C3    C33   S    
C24   H20   S    
C30   H23   S    
C13   C23   A    
C7    C9    A    
H33   N2    S    
C17   H5    S    
C2    C13   A    
C26   H30   S    
C25   H16   S    
C5    C16   S    
C27   H27   S    
C21   H9    S    
O6    Zn1   S    
C7    C14   A    
C16   C17   S    
C9    C10   A    
C20   H11   S    
C2    O2    S    
O9    Zn1   S    
C15   C29   A    
C28   H26   S    
C20   H13   S    
C24   C25   S    
C4    C6    A    
C14   H1    S    
C5    C7    A    
C19   H14   S    
C33   O7    A    
C22   H22   S    
C3    C34   A    
C24   H19   S    
C14   C23   A    
C2    C4    A    
C26   H29   S    
C25   H17   S    
C27   H28   S    
C32   O8    A    
C21   H10   S    
C19   H15   S    
H32   N1    S    
C12   O5    A    
C17   C18   S    
H35   O2    S    
C9    C11   A    
C4    C32   S    
C16   H6    S    
C8    C15   A    
C12   C31   S    
C22   C24   S    
N1    Zn2   S    
C28   H25   S    
C31   H31   S    
C1    O4    A    
C11   C34   A    
C3    C5    A    
C10   C13   A    
C6    C8    A    
C22   H21   S    
C28   H24   S    
H34   O10   S    
C25   H18   S    
C1    O1    A    
N1    N2    D    
C30   C31   D    
C33   O9    A    
C1    C30   S    
C17   H4    S    
N2    Zn1   S    
C32   O6    A    
C21   H8    S    
C20   C21   S    
C11   C29   A    
C26   C29   S    
C8    C10   A    
C12   O3    A    
C27   C28   S    
O5    Zn1   S    
C22   C23   S    
C34   O10   S    
C15   H12   S    
C18   H2    S    
C16   H7    S    
O1    Zn1   S    
