data_mof_unit_50281.cif
_audit_creation_date              2012-12-11T20:51:02-0500
_audit_creation_method            fapswitch 2.2
_symmetry_space_group_name_H-M    P1
_symmetry_Int_Tables_number       1
_space_group_crystal_system       triclinic
_cell_length_a                    30.561984
_cell_length_b                    33.788639
_cell_length_c                    8.407336
_cell_angle_alpha                 90.0
_cell_angle_beta                  90.032318
_cell_angle_gamma                 90.000021
_cell_volume                      8681.81601729

loop_
_atom_site_label
_atom_site_type_symbol
_atom_type_description
_atom_site_fract_x
_atom_site_fract_y
_atom_site_fract_z
_atom_type_partial_charge
Ba1   Ba    Ba6+2 0.999930 0.472870 0.844940 1.667881
Ba2   Ba    Ba6+2 0.999930 0.527130 0.344940 1.667852
Ba3   Ba    Ba6+2 0.499930 0.972870 0.844940 1.667969
Ba4   Ba    Ba6+2 0.499930 0.027130 0.344940 1.667949
C1    C     C_3   0.017693 0.277472 0.596036 -0.293952
C2    C     C_R   0.213398 0.332282 0.507129 0.589859
C3    C     C_R   0.403783 0.088294 0.690729 0.043605
C4    C     C_R   0.871370 0.383544 0.150680 -0.089402
C5    C     C_R   0.871372 0.616457 0.650675 -0.089412
C6    C     C_R   0.371371 0.883544 0.150682 -0.089380
C7    C     C_R   0.371371 0.116456 0.650680 -0.089390
C8    C     C_R   0.863129 0.349726 0.246671 0.223612
C9    C     C_R   0.863132 0.650275 0.746664 0.223558
C10   C     C_R   0.363127 0.849728 0.246680 0.223695
C11   C     C_R   0.363128 0.150272 0.746676 0.223660
C12   C     C_2   0.069039 0.595952 0.875818 -0.295546
C13   C     C_R   0.713399 0.167718 0.007120 0.589848
C14   C     C_2   0.069040 0.404048 0.375822 -0.295476
C15   C     C_2   0.569040 0.095953 0.875830 -0.295380
C16   C     C_2   0.569039 0.904046 0.375836 -0.295316
C17   C     C_3   0.123696 0.473694 0.172010 0.297803
C18   C     C_3   0.123696 0.526307 0.672008 0.297799
C19   C     C_3   0.623697 0.973694 0.172012 0.297797
C20   C     C_3   0.623697 0.026306 0.672010 0.297795
C21   C     C_3   0.163976 0.447281 0.175333 -0.336782
C22   C     C_3   0.163975 0.552719 0.675333 -0.336781
C23   C     C_3   0.663977 0.947282 0.175344 -0.336782
C24   C     C_R   0.713399 0.832283 0.507135 0.589844
C25   C     C_3   0.663977 0.052718 0.675339 -0.336778
C26   C     C_3   0.874858 0.526340 0.018510 0.296476
C27   C     C_3   0.874856 0.473660 0.518511 0.296479
C28   C     C_3   0.374856 0.026340 0.018511 0.296482
C29   C     C_3   0.374855 0.973660 0.518511 0.296486
C30   C     C_3   0.834191 0.552297 0.021136 -0.346961
C31   C     C_3   0.834189 0.447704 0.521139 -0.346971
C32   C     C_3   0.334188 0.052295 0.021136 -0.346991
C33   C     C_3   0.334186 0.947706 0.521139 -0.347003
C34   C     C_3   0.995545 0.316178 0.551531 0.304802
C35   C     C_R   0.158913 0.718916 0.001193 0.589568
C36   C     C_3   0.995627 0.683771 0.051695 0.305008
C37   C     C_3   0.495384 0.816077 0.551200 0.304371
C38   C     C_3   0.495446 0.183885 0.051326 0.304531
C39   C     C_R   0.928675 0.406503 0.320101 -0.286667
C40   C     C_R   0.928677 0.593497 0.820094 -0.286712
C41   C     C_R   0.428672 0.906505 0.320116 -0.286582
C42   C     C_R   0.428674 0.093496 0.820109 -0.286616
C43   C     C_R   0.158912 0.281086 0.501209 0.589579
C44   C     C_R   0.658910 0.218913 0.001239 0.589595
C45   C     C_R   0.658911 0.781087 0.501233 0.589599
C46   C     C_R   0.190562 0.747588 0.043403 -0.025095
C47   C     C_R   0.190561 0.252413 0.543418 -0.025107
C48   C     C_R   0.690559 0.247585 0.043446 -0.025122
C49   C     C_3   0.017703 0.722516 0.096102 -0.294081
C50   C     C_R   0.690561 0.752414 0.543437 -0.025129
C51   C     C_R   0.234253 0.735850 0.068251 -0.052122
C52   C     C_R   0.234253 0.264151 0.568256 -0.052121
C53   C     C_R   0.734252 0.235849 0.068263 -0.052117
C54   C     C_R   0.734253 0.764152 0.568265 -0.052116
C55   C     C_R   0.289662 0.684476 0.075237 -0.072776
C56   C     C_R   0.289664 0.315523 0.575223 -0.072775
C57   C     C_R   0.789665 0.184478 0.075194 -0.072774
C58   C     C_R   0.789664 0.815525 0.575219 -0.072772
C59   C     C_R   0.821269 0.212474 0.117922 -0.075219
C60   C     C_3   0.517682 0.777455 0.595849 -0.293732
C61   C     C_R   0.821268 0.787528 0.617945 -0.075216
C62   C     C_R   0.321266 0.712473 0.117968 -0.075224
C63   C     C_R   0.321267 0.287527 0.617952 -0.075222
C64   C     C_R   0.810126 0.252641 0.137072 -0.021050
C65   C     C_R   0.810126 0.747361 0.637082 -0.021052
C66   C     C_R   0.310124 0.752641 0.137093 -0.021045
C67   C     C_R   0.310125 0.247359 0.637086 -0.021046
C68   C     C_R   0.766451 0.264377 0.111891 -0.052265
C69   C     C_R   0.766452 0.735624 0.611890 -0.052265
C70   C     C_R   0.266451 0.764378 0.111883 -0.052268
C71   C     C_3   0.517682 0.222541 0.095925 -0.293808
C72   C     C_R   0.266451 0.235622 0.611886 -0.052267
C73   C     C_R   0.179422 0.787754 0.062375 -0.075752
C74   C     C_R   0.179421 0.212247 0.562400 -0.075750
C75   C     C_R   0.679418 0.287751 0.062445 -0.075749
C76   C     C_R   0.679421 0.712248 0.562423 -0.075746
C77   C     C_3   0.009208 0.311288 0.096557 0.662147
C78   C     C_3   0.009192 0.688705 0.596535 0.662098
C79   C     C_3   0.509238 0.811274 0.096585 0.662276
C80   C     C_3   0.509226 0.188720 0.596578 0.662227
C81   C     C_R   0.710999 0.315723 0.105445 -0.072531
C82   C     C_R   0.245843 0.695693 0.050104 -0.026569
C83   C     C_R   0.711002 0.684276 0.605420 -0.072529
C84   C     C_R   0.211001 0.815726 0.105380 -0.072539
C85   C     C_R   0.211000 0.184275 0.605402 -0.072535
C86   C     C_R   0.754802 0.304491 0.130795 -0.026131
C87   C     C_R   0.754804 0.695509 0.630782 -0.026130
C88   C     C_R   0.254803 0.804493 0.130763 -0.026131
C89   C     C_R   0.254803 0.195507 0.630774 -0.026131
C90   C     C_R   0.787106 0.332400 0.175607 0.588383
C91   C     C_R   0.787108 0.667600 0.675593 0.588384
C92   C     C_R   0.287106 0.832402 0.175582 0.588374
C93   C     C_R   0.245844 0.304307 0.550101 -0.026564
C94   C     C_R   0.287106 0.167598 0.675590 0.588376
C95   C     C_R   0.841683 0.281270 0.180880 0.585586
C96   C     C_R   0.841684 0.718732 0.680887 0.585587
C97   C     C_R   0.341681 0.781270 0.180903 0.585576
C98   C     C_R   0.341682 0.218730 0.680895 0.585579
C99   C     C_2   0.110332 0.655001 0.806361 -0.053974
C100  C     C_2   0.110337 0.345001 0.306358 -0.053966
C101  C     C_2   0.610341 0.154997 0.806358 -0.053965
C102  C     C_2   0.610343 0.845004 0.306357 -0.053963
C103  C     C_3   0.071163 0.631906 0.785238 -0.041198
C104  C     C_R   0.745845 0.195693 0.050090 -0.026559
C105  C     C_3   0.071167 0.368096 0.285235 -0.041164
C106  C     C_3   0.571172 0.131903 0.785232 -0.041142
C107  C     C_3   0.571174 0.868097 0.285231 -0.041125
C108  C     C_1   0.096493 0.588519 0.003283 0.037731
C109  C     C_1   0.096494 0.411480 0.503287 0.037763
C110  C     C_1   0.596494 0.088520 0.003293 0.037799
C111  C     C_1   0.596493 0.911480 0.503297 0.037822
C112  C     C_2   0.128457 0.615385 0.045995 -0.090602
C113  C     C_2   0.128457 0.384615 0.546003 -0.090565
C114  C     C_2   0.628457 0.115385 0.046010 -0.090520
C115  C     C_R   0.745845 0.804308 0.550104 -0.026555
C116  C     C_2   0.628456 0.884614 0.546017 -0.090491
C117  C     C_2   0.137039 0.650228 0.942038 0.209011
C118  C     C_2   0.137041 0.349773 0.442043 0.209030
C119  C     C_2   0.637042 0.150226 0.942050 0.209057
C120  C     C_2   0.637042 0.849774 0.442054 0.209063
C121  C     C_R   0.885657 0.344883 0.383983 -0.100040
C122  C     C_R   0.885662 0.655119 0.883973 -0.099955
C123  C     C_R   0.385650 0.844887 0.384003 -0.100217
C124  C     C_R   0.385653 0.155114 0.883995 -0.100148
C125  C     C_3   0.974848 0.285570 0.015343 -0.253877
C126  C     C_R   0.213397 0.667718 0.007131 0.589867
C127  C     C_3   0.974842 0.714430 0.515304 -0.253896
C128  C     C_3   0.474857 0.785575 0.015395 -0.253851
C129  C     C_3   0.474853 0.214426 0.515379 -0.253861
C130  C     C_R   0.919522 0.373917 0.429887 -0.074472
C131  C     C_R   0.919524 0.626084 0.929878 -0.074371
C132  C     C_R   0.419517 0.873920 0.429906 -0.074671
C133  C     C_R   0.419519 0.126081 0.929898 -0.074593
C134  C     C_R   0.903783 0.411706 0.190726 0.043599
C135  C     C_R   0.903784 0.588295 0.690722 0.043599
C136  C     C_R   0.403782 0.911706 0.190732 0.043605
H1    H     H_    0.021230 0.337930 0.519132 0.022604
H2    H     H_    0.155118 0.582688 0.717896 0.069534
H3    H     H_    0.491014 0.168912 0.679373 -0.052024
H4    H     H_    0.949085 0.304432 0.961305 0.128680
H5    H     H_    0.949078 0.695573 0.461240 0.128698
H6    H     H_    0.449096 0.804451 0.961423 0.128621
H7    H     H_    0.449091 0.195555 0.461384 0.128644
H8    H     H_    0.990163 0.266863 0.922504 0.092184
H9    H     H_    0.990164 0.733139 0.422489 0.092164
H10   H     H_    0.490154 0.766874 0.922499 0.092250
H11   H     H_    0.490156 0.233129 0.422504 0.092224
H12   H     H_    0.110893 0.476696 0.294325 0.003107
H13   H     H_    0.655120 0.917314 0.217913 0.069480
H14   H     H_    0.110892 0.523305 0.794322 0.003117
H15   H     H_    0.610892 0.976696 0.294325 0.003083
H16   H     H_    0.610892 0.023304 0.794324 0.003091
H17   H     H_    0.098666 0.459636 0.094859 0.078318
H18   H     H_    0.098666 0.540364 0.594854 0.078331
H19   H     H_    0.598667 0.959635 0.094857 0.078303
H20   H     H_    0.598667 0.040364 0.594856 0.078308
H21   H     H_    0.055484 0.271889 0.108092 0.309678
H22   H     H_    0.055466 0.728104 0.608188 0.309680
H23   H     H_    0.555515 0.771871 0.107853 0.309676
H24   H     H_    0.655120 0.082686 0.717906 0.069496
H25   H     H_    0.555503 0.228122 0.607946 0.309674
H26   H     H_    0.177940 0.444682 0.053833 0.134798
H27   H     H_    0.177940 0.555318 0.553834 0.134797
H28   H     H_    0.677942 0.944682 0.053846 0.134800
H29   H     H_    0.677942 0.055317 0.553840 0.134798
H30   H     H_    0.885980 0.523059 0.894188 0.010453
H31   H     H_    0.885979 0.476941 0.394188 0.010454
H32   H     H_    0.385979 0.023059 0.894189 0.010459
H33   H     H_    0.021357 0.662019 0.019785 0.022838
H34   H     H_    0.385977 0.976942 0.394188 0.010462
H35   H     H_    0.900664 0.540791 0.091243 0.062388
H36   H     H_    0.900663 0.459209 0.591243 0.062375
H37   H     H_    0.400662 0.040791 0.091244 0.062359
H38   H     H_    0.400661 0.959209 0.591242 0.062345
H39   H     H_    0.807990 0.538658 0.947759 0.142545
H40   H     H_    0.807988 0.461344 0.447764 0.142548
H41   H     H_    0.307988 0.038655 0.947762 0.142552
H42   H     H_    0.307986 0.961347 0.447768 0.142555
H43   H     H_    0.841648 0.581987 0.972575 0.072337
H44   H     H_    0.520967 0.837827 0.517837 0.022145
H45   H     H_    0.841646 0.418013 0.472577 0.072346
H46   H     H_    0.341644 0.081985 0.972572 0.072352
H47   H     H_    0.341641 0.918016 0.472571 0.072356
H48   H     H_    0.822338 0.555713 0.145255 0.130162
H49   H     H_    0.822337 0.444288 0.645259 0.130158
H50   H     H_    0.322336 0.055711 0.145256 0.130151
H51   H     H_    0.322335 0.944289 0.645259 0.130147
H52   H     H_    0.973871 0.310246 0.448037 0.008459
H53   H     H_    0.974036 0.689631 0.947916 0.008280
H54   H     H_    0.473547 0.810009 0.448312 0.008833
H55   H     H_    0.521073 0.162134 0.018341 0.022328
H56   H     H_    0.473671 0.189899 0.948194 0.008682
H57   H     H_    0.992813 0.255474 0.634056 0.098181
H58   H     H_    0.992777 0.744500 0.133857 0.098319
H59   H     H_    0.492901 0.755431 0.634434 0.097917
H60   H     H_    0.492860 0.244554 0.134278 0.098018
H61   H     H_    0.035302 0.265390 0.491542 0.174520
H62   H     H_    0.035340 0.734581 0.991639 0.174593
H63   H     H_    0.535223 0.765336 0.491271 0.174393
H64   H     H_    0.535252 0.234645 0.991384 0.174439
H65   H     H_    0.959373 0.265803 0.104368 0.134685
H66   H     H_    0.189001 0.459973 0.256457 0.138606
H67   H     H_    0.959364 0.734195 0.604328 0.134735
H68   H     H_    0.459385 0.765805 0.104417 0.134575
H69   H     H_    0.459380 0.234195 0.604403 0.134619
H70   H     H_    0.700921 0.346273 0.118953 0.125729
H71   H     H_    0.700925 0.653726 0.618919 0.125729
H72   H     H_    0.200925 0.846277 0.118868 0.125731
H73   H     H_    0.200923 0.153724 0.618897 0.125730
H74   H     H_    0.146109 0.797742 0.044253 0.122434
H75   H     H_    0.146107 0.202260 0.544286 0.122432
H76   H     H_    0.646104 0.297737 0.044348 0.122431
H77   H     H_    0.189000 0.540028 0.756461 0.138605
H78   H     H_    0.646107 0.702261 0.544317 0.122434
H79   H     H_    0.854574 0.202484 0.136202 0.122019
H80   H     H_    0.854572 0.797519 0.636234 0.122023
H81   H     H_    0.354569 0.702482 0.136271 0.122014
H82   H     H_    0.354571 0.297517 0.636247 0.122015
H83   H     H_    0.878870 0.320055 0.461545 0.097374
H84   H     H_    0.878876 0.679948 0.961534 0.097417
H85   H     H_    0.378859 0.820061 0.461570 0.097306
H86   H     H_    0.378864 0.179941 0.961560 0.097334
H87   H     H_    0.299709 0.653907 0.062136 0.125750
H88   H     H_    0.689001 0.959975 0.256470 0.138609
H89   H     H_    0.299711 0.346092 0.562115 0.125751
H90   H     H_    0.799713 0.153910 0.062072 0.125753
H91   H     H_    0.799711 0.846093 0.562107 0.125754
H92   H     H_    0.146832 0.611523 0.155429 0.110032
H93   H     H_    0.146830 0.388476 0.655440 0.110019
H94   H     H_    0.646830 0.111524 0.155448 0.110000
H95   H     H_    0.646828 0.888475 0.655459 0.109998
H96   H     H_    0.116425 0.679762 0.727204 0.114612
H97   H     H_    0.116432 0.320242 0.227198 0.114620
H98   H     H_    0.616437 0.179756 0.727198 0.114638
H99   H     H_    0.689002 0.040026 0.756465 0.138608
H100  H     H_    0.616441 0.820246 0.227192 0.114655
H101  H     H_    0.852192 0.388047 0.043900 0.108532
H102  H     H_    0.852193 0.611953 0.543897 0.108551
H103  H     H_    0.352196 0.888046 0.043893 0.108518
H104  H     H_    0.352195 0.111954 0.543895 0.108525
H105  H     H_    0.953253 0.428090 0.352470 0.072283
H106  H     H_    0.953254 0.571910 0.852465 0.072287
H107  H     H_    0.453250 0.928092 0.352486 0.072273
H108  H     H_    0.453251 0.071909 0.852479 0.072276
H109  H     H_    0.041460 0.282440 0.694023 0.143374
H110  H     H_    0.155119 0.417313 0.217901 0.069516
H111  H     H_    0.041436 0.717609 0.194248 0.143206
H112  H     H_    0.541526 0.782545 0.693472 0.143721
H113  H     H_    0.541495 0.217500 0.193701 0.143588
H114  H     H_    0.040355 0.577464 0.859471 0.073301
H115  H     H_    0.040354 0.422534 0.359479 0.073281
H116  H     H_    0.540352 0.077469 0.859494 0.073254
H117  H     H_    0.540350 0.922528 0.359505 0.073239
H118  H     H_    0.990981 0.331106 0.179273 -0.051830
H119  H     H_    0.990956 0.668880 0.679193 -0.051683
H120  H     H_    0.491033 0.831076 0.179429 -0.052140
N1    N     N_R   0.170408 0.679422 0.983230 -0.427177
N2    N     N_R   0.170409 0.320578 0.483237 -0.427185
N3    N     N_R   0.670409 0.179421 0.983247 -0.427195
N4    N     N_R   0.670409 0.820579 0.483252 -0.427200
N5    N     N_R   0.830141 0.320748 0.199656 -0.425656
N6    N     N_R   0.830143 0.679254 0.699651 -0.425657
N7    N     N_R   0.330140 0.820749 0.199658 -0.425653
N8    N     N_R   0.330140 0.179251 0.699657 -0.425654
O1    O     O_2   0.914200 0.445720 0.903420 -0.456808
O2    O     O_3   0.033003 0.667128 0.481305 -0.578368
O3    O     O_3   0.533010 0.832874 0.981321 -0.578220
O4    O     O_3   0.533009 0.167127 0.481320 -0.578259
O5    O     O_3   0.049930 0.518940 0.045960 -0.497068
O6    O     O_3   0.049930 0.481060 0.545960 -0.497074
O7    O     O_3   0.549930 0.018940 0.045960 -0.497087
O8    O     O_3   0.549930 0.981060 0.545960 -0.497092
O9    O     O_2   0.223531 0.633007 0.989504 -0.592473
O10   O     O_2   0.223533 0.366993 0.489496 -0.592475
O11   O     O_2   0.723534 0.133008 0.989471 -0.592477
O12   O     O_2   0.914200 0.554280 0.403420 -0.456800
O13   O     O_2   0.723533 0.866993 0.489496 -0.592480
O14   O     O_2   0.120928 0.729096 0.982262 -0.603024
O15   O     O_2   0.120927 0.270906 0.482286 -0.602975
O16   O     O_2   0.620924 0.229090 0.982337 -0.602922
O17   O     O_2   0.620925 0.770908 0.482323 -0.602887
O18   O     O_2   0.776769 0.366997 0.195253 -0.593588
O19   O     O_2   0.776773 0.633003 0.695230 -0.593588
O20   O     O_2   0.276770 0.867000 0.195210 -0.593589
O21   O     O_2   0.276770 0.133001 0.695224 -0.593588
O22   O     O_2   0.879575 0.271036 0.201707 -0.620276
O23   O     O_2   0.414200 0.945720 0.903420 -0.456832
O24   O     O_2   0.879575 0.728968 0.701723 -0.620253
O25   O     O_2   0.379572 0.771035 0.201749 -0.620310
O26   O     O_2   0.379573 0.228965 0.701734 -0.620297
O27   O     O_3   0.950020 0.480960 0.143730 -0.495066
O28   O     O_3   0.950020 0.519040 0.643730 -0.495066
O29   O     O_3   0.450020 0.980960 0.143730 -0.495074
O30   O     O_3   0.450020 0.019040 0.643730 -0.495074
O31   O     O_3   0.985090 0.412220 0.642040 -0.466990
O32   O     O_3   0.985090 0.587780 0.142040 -0.467073
O33   O     O_3   0.485090 0.912220 0.642040 -0.466827
O34   O     O_2   0.414200 0.054280 0.403420 -0.456824
O35   O     O_3   0.485090 0.087780 0.142040 -0.466894
O36   O     O_2   0.911454 0.381243 0.758168 -0.477507
O37   O     O_2   0.911445 0.618750 0.258146 -0.477502
O38   O     O_2   0.411474 0.881225 0.758222 -0.477529
O39   O     O_2   0.411465 0.118767 0.258199 -0.477521
O40   O     O_3   0.863971 0.489266 0.080526 -0.626290
O41   O     O_3   0.863970 0.510735 0.580528 -0.626288
O42   O     O_3   0.363970 0.989265 0.080529 -0.626292
O43   O     O_3   0.363970 0.010735 0.580531 -0.626291
O44   O     O_3   0.971171 0.329946 0.681623 -0.577536
O45   O     O_3   0.135646 0.489153 0.612697 -0.625777
O46   O     O_3   0.971156 0.670054 0.181632 -0.577609
O47   O     O_3   0.471205 0.829947 0.681589 -0.577398
O48   O     O_3   0.471190 0.170053 0.181605 -0.577448
O49   O     O_2   0.085560 0.445380 0.786390 -0.452376
O50   O     O_2   0.085560 0.554620 0.286390 -0.452384
O51   O     O_2   0.585560 0.945380 0.786390 -0.452367
O52   O     O_2   0.585560 0.054620 0.286390 -0.452372
O53   O     O_3   0.014550 0.412170 0.047860 -0.469784
O54   O     O_3   0.014550 0.587830 0.547860 -0.469791
O55   O     O_3   0.514550 0.912170 0.047860 -0.469772
O56   O     O_3   0.135646 0.510847 0.112695 -0.625769
O57   O     O_3   0.514550 0.087830 0.547860 -0.469779
O58   O     O_2   0.094246 0.386794 0.967121 -0.488613
O59   O     O_2   0.094245 0.613207 0.467126 -0.488615
O60   O     O_2   0.594248 0.886797 0.967119 -0.488614
O61   O     O_2   0.594247 0.113204 0.467119 -0.488612
O62   O     O_3   0.037538 0.287124 0.185188 -0.771807
O63   O     O_3   0.037513 0.712862 0.685239 -0.771835
O64   O     O_3   0.537587 0.787091 0.185050 -0.771752
O65   O     O_3   0.537568 0.212897 0.685106 -0.771773
O66   O     O_3   0.635646 0.989153 0.612698 -0.625785
O67   O     O_3   0.635646 0.010847 0.112698 -0.625780
O68   O     O_3   0.033006 0.332872 0.981314 -0.578321
P1    P     P_3+3 0.909970 0.458430 0.077330 0.998280
P2    P     P_3+3 0.054526 0.624584 0.571438 0.975409
P3    P     P_3+3 0.554531 0.875420 0.071442 0.975483
P4    P     P_3+3 0.554530 0.124581 0.571440 0.975465
P5    P     P_3+3 0.946016 0.625645 0.126886 0.966850
P6    P     P_3+3 0.946020 0.374351 0.626887 0.966913
P7    P     P_3+3 0.446024 0.125653 0.126889 0.966988
P8    P     P_3+3 0.446028 0.874344 0.626891 0.967035
P9    P     P_3+3 0.909970 0.541570 0.577330 0.998281
P10   P     P_3+3 0.409970 0.958430 0.077330 0.998269
P11   P     P_3+3 0.409970 0.041570 0.577330 0.998270
P12   P     P_3+3 0.089830 0.458070 0.612460 0.997005
P13   P     P_3+3 0.089830 0.541930 0.112460 0.997000
P14   P     P_3+3 0.589830 0.958070 0.612460 0.997009
P15   P     P_3+3 0.589830 0.041930 0.112460 0.997006
P16   P     P_3+3 0.054528 0.375418 0.071439 0.975436

loop_
_geom_bond_atom_site_label_1
_geom_bond_atom_site_label_2
_ccdc_geom_bond_type
Ba2   P9    S    
C101  C106  A    
C99   H96   S    
C19   H15   S    
C128  H10   S    
C129  H11   S    
C44   O16   D    
Ba3   O8    S    
C71   H60   S    
C38   C71   S    
C77   O62   S    
C20   O66   S    
Ba1   P12   S    
C83   C87   A    
C55   C62   A    
C120  N4    S    
C101  C119  A    
C4    C134  A    
C49   H111  S    
C17   H12   S    
C70   C88   A    
C57   C59   A    
C26   O40   S    
C51   C70   A    
C7    C11   A    
O48   P7    S    
C73   C84   A    
Ba1   O49   S    
C66   C70   A    
Ba3   O51   S    
O68   P16   S    
O61   P4    D    
O49   P12   D    
C102  C107  A    
C40   C131  S    
O29   P10   S    
C28   H32   S    
C30   H39   S    
C6    C136  A    
C136  P10   S    
C73   H74   S    
C74   C85   A    
C80   C129  S    
C112  C117  S    
C56   H89   S    
C2    C93   A    
O37   P5    D    
O33   P8    S    
C34   O44   S    
C123  C132  S    
O27   P1    S    
C11   N8    S    
C35   N1    Am   
C118  N2    S    
C91   N6    Am   
C133  P7    S    
Ba4   O35   S    
Ba2   O6    S    
C16   C107  A    
C77   C125  S    
H22   O63   S    
C64   C68   A    
C57   H90   S    
C79   H120  S    
C58   C115  A    
C67   C98   A    
C40   C135  D    
H23   O64   S    
C127  H9    S    
C21   H66   S    
C99   C117  A    
C46   C73   A    
C75   C81   A    
Ba1   O28   S    
O31   P6    S    
Ba2   O27   S    
C6    H103  S    
O52   P15   D    
C81   C86   A    
C21   H26   S    
C135  P9    S    
C51   C82   A    
C47   C74   A    
C42   H108  S    
C17   O56   S    
C97   O25   D    
C33   H47   S    
C96   N6    Am   
C27   C31   S    
C28   O42   S    
C54   C115  A    
C38   H55   S    
C126  N1    Am   
C65   C96   A    
C44   C48   A    
C124  H86   S    
C84   H72   S    
C102  C120  A    
C99   C103  A    
C32   H41   S    
C25   H29   S    
C78   C127  S    
C20   H16   S    
Ba4   P15   S    
C129  H69   S    
O58   P16   D    
C14   C105  A    
C3    P11   S    
O12   P9    D    
C66   C97   A    
C125  H4    S    
C62   C66   A    
C32   H50   S    
C28   C32   S    
Ba2   O12   S    
Ba1   O1    S    
C59   H79   S    
C88   C92   A    
O30   P11   S    
O47   P8    S    
C5    C9    A    
C19   O67   S    
C60   H112  S    
Ba2   P13   S    
Ba3   O55   S    
C56   C63   A    
C94   N8    Am   
C19   H19   S    
C37   H44   S    
C129  H7    S    
C48   C75   A    
C108  P13   S    
Ba4   O52   S    
O38   P8    D    
C16   H117  S    
O59   P2    D    
C112  H92   S    
C52   C93   A    
C14   C109  A    
C45   N4    Am   
Ba3   P14   S    
C27   H36   S    
C22   H27   S    
C26   C30   S    
C3    C42   D    
C6    C10   A    
O39   P7    D    
C82   C126  A    
C1    H57   S    
O34   P11   D    
C80   O65   S    
Ba2   O50   S    
C29   O43   S    
C113  C118  S    
O23   P10   D    
O54   P2    S    
C68   C86   A    
C109  P12   S    
O44   P6    S    
C113  H93   S    
C4    C8    A    
C18   O45   S    
C30   H43   S    
C2    N2    Am   
Ba4   O34   S    
C29   H34   S    
Ba1   O6    S    
C43   O15   D    
C42   C133  S    
C109  C113  A    
C75   H76   S    
C34   H1    S    
C38   O48   S    
Ba3   Ba4   S    
O46   P5    S    
C108  C112  A    
C10   N7    S    
C90   N5    Am   
C17   C21   S    
C59   C64   A    
Ba4   O7    S    
C83   H71   S    
C132  P8    S    
C74   H75   S    
C16   C111  A    
C111  C116  A    
Ba3   O7    S    
C44   N3    Am   
O56   P13   S    
C126  O9    D    
C105  P16   S    
C27   H31   S    
C4    H101  S    
C39   H105  S    
C77   O68   S    
C91   O19   D    
C127  H5    S    
C85   C89   A    
C87   C91   A    
C53   C104  A    
C37   O47   S    
O50   P13   D    
C121  C130  S    
O45   P12   S    
C134  P1    S    
C130  P6    S    
C98   O26   D    
C27   O41   S    
O51   P14   D    
C77   H118  S    
O42   P10   S    
C116  H95   S    
C50   C54   A    
C67   C72   A    
C35   O14   D    
O4    P4    S    
C39   C134  D    
C20   C25   S    
C26   H30   S    
O8    P14   S    
C12   C103  A    
C12   H114  S    
C65   C69   A    
O28   P9    S    
C95   O22   D    
C55   H87   S    
C40   H106  S    
C23   H28   S    
C127  H67   S    
C31   H49   S    
C102  H100  S    
C1    C34   S    
C9    N6    S    
C22   H77   S    
C25   H24   S    
C24   O13   D    
H25   O65   S    
C62   H81   S    
C86   C90   A    
C50   C76   A    
C121  H83   S    
C43   N2    Am   
C100  H97   S    
C36   H53   S    
C1    H109  S    
C56   C93   A    
C13   C104  A    
C43   C47   A    
C8    C121  D    
C18   H18   S    
C15   C110  A    
C71   H113  S    
C41   C136  D    
C29   C33   S    
C10   C123  D    
C79   O64   S    
O35   P7    S    
C39   C130  S    
C37   H54   S    
C72   C89   A    
C125  H65   S    
C21   H110  S    
C94   O21   D    
C38   H56   S    
C13   O11   D    
Ba3   P10   S    
C9    C122  D    
C60   H63   S    
C122  C131  S    
C11   C124  D    
O41   P9    S    
O36   P6    D    
C28   H37   S    
Ba4   O29   S    
C26   H35   S    
C12   C108  A    
C85   H73   S    
C78   H119  S    
Ba1   O31   S    
Ba2   O32   S    
Ba1   O53   S    
C14   H115  S    
C111  P14   S    
C49   H62   S    
C128  H6    S    
C79   C128  S    
C103  P2    S    
Ba2   O5    S    
C1    H61   S    
C5    C135  A    
C100  C105  A    
O66   P14   S    
C61   C65   A    
C33   H42   S    
Ba4   O57   S    
C92   O20   D    
C63   C67   A    
C114  C119  S    
C53   C68   A    
C55   C82   A    
C36   O46   S    
C48   C53   A    
C15   H116  S    
C100  C118  A    
C58   H91   S    
C18   C22   S    
C60   H59   S    
C123  H85   S    
C37   C60   S    
C23   H13   S    
O55   P3    S    
C52   C72   A    
Ba3   O23   S    
C81   H70   S    
C41   H107  S    
C90   O18   D    
C3    C7    A    
C45   O17   D    
C131  P5    S    
C49   H58   S    
Ba1   Ba2   S    
C76   C83   A    
C76   H78   S    
C36   H33   S    
C122  H84   S    
C23   H88   S    
C45   C50   A    
O1    P1    D    
H21   O62   S    
C47   C52   A    
C57   C104  A    
C8    N5    S    
C125  H8    S    
O43   P11   S    
C117  N1    S    
C84   C88   A    
C119  N3    S    
Ba2   O54   S    
C101  H98   S    
C19   C23   S    
Ba1   O5    S    
C92   N7    Am   
C97   N7    Am   
C98   N8    Am   
C96   O24   D    
C7    H104  S    
C78   O63   S    
C5    H102  S    
O53   P16   S    
C80   O4    S    
Ba4   O8    S    
C69   C87   A    
O3    P3    S    
C80   H3    S    
C24   N4    Am   
C13   N3    Am   
C63   H82   S    
C79   O3    S    
C124  C133  S    
Ba3   O30   S    
O67   P15   S    
C110  P15   S    
C114  H94   S    
C31   H45   S    
C30   H48   S    
C110  C114  A    
C33   H51   S    
C128  H68   S    
C34   H52   S    
C107  P3    S    
O5    P13   S    
O2    P2    S    
Ba1   P1    S    
O32   P5    S    
O7    P15   S    
C18   H14   S    
C15   C106  A    
C31   H40   S    
C95   N5    Am   
C41   C132  S    
C58   C61   A    
C29   H38   S    
C17   H17   S    
C24   C115  A    
C61   H80   S    
C71   H64   S    
C20   H20   S    
C46   C51   A    
C78   O2    S    
Ba4   P11   S    
O6    P12   S    
C64   C95   A    
O57   P4    S    
C25   H99   S    
C32   H46   S    
O40   P1    S    
O60   P3    D    
C35   C46   A    
C36   C49   S    
C22   H2    S    
C89   C94   A    
Ba3   O33   S    
C106  P4    S    
C116  C120  S    
C54   C69   A    
C2    O10   D    
