data_mof_unit_49736.cif
_audit_creation_date              2012-12-11T14:04:16-0500
_audit_creation_method            fapswitch 2.2
_symmetry_space_group_name_H-M    P1
_symmetry_Int_Tables_number       1
_space_group_crystal_system       triclinic
_cell_length_a                    18.898671
_cell_length_b                    11.088364
_cell_length_c                    18.770926
_cell_angle_alpha                 89.592441
_cell_angle_beta                  90.504197
_cell_angle_gamma                 89.940721
_cell_volume                      3933.29365801

loop_
_atom_site_label
_atom_site_type_symbol
_atom_type_description
_atom_site_fract_x
_atom_site_fract_y
_atom_site_fract_z
_atom_type_partial_charge
C1    C     C_R   0.239372 0.468163 0.646418 0.560826
C2    C     C_R   0.993421 0.668427 0.574170 -0.006618
C3    C     C_3   0.327000 0.295201 0.950472 -0.424178
C4    C     C_R   0.508333 0.158159 0.424845 -0.001775
C5    C     C_R   0.493425 0.168433 0.574168 -0.006619
C6    C     C_R   0.034804 0.874087 0.421500 -0.080703
C7    C     C_R   0.003569 0.891672 0.565958 -0.071891
C8    C     C_R   0.534798 0.374089 0.421492 -0.080704
C9    C     C_R   0.503581 0.391684 0.565952 -0.071896
C10   C     C_R   0.040316 0.984622 0.455602 -0.132523
C11   C     C_R   0.022972 0.994122 0.527252 -0.128032
C12   C     C_R   0.540302 0.484629 0.455587 -0.132515
C13   C     C_R   0.760341 0.466962 0.353184 0.556405
C14   C     C_R   0.522971 0.494133 0.527239 -0.128044
C15   C     C_R   0.003717 0.776536 0.534040 -0.005340
C16   C     C_R   0.014702 0.769765 0.459522 -0.002099
C17   C     C_R   0.503726 0.276543 0.534038 -0.005338
C18   C     C_R   0.514705 0.269768 0.459519 -0.002101
C19   C     C_R   0.981872 0.559489 0.537242 -0.013572
C20   C     C_R   0.006119 0.551282 0.466800 -0.007511
C21   C     C_R   0.481875 0.059496 0.537241 -0.013575
C22   C     C_R   0.506123 0.051288 0.466799 -0.007513
C23   C     C_R   0.954346 0.454582 0.570733 0.260563
C24   C     C_R   0.739373 0.968164 0.646423 0.560848
C25   C     C_R   0.023321 0.435471 0.440047 0.258791
C26   C     C_R   0.454350 0.954588 0.570730 0.260566
C27   C     C_R   0.523333 0.935482 0.440048 0.258791
C28   C     C_R   0.965205 0.341807 0.540345 -0.150324
C29   C     C_R   0.002350 0.332253 0.477039 -0.158088
C30   C     C_R   0.465217 0.841813 0.540345 -0.150311
C31   C     C_R   0.502369 0.832262 0.477043 -0.158079
C32   C     C_2   0.261030 0.938134 0.910738 -0.107144
C33   C     C_2   0.738460 0.940580 0.089703 -0.110931
C34   C     C_2   0.761029 0.438134 0.910738 -0.107144
C35   C     C_R   0.260350 0.966995 0.353189 0.556456
C36   C     C_2   0.238459 0.440580 0.089703 -0.110931
C37   C     C_2   0.259948 0.961614 0.071477 0.036398
C38   C     C_2   0.739364 0.963318 0.928970 0.026650
C39   C     C_2   0.759948 0.461614 0.071477 0.036399
C40   C     C_2   0.239364 0.463318 0.928970 0.026649
C41   C     C_R   0.226522 0.872919 0.646881 0.596987
C42   C     C_R   0.772985 0.873475 0.352619 0.581440
C43   C     C_R   0.726522 0.372920 0.646880 0.596989
C44   C     C_R   0.272983 0.373479 0.352617 0.581429
C45   C     C_2   0.245158 0.044152 0.021011 -0.154777
C46   C     C_2   0.286438 0.837592 0.535727 -0.132295
C47   C     C_2   0.753663 0.046431 0.978571 -0.156490
C48   C     C_2   0.745158 0.544152 0.021011 -0.154777
C49   C     C_2   0.253663 0.546432 0.978571 -0.156490
C50   C     C_2   0.222885 0.014309 0.949121 -0.167842
C51   C     C_2   0.776389 0.016788 0.050639 -0.166713
C52   C     C_2   0.722885 0.514309 0.949121 -0.167842
C53   C     C_2   0.276389 0.516789 0.050639 -0.166712
C54   C     C_2   0.011252 0.655206 0.926299 -0.104345
C55   C     C_2   0.008396 0.664547 0.083115 -0.119249
C56   C     C_2   0.511252 0.155206 0.926299 -0.104346
C57   C     C_2   0.711376 0.841875 0.463732 -0.119546
C58   C     C_2   0.508395 0.164547 0.083115 -0.119249
C59   C     C_2   0.024086 0.565935 0.046170 -0.168965
C60   C     C_2   0.038521 0.570572 0.970431 -0.165197
C61   C     C_2   0.524086 0.065935 0.046170 -0.168964
C62   C     C_2   0.538521 0.070572 0.970431 -0.165197
C63   C     C_R   0.027385 0.656161 0.645803 0.584617
C64   C     C_R   0.973297 0.653897 0.353633 0.567810
C65   C     C_R   0.527386 0.156163 0.645803 0.584621
C66   C     C_R   0.473297 0.153898 0.353633 0.567811
C67   C     C_R   0.226703 0.510400 0.858916 0.550338
C68   C     C_2   0.786440 0.337590 0.535728 -0.132295
C69   C     C_R   0.772880 0.509560 0.140911 0.554188
C70   C     C_R   0.726703 0.010400 0.858916 0.550336
C71   C     C_R   0.272880 0.009560 0.140911 0.554191
C72   C     C_R   0.229477 0.876800 0.850590 0.554774
C73   C     C_R   0.770424 0.877525 0.149572 0.549772
C74   C     C_R   0.729477 0.376800 0.850590 0.554775
C75   C     C_R   0.270424 0.377525 0.149572 0.549771
C76   C     C_R   0.032063 0.651294 0.852345 0.555295
C77   C     C_R   0.971539 0.652834 0.150068 0.551982
C78   C     C_R   0.532063 0.151294 0.852345 0.555295
C79   C     C_2   0.211367 0.341894 0.463726 -0.119540
C80   C     C_R   0.471539 0.152834 0.150068 0.551984
C81   C     C_2   0.246728 0.911228 0.575778 -0.049393
C82   C     C_2   0.751581 0.913876 0.422716 -0.060076
C83   C     C_2   0.746726 0.411225 0.575775 -0.049400
C84   C     C_2   0.251576 0.413888 0.422711 -0.060083
C85   C     C_2   0.245290 0.906401 0.419913 -0.117592
C86   C     C_2   0.753546 0.909699 0.579146 -0.112731
C87   C     C_2   0.745283 0.406371 0.419908 -0.117603
C88   C     C_2   0.253537 0.409716 0.579136 -0.112740
C89   C     C_2   0.297685 0.861858 0.460296 -0.165987
C90   C     C_R   0.008330 0.658156 0.424847 -0.001780
C91   C     C_2   0.700384 0.867829 0.538854 -0.163011
C92   C     C_2   0.797684 0.361850 0.460295 -0.165979
C93   C     C_2   0.200374 0.367851 0.538846 -0.163014
C94   C     C_3   0.250848 0.826772 0.064281 -0.252954
C95   C     C_3   0.173240 0.792678 0.051968 -0.425958
C96   C     C_3   0.749192 0.828647 0.937709 -0.250054
C97   C     C_3   0.827000 0.795201 0.950472 -0.424179
C98   C     C_3   0.750848 0.326771 0.064281 -0.252955
C99   C     C_3   0.673240 0.292678 0.051968 -0.425959
C100  C     C_3   0.249192 0.328647 0.937709 -0.250054
Cl1   Cl    Cl    0.076682 0.415424 0.364184 -0.625178
Cl2   Cl    Cl    0.903786 0.461747 0.649325 -0.615597
Cl3   Cl    Cl    0.576693 0.915444 0.364184 -0.625176
Cl4   Cl    Cl    0.403785 0.961750 0.649320 -0.615599
Cr1   Cr    Cr6+3 0.113970 0.508630 0.747920 1.051344
Cr2   Cr    Cr6+3 0.887700 0.820070 0.250200 1.020777
Cr3   Cr    Cr6+3 0.612300 0.320070 0.749800 1.017586
Cr4   Cr    Cr6+3 0.387700 0.320070 0.250200 1.020769
Cr5   Cr    Cr6+3 0.886030 0.508630 0.252080 1.058425
Cr6   Cr    Cr6+3 0.613970 0.008630 0.747920 1.051341
Cr7   Cr    Cr6+3 0.386030 0.008630 0.252080 1.058417
Cr8   Cr    Cr6+3 0.269200 0.666740 0.749850 1.051629
Cr9   Cr    Cr6+3 0.730800 0.666740 0.250150 1.052390
Cr10  Cr    Cr6+3 0.769200 0.166740 0.749850 1.051626
Cr11  Cr    Cr6+3 0.230800 0.166740 0.250150 1.052388
Cr12  Cr    Cr6+3 0.112300 0.820070 0.749800 1.017588
H1    H     H_    0.350276 0.848264 0.439001 0.166310
H2    H     H_    0.685703 0.913959 0.072442 0.105595
H3    H     H_    0.813567 0.410711 0.928513 0.113989
H4    H     H_    0.185703 0.413959 0.072442 0.105595
H5    H     H_    0.022378 0.476905 0.070657 0.162182
H6    H     H_    0.070079 0.496646 0.949996 0.151910
H7    H     H_    0.522378 0.976905 0.070657 0.162181
H8    H     H_    0.570079 0.996646 0.949996 0.151910
H9    H     H_    0.013679 0.754011 0.059859 0.101648
H10   H     H_    0.980386 0.730764 0.945257 0.090254
H11   H     H_    0.513679 0.254012 0.059859 0.101647
H12   H     H_    0.647448 0.856556 0.559992 0.164894
H13   H     H_    0.480386 0.230764 0.945257 0.090254
H14   H     H_    0.311774 0.757997 0.558400 0.161915
H15   H     H_    0.685786 0.762138 0.442260 0.176120
H16   H     H_    0.811781 0.258001 0.558404 0.161915
H17   H     H_    0.185776 0.262157 0.442254 0.176128
H18   H     H_    0.192232 0.914991 0.441177 0.114726
H19   H     H_    0.806719 0.916691 0.557799 0.110704
H20   H     H_    0.692222 0.414948 0.441169 0.114728
H21   H     H_    0.306710 0.416706 0.557789 0.110703
H22   H     H_    0.222367 0.991872 0.553214 0.104002
H23   H     H_    0.850278 0.348275 0.439003 0.166313
H24   H     H_    0.776022 0.994599 0.444308 0.101269
H25   H     H_    0.722360 0.491864 0.553206 0.104006
H26   H     H_    0.276017 0.494611 0.444302 0.101268
H27   H     H_    0.057987 0.062670 0.425944 0.125150
H28   H     H_    0.025263 0.080786 0.553239 0.107975
H29   H     H_    0.557960 0.562676 0.425918 0.125148
H30   H     H_    0.525262 0.580803 0.553217 0.107966
H31   H     H_    0.049182 0.869599 0.365861 0.132445
H32   H     H_    0.987574 0.903968 0.620594 0.139255
H33   H     H_    0.549172 0.369601 0.365852 0.132445
H34   H     H_    0.147437 0.356582 0.559985 0.164898
H35   H     H_    0.487597 0.403986 0.620588 0.139269
H36   H     H_    0.946069 0.261160 0.566611 0.135622
H37   H     H_    0.013402 0.244439 0.455660 0.134701
H38   H     H_    0.446084 0.761162 0.566612 0.135621
H39   H     H_    0.513434 0.744449 0.455668 0.134688
H40   H     H_    0.243700 0.137763 0.036267 0.114177
H41   H     H_    0.754432 0.140169 0.962480 0.115076
H42   H     H_    0.743699 0.637762 0.036267 0.114178
H43   H     H_    0.254432 0.640169 0.962480 0.115076
H44   H     H_    0.165998 0.694604 0.061040 0.153227
H45   H     H_    0.172054 0.048434 0.930490 0.155762
H46   H     H_    0.138800 0.841104 0.089985 0.171117
H47   H     H_    0.155954 0.814090 0.996722 0.159582
H48   H     H_    0.285914 0.793312 0.022298 0.121305
H49   H     H_    0.268509 0.780201 0.113984 0.166590
H50   H     H_    0.834793 0.697064 0.942614 0.144814
H51   H     H_    0.861297 0.843542 0.911930 0.172207
H52   H     H_    0.844160 0.817322 0.005460 0.156607
H53   H     H_    0.714191 0.795676 0.980089 0.117575
H54   H     H_    0.731691 0.781376 0.888601 0.168291
H55   H     H_    0.665999 0.194604 0.061040 0.153228
H56   H     H_    0.827546 0.049968 0.068537 0.155907
H57   H     H_    0.638800 0.341103 0.089985 0.171116
H58   H     H_    0.655954 0.314089 0.996722 0.159582
H59   H     H_    0.785914 0.293312 0.022299 0.121305
H60   H     H_    0.768509 0.280201 0.113984 0.166589
H61   H     H_    0.334794 0.197065 0.942614 0.144813
H62   H     H_    0.361297 0.343542 0.911931 0.172208
H63   H     H_    0.344160 0.317322 0.005460 0.156607
H64   H     H_    0.214191 0.295676 0.980089 0.117576
H65   H     H_    0.231691 0.281376 0.888601 0.168292
H66   H     H_    0.672053 0.548433 0.930490 0.155762
H67   H     H_    0.327546 0.549968 0.068537 0.155907
H68   H     H_    0.313567 0.910711 0.928513 0.113989
O1    O     O_R   0.043230 0.549300 0.667990 -0.458990
O2    O     O_R   0.832470 0.905110 0.169660 -0.514959
O3    O     O_R   0.667530 0.405110 0.830340 -0.515273
O4    O     O_R   0.332470 0.405110 0.169660 -0.514959
O5    O     O_R   0.054010 0.748440 0.822860 -0.501705
O6    O     O_R   0.945990 0.748440 0.177140 -0.506238
O7    O     O_R   0.554010 0.248440 0.822860 -0.501704
O8    O     O_R   0.445990 0.248440 0.177140 -0.506238
O9    O     O_3   0.165160 0.665150 0.749190 -0.283766
O10   O     O_3   0.834840 0.665150 0.250810 -0.279929
O11   O     O_3   0.665160 0.165150 0.749190 -0.283766
O12   O     O_R   0.956770 0.549300 0.332010 -0.454246
O13   O     O_3   0.334840 0.165150 0.250810 -0.279937
O14   O     O_R   0.178620 0.457600 0.674100 -0.492811
O15   O     O_R   0.821380 0.457600 0.325900 -0.489927
O16   O     O_R   0.678620 0.957600 0.674100 -0.492819
O17   O     O_R   0.321380 0.957600 0.325900 -0.489948
O18   O     O_R   0.284680 0.542100 0.669460 -0.518742
O19   O     O_R   0.715320 0.542100 0.330540 -0.518404
O20   O     O_R   0.784680 0.042100 0.669460 -0.518759
O21   O     O_R   0.215320 0.042100 0.330540 -0.518427
O22   O     O_R   0.262860 0.790390 0.676650 -0.465026
O23   O     O_R   0.543230 0.049300 0.667990 -0.458987
O24   O     O_R   0.737140 0.790390 0.323350 -0.464192
O25   O     O_R   0.762860 0.290390 0.676650 -0.465025
O26   O     O_R   0.237140 0.290390 0.323350 -0.464203
O27   O     O_R   0.167460 0.907030 0.670940 -0.519424
O28   O     O_R   0.832540 0.907030 0.329060 -0.515399
O29   O     O_R   0.667460 0.407030 0.670940 -0.519427
O30   O     O_R   0.332540 0.407030 0.329060 -0.515397
O31   O     O_R   0.053950 0.750220 0.675100 -0.517778
O32   O     O_R   0.946050 0.750220 0.324900 -0.511489
O33   O     O_R   0.553950 0.250220 0.675100 -0.517784
O34   O     O_R   0.456770 0.049300 0.332010 -0.454252
O35   O     O_R   0.446050 0.250220 0.324900 -0.511494
O36   O     O_R   0.043300 0.547370 0.827390 -0.498638
O37   O     O_R   0.956700 0.547370 0.172610 -0.502145
O38   O     O_R   0.543300 0.047370 0.827390 -0.498639
O39   O     O_R   0.456700 0.047370 0.172610 -0.502146
O40   O     O_R   0.178690 0.455820 0.821860 -0.511974
O41   O     O_R   0.821310 0.455820 0.178140 -0.506821
O42   O     O_R   0.678690 0.955820 0.821860 -0.511976
O43   O     O_R   0.321310 0.955820 0.178140 -0.506817
O44   O     O_R   0.284750 0.540170 0.828860 -0.505257
O45   O     O_R   0.262920 0.788600 0.824420 -0.505420
O46   O     O_R   0.715250 0.540170 0.171140 -0.510731
O47   O     O_R   0.784750 0.040170 0.828860 -0.505259
O48   O     O_R   0.215250 0.040170 0.171140 -0.510726
O49   O     O_R   0.737080 0.788600 0.175580 -0.507896
O50   O     O_R   0.762920 0.288600 0.824420 -0.505418
O51   O     O_R   0.237080 0.288600 0.175580 -0.507896
O52   O     O_R   0.167530 0.905110 0.830340 -0.515272

loop_
_geom_bond_atom_site_label_1
_geom_bond_atom_site_label_2
_ccdc_geom_bond_type
C59   H5    S    
C65   O33   A    
C21   C26   A    
C38   C70   S    
C16   C90   A    
Cr8   O44   S    
C55   C59   D    
C43   C83   S    
Cr9   O10   S    
C19   C23   A    
C75   O4    A    
C42   C82   S    
Cr8   O9    S    
C64   C90   S    
Cr12  O5    S    
Cr7   O17   S    
Cr11  O51   S    
C73   O2    A    
C42   O28   A    
Cr9   O46   S    
C32   C72   S    
C46   C89   S    
C54   C60   D    
Cr1   O9    S    
Cr11  O13   S    
C44   O30   A    
C77   O6    A    
C60   H6    S    
Cr10  O25   S    
C28   C29   A    
C3    H62   S    
C52   H66   S    
C46   H14   S    
C79   C93   S    
Cr12  O27   S    
C86   C91   D    
C53   H67   S    
C79   C84   D    
C55   C77   S    
C23   Cl2   S    
C5    C17   A    
C20   C25   A    
C40   C49   D    
C100  H64   S    
Cr3   O3    S    
C41   O22   A    
C56   C78   S    
Cr5   O12   S    
C24   C86   S    
Cr1   O1    S    
Cr4   O13   S    
C68   H16   S    
C3    H63   S    
C70   O47   A    
C82   H24   S    
C76   O5    A    
C26   Cl4   S    
Cr3   O33   S    
Cr4   O35   S    
C3    C100  S    
C35   O21   A    
C24   O20   A    
C1    O14   A    
C63   O1    A    
C40   C67   S    
C99   H57   S    
C71   O48   A    
C75   O51   A    
Cr6   O23   S    
C36   C53   D    
Cr7   O34   S    
Cr8   O18   S    
C74   O50   A    
C58   C61   D    
C13   O15   A    
C11   H28   S    
C33   C73   S    
C73   O49   A    
C56   H13   S    
Cr10  O50   S    
C58   C80   S    
C85   H18   S    
C4    C18   A    
C61   C62   S    
C1    C88   S    
C7    C15   A    
C4    C22   A    
C41   C81   S    
C58   H11   S    
C96   H54   S    
C21   C22   A    
C50   H45   S    
C80   O8    A    
Cr12  O52   S    
C93   H34   S    
C94   C95   S    
Cr12  O31   S    
C36   H4    S    
C1    O18   A    
C94   H49   S    
Cr3   O11   S    
C64   O32   A    
C25   C29   A    
C81   H22   S    
C79   H17   S    
Cr10  O11   S    
C78   O7    A    
Cr6   O16   S    
C95   H44   S    
Cr9   O24   S    
C55   H9    S    
C48   C52   S    
C72   O45   A    
Cr2   O2    S    
Cr2   O10   S    
C91   H12   S    
C95   H46   S    
Cr10  O47   S    
C83   H25   S    
Cr5   O41   S    
C35   O17   A    
C39   C98   S    
C47   C51   S    
C12   C14   A    
C97   H51   S    
C48   H42   S    
C8    C18   A    
Cr8   O45   S    
C72   O52   A    
C41   O27   A    
C12   H29   S    
C7    C11   A    
C9    C14   A    
C40   C100  S    
C66   O35   A    
C2    C15   A    
C36   C75   S    
C95   H47   S    
C46   C81   D    
C98   H60   S    
Cr3   O29   S    
C84   H26   S    
C30   C31   A    
C8    C12   A    
Cr1   O36   S    
Cr2   O28   S    
C96   C97   S    
C13   C87   S    
C38   C47   D    
C17   C18   A    
C39   C69   S    
Cr5   O10   S    
C45   H40   S    
Cr7   O39   S    
C23   C28   A    
C42   O24   A    
C100  H65   S    
C32   C50   D    
Cr11  O48   S    
C78   O38   A    
C54   C76   S    
Cr12  O9    S    
C5    C65   S    
Cr1   O14   S    
C34   C74   S    
C28   H36   S    
C30   H38   S    
C96   H53   S    
C37   C71   S    
C27   C31   A    
Cr6   O42   S    
C56   C62   D    
Cr5   O15   S    
Cr2   O6    S    
C37   C45   D    
C43   O29   A    
C94   H48   S    
Cr5   O37   S    
C2    C63   S    
C29   H37   S    
C7    H32   S    
C47   H41   S    
C9    C17   A    
C34   H3    S    
C88   C93   D    
C51   H56   S    
Cr10  O20   S    
C85   C89   D    
C57   C91   S    
Cr11  O26   S    
C2    C19   A    
C68   C83   D    
C71   O43   A    
C87   H20   S    
C32   H68   S    
C57   H15   S    
C62   H8    S    
C70   O42   A    
C89   H1    S    
C44   C84   S    
C69   O41   A    
C6    C10   A    
Cr4   O4    S    
C31   H39   S    
C26   C30   A    
C65   O23   A    
C33   C51   D    
Cr1   O40   S    
Cr2   O32   S    
C14   H30   S    
C34   C52   D    
C61   H7    S    
C22   C27   A    
Cr7   O43   S    
C19   C20   A    
Cr11  O21   S    
C33   H2    S    
C3    H61   S    
Cr8   O22   S    
C66   O34   A    
C69   O46   A    
Cr7   O13   S    
C80   O39   A    
C4    C66   S    
C6    H31   S    
C54   H10   S    
C25   Cl1   S    
Cr9   O49   S    
C99   H58   S    
C20   C90   A    
C67   O44   A    
C76   O36   A    
C49   C53   S    
C15   C16   A    
C64   O12   A    
C27   Cl3   S    
C68   C92   S    
C37   C94   S    
C8    H33   S    
C44   O26   A    
C10   H27   S    
Cr9   O19   S    
C97   H52   S    
C67   O40   A    
C43   O25   A    
C88   H21   S    
C38   C96   S    
C10   C11   A    
C74   O3    A    
C6    C16   A    
C77   O37   A    
C35   C85   S    
C13   O19   A    
C86   H19   S    
C59   C60   S    
C5    C21   A    
C24   O16   A    
C9    H35   S    
C98   C99   S    
Cr3   O7    S    
Cr6   O11   S    
C57   C82   D    
Cr4   O8    S    
C45   C50   S    
C63   O31   A    
C87   C92   D    
C92   H23   S    
C49   H43   S    
Cr4   O30   S    
C97   H50   S    
C99   H55   S    
C98   H59   S    
C39   C48   D    
Cr6   O38   S    
