data_mof_unit_30894.cif
_audit_creation_date              2013-03-05T16:06:18-0500
_audit_creation_method            fapswitch 2.2
_symmetry_space_group_name_H-M    P1
_symmetry_Int_Tables_number       1
_space_group_crystal_system       triclinic
_cell_length_a                    10.726432
_cell_length_b                    9.775499
_cell_length_c                    27.784788
_cell_angle_alpha                 89.744868
_cell_angle_beta                  93.833815
_cell_angle_gamma                 90.507995
_cell_volume                      2906.75230167

loop_
_atom_site_label
_atom_site_type_symbol
_atom_site_description
_atom_site_fract_x
_atom_site_fract_y
_atom_site_fract_z
_atom_type_partial_charge
O1    O     O_R   0.319640 0.618740 0.500000 -0.592962
O2    O     O_R   0.680360 0.381260 0.500000 -0.580823
O3    O     O_R   0.680360 0.618740 0.500000 -0.593848
O4    O     O_R   0.319640 0.381260 0.500000 -0.582562
C1    C     C_R   0.262952 0.499936 0.499713 0.750008
C2    C     C_R   0.736962 0.500626 0.500079 0.762515
O5    O     O_R   0.500020 0.618770 0.430260 -0.570237
O6    O     O_R   0.499980 0.381230 0.569740 -0.589465
O7    O     O_R   0.499980 0.618770 0.569740 -0.581668
O8    O     O_R   0.500020 0.381230 0.430260 -0.595649
C3    C     C_R   0.495541 0.499760 0.408031 0.772644
C4    C     C_R   0.502953 0.499143 0.591983 0.776152
Cu1   Cu    Cu3+1 0.500000 0.640660 0.500000 0.916705
Cu2   Cu    Cu3+1 0.500000 0.359340 0.500000 0.917170
C5    C     C_R   0.380417 0.441490 0.173919 0.533334
C6    C     C_R   0.609517 0.453154 0.826395 0.535245
O9    O     O_2   0.280532 0.388348 0.194663 -0.558264
O10   O     O_2   0.713806 0.412606 0.806102 -0.560286
N1    N     N_R   0.484009 0.484827 0.201838 -0.452978
N2    N     N_R   0.503006 0.483463 0.798096 -0.453430
C7    C     C_R   0.589642 0.527410 0.180293 0.538616
C8    C     C_R   0.393649 0.511610 0.819226 0.536659
C9    C     C_R   0.586458 0.437825 0.282744 -0.099460
C10   C     C_R   0.408320 0.425601 0.716679 -0.101299
C11   C     C_R   0.590135 0.448208 0.332664 -0.250376
C12   C     C_R   0.407221 0.434934 0.666667 -0.262875
C13   C     C_R   0.375791 0.530834 0.327593 0.084571
C14   C     C_R   0.614125 0.539425 0.673352 0.107210
C15   C     C_R   0.377970 0.531745 0.277035 -0.109027
C16   C     C_R   0.607329 0.544820 0.723535 -0.123845
C17   C     C_R   0.482845 0.485346 0.254057 0.280872
C18   C     C_R   0.505753 0.485671 0.745934 0.291957
C19   C     C_R   0.488338 0.483230 0.101339 -0.047387
C20   C     C_R   0.497812 0.481516 0.898569 -0.047906
C21   C     C_R   0.377989 0.449568 0.123376 -0.013144
C22   C     C_R   0.610734 0.461696 0.876841 -0.013403
C23   C     C_R   0.268383 0.422899 0.094530 -0.145842
C24   C     C_R   0.721957 0.449237 0.905886 -0.145946
C25   C     C_R   0.596413 0.517782 0.130167 -0.017385
C26   C     C_R   0.387370 0.501551 0.869436 -0.016783
C27   C     C_R   0.487143 0.497350 0.355350 -0.062461
C28   C     C_R   0.507878 0.494939 0.644660 -0.046682
H1    H     H_    0.296809 0.566100 0.255389 0.181542
H2    H     H_    0.684069 0.590994 0.745144 0.171352
H3    H     H_    0.182139 0.395845 0.110551 0.183533
H4    H     H_    0.810239 0.432859 0.890096 0.182278
C29   C     C_R   0.379128 0.482033 0.970889 0.042421
C30   C     C_R   0.606130 0.497234 0.028930 0.042195
C31   C     C_R   0.609193 0.480735 0.978409 0.043765
C32   C     C_R   0.377509 0.466678 0.021586 0.043298
C33   C     C_R   0.495354 0.481350 0.949442 0.070574
C34   C     C_R   0.490658 0.482344 0.050464 0.070792
C35   C     C_R   0.268949 0.499888 0.940841 -0.208185
C36   C     C_R   0.714048 0.529961 0.058692 -0.208684
C37   C     C_R   0.273615 0.513097 0.891048 -0.142048
C38   C     C_R   0.708321 0.543595 0.108355 -0.142366
O11   O     O_2   0.291306 0.551311 0.792033 -0.553333
O12   O     O_2   0.687763 0.580818 0.207025 -0.552185
C39   C     C_R   0.267186 0.434871 0.044510 -0.209941
C40   C     C_R   0.721835 0.462215 0.955775 -0.209520
H5    H     H_    0.328342 0.393095 0.644948 0.153511
H6    H     H_    0.673113 0.415310 0.353847 0.146316
H7    H     H_    0.331982 0.372586 0.732502 0.172853
H8    H     H_    0.665730 0.393956 0.266460 0.171467
H9    H     H_    0.187105 0.529375 0.869457 0.186295
H10   H     H_    0.792885 0.571310 0.129719 0.185986
H11   H     H_    0.178458 0.509876 0.955229 0.138566
H12   H     H_    0.803022 0.551269 0.044125 0.140322
H13   H     H_    0.179758 0.413152 0.024356 0.138806
H14   H     H_    0.810611 0.451806 0.976107 0.137396
C41   C     C_R   0.057539 0.424913 0.465194 -0.204799
C42   C     C_R   0.941804 0.584786 0.532260 -0.194878
C43   C     C_R   0.928486 0.423077 0.465799 -0.174228
C44   C     C_R   0.071109 0.583487 0.532451 -0.169624
H15   H     H_    0.101857 0.370023 0.437427 0.136103
H16   H     H_    0.897294 0.647695 0.558028 0.122639
H17   H     H_    0.873470 0.362657 0.439413 0.131522
H18   H     H_    0.126165 0.645153 0.558447 0.141548
C45   C     C_R   0.870962 0.502329 0.499565 0.006572
C46   C     C_R   0.128713 0.501295 0.499482 -0.001956
C47   C     C_R   0.417626 0.073277 0.469676 0.226770
C48   C     C_R   0.575435 0.927379 0.532920 0.215437
C49   C     C_R   0.583664 0.074608 0.529955 0.210196
C50   C     C_R   0.426236 0.926453 0.466668 0.195050
N3    N     N_R   0.500000 0.852070 0.500000 -0.213266
N4    N     N_R   0.500000 0.147930 0.500000 -0.218379
C51   C     C_3   0.251399 0.543952 0.350575 -0.413743
C52   C     C_3   0.170242 0.662426 0.330966 -0.820661
H19   H     H_    0.224391 0.758940 0.329356 0.253928
H20   H     H_    0.127937 0.638456 0.294403 0.258653
H21   H     H_    0.092760 0.678227 0.354894 0.246511
H22   H     H_    0.197861 0.447246 0.343996 0.210303
H23   H     H_    0.264599 0.554652 0.390248 0.179081
C53   C     C_3   0.738801 0.568225 0.652495 -0.449643
C54   C     C_3   0.831755 0.454564 0.665757 -0.779460
H24   H     H_    0.851229 0.448493 0.705469 0.279626
H25   H     H_    0.794123 0.354577 0.652250 0.245179
H26   H     H_    0.920960 0.475944 0.648913 0.237027
H27   H     H_    0.729820 0.574126 0.612702 0.186581
H28   H     H_    0.778097 0.667114 0.666247 0.207545
C55   C     C_3   0.312374 0.142369 0.439366 -0.342699
C56   C     C_3   0.185701 0.110170 0.459730 -0.875772
H29   H     H_    0.175407 0.168680 0.493323 0.279970
H30   H     H_    0.108805 0.136761 0.432715 0.236269
H31   H     H_    0.175177 0.000172 0.468715 0.243281
H32   H     H_    0.322901 0.252143 0.435228 0.248808
H33   H     H_    0.311357 0.111447 0.401100 0.168644
C57   C     C_3   0.644621 0.858310 0.575621 -0.352754
C58   C     C_3   0.571651 0.874120 0.621022 -0.809830
H34   H     H_    0.556898 0.983373 0.629334 0.231976
H35   H     H_    0.477945 0.825434 0.616323 0.276158
H36   H     H_    0.623731 0.828111 0.652665 0.234177
H37   H     H_    0.666342 0.752718 0.568220 0.239116
H38   H     H_    0.740479 0.898148 0.583029 0.163938
C59   C     C_3   0.690947 0.146974 0.558928 -0.341776
C60   C     C_3   0.813749 0.135298 0.533980 -0.826112
H39   H     H_    0.800415 0.164321 0.495346 0.269649
H40   H     H_    0.885503 0.203938 0.551929 0.246195
H41   H     H_    0.849851 0.029428 0.535674 0.229145
H42   H     H_    0.672762 0.253633 0.566258 0.253670
H43   H     H_    0.704841 0.108955 0.596370 0.169253
C61   C     C_3   0.366275 0.857378 0.422025 -0.339814
C62   C     C_3   0.454876 0.869470 0.380920 -0.780102
H44   H     H_    0.456008 0.975593 0.366644 0.223397
H45   H     H_    0.552184 0.843329 0.393604 0.269345
H46   H     H_    0.425378 0.800456 0.350859 0.250492
H47   H     H_    0.336343 0.753064 0.429565 0.246817
H48   H     H_    0.274677 0.899246 0.409328 0.174250

loop_
_geom_bond_atom_site_label_1
_geom_bond_atom_site_label_2
_geom_bond_distance
_ccdc_geom_bond_type
C55   H33   1.105973 S    
C41   H15   1.079980 S    
C51   C52   1.531272 S    
C55   C56   1.535916 S    
C59   H43   1.104274 S    
C13   C15   1.406495 A    
C54   H24   1.110617 S    
C42   H16   1.083304 S    
O3    C2    1.309200 A    
N1    C17   1.451806 S    
C8    O11   1.349315 S    
C54   H26   1.110734 S    
C62   H44   1.109242 S    
C47   C55   1.523589 S    
C57   C58   1.537428 S    
C19   C34   1.415507 A    
C30   C36   1.412067 A    
C20   C33   1.415518 A    
C19   C25   1.403857 A    
C31   C40   1.412307 A    
C20   C26   1.404067 A    
C32   C39   1.412536 A    
N1    C7    1.376816 A    
C12   H5    1.084015 S    
C10   C12   1.391438 A    
C42   C45   1.398471 A    
C58   H35   1.108319 S    
C62   H45   1.110716 S    
C36   H12   1.079555 S    
C50   C61   1.516994 S    
C59   C60   1.534294 S    
C60   H39   1.109366 S    
C56   H31   1.109295 S    
C14   C53   1.516257 S    
C57   H38   1.102969 S    
C61   H47   1.089989 S    
O7    Cu1   1.948558 S    
C4    C28   1.461435 S    
C5    N1    1.376671 A    
C31   C33   1.416860 A    
C32   C34   1.416972 A    
C40   H14   1.079594 S    
C47   N4    1.384785 A    
O3    Cu1   1.948337 S    
C6    N2    1.376630 A    
C29   C35   1.412317 A    
C44   C46   1.399096 A    
Cu1   Cu2   2.750043 S    
C15   H1    1.079698 S    
O4    Cu2   1.948337 S    
C16   H2    1.082379 S    
O2    C2    1.310519 A    
O2    Cu2   1.944561 S    
C5    C21   1.404725 A    
C41   C46   1.395333 A    
C37   H9    1.083329 S    
C29   C32   1.417162 A    
C35   C37   1.393111 A    
C36   C38   1.392381 A    
C49   C59   1.529537 S    
C50   N3    1.385159 A    
Cu2   N4    2.066639 S    
C42   C44   1.386807 A    
O8    Cu2   1.948557 S    
C58   H36   1.105700 S    
C11   C27   1.397769 A    
C41   C43   1.385461 A    
C62   H46   1.103965 S    
C29   C33   1.417357 A    
C9    C17   1.404892 A    
C57   H37   1.083789 S    
O5    C3    1.318577 A    
C10   C18   1.406259 A    
C13   C27   1.417753 A    
C25   C38   1.400856 A    
C7    C25   1.403089 A    
C52   H21   1.110702 S    
C53   H28   1.110261 S    
O6    C4    1.309444 A    
C26   C37   1.401139 A    
C8    C26   1.404151 A    
C43   C45   1.397681 A    
C53   C54   1.526863 S    
C1    C46   1.439662 S    
C56   H30   1.109322 S    
C23   C39   1.393391 A    
C39   H13   1.079541 S    
C24   C40   1.392622 A    
C9    H8    1.082258 S    
C52   H20   1.109702 S    
C59   H42   1.085100 S    
C10   H7    1.082108 S    
C48   C57   1.515998 S    
O1    C1    1.305943 A    
O1    Cu1   1.944561 S    
C23   H3    1.083322 S    
C47   C50   1.442221 A    
C51   H22   1.111203 S    
C12   C28   1.399119 A    
N2    C18   1.451622 S    
C55   H32   1.084435 S    
C5    O9    1.349079 S    
C30   C31   1.416268 A    
O6    Cu2   1.950452 S    
C14   C28   1.412891 A    
C21   C23   1.401070 A    
N2    C8    1.376810 A    
O4    C1    1.314329 A    
C54   H25   1.111364 S    
C48   N3    1.389168 A    
C60   H41   1.107924 S    
C22   C24   1.400846 A    
C7    O12   1.349508 S    
C15   C17   1.409417 A    
C58   H34   1.108642 S    
C13   C51   1.523883 S    
C16   C18   1.408931 A    
C2    C45   1.438323 S    
C53   H27   1.104691 S    
C38   H10   1.083331 S    
C51   H23   1.107222 S    
C14   C16   1.402340 A    
C19   C21   1.404425 A    
C60   H40   1.110766 S    
C3    C27   1.460775 S    
C20   C22   1.404324 A    
C11   H6    1.084146 S    
C9    C11   1.389065 A    
C61   H48   1.103089 S    
C56   H29   1.109139 S    
C35   H11   1.079546 S    
O7    C4    1.319884 A    
C24   H4    1.083367 S    
O8    C3    1.310334 A    
O5    Cu1   1.950452 S    
C49   N4    1.384929 A    
C52   H19   1.105843 S    
C6    O10   1.349291 S    
C48   C49   1.443487 A    
C44   H18   1.083696 S    
Cu1   N3    2.066638 S    
C43   H17   1.083684 S    
C61   C62   1.537385 S    
C30   C34   1.417189 A    
C6    C22   1.403656 A    
