data_mof_unit_44535.cif
_audit_creation_date              2012-12-11T15:42:42-0500
_audit_creation_method            fapswitch 2.2
_symmetry_space_group_name_H-M    P1
_symmetry_Int_Tables_number       1
_space_group_crystal_system       triclinic
_cell_length_a                    6.931535
_cell_length_b                    14.557828
_cell_length_c                    16.194475
_cell_angle_alpha                 90.428465
_cell_angle_beta                  89.974417
_cell_angle_gamma                 90.037936
_cell_volume                      1634.10740039

loop_
_atom_site_label
_atom_site_type_symbol
_atom_type_description
_atom_site_fract_x
_atom_site_fract_y
_atom_site_fract_z
_atom_type_partial_charge
O1    O     O_R   0.505810 0.583360 0.413880 -0.540693
O2    O     O_R   0.175870 0.595480 0.585520 -0.543423
O3    O     O_R   0.005540 0.416640 0.586120 -0.541103
C1    C     C_R   0.344940 0.617650 0.614659 0.687109
O4    O     O_R   0.176100 0.594390 0.414490 -0.543445
O5    O     O_R   0.005770 0.415540 0.413870 -0.541251
C2    C     C_R   0.345233 0.616474 0.385727 0.686428
O6    O     O_R   0.505580 0.584460 0.586130 -0.540734
O7    O     O_3   0.339190 0.441320 0.500000 -0.369075
V1    V     V_3+5 0.064350 0.510890 0.500000 1.399811
O8    O     O_R   0.676050 0.404520 0.414480 -0.544236
C3    C     C_R   0.845119 0.382081 0.385721 0.685082
O9    O     O_R   0.675830 0.405610 0.585510 -0.539840
C4    C     C_R   0.845040 0.383664 0.613723 0.747003
V2    V     V_3+5 0.564340 0.489110 0.500000 1.403044
O10   O     O_3   0.839370 0.558680 0.500000 -0.371737
C5    C     C_2   0.720500 0.208876 0.786043 -0.129061
C6    C     C_2   0.885783 0.181800 0.822555 -0.311591
H1    H     H_    0.584474 0.180154 0.806940 0.136938
H2    H     H_    0.023504 0.209828 0.803772 0.127764
C7    C     C_2   0.708070 0.277337 0.718113 -0.134556
C8    C     C_2   0.861594 0.315446 0.680508 -0.309212
H3    H     H_    0.563948 0.296321 0.698256 0.134955
H4    H     H_    0.006861 0.297141 0.698494 0.129473
C9    C     C_R   0.047419 0.222960 0.219416 -0.156731
H5    H     H_    0.188254 0.204366 0.195695 0.116861
C10   C     C_R   0.036141 0.286950 0.284215 -0.151163
H6    H     H_    0.168870 0.315848 0.308252 0.118964
C11   C     C_R   0.856403 0.313310 0.317343 -0.045506
C12   C     C_R   0.688258 0.273923 0.283805 -0.156566
H7    H     H_    0.547424 0.292518 0.307527 0.116793
C13   C     C_R   0.699535 0.209932 0.219006 -0.150948
H8    H     H_    0.566807 0.181034 0.194968 0.118973
C14   C     C_R   0.879274 0.183572 0.185878 -0.045558
C15   C     C_R   0.188303 0.723586 0.718985 -0.155914
H9    H     H_    0.047428 0.705461 0.695014 0.116177
C16   C     C_R   0.199664 0.785786 0.785327 -0.150045
H10   H     H_    0.066935 0.813898 0.810079 0.118411
C17   C     C_R   0.379381 0.811486 0.819026 -0.047932
C18   C     C_R   0.547399 0.773154 0.784342 -0.155554
H11   H     H_    0.688274 0.791284 0.808309 0.116163
C19   C     C_R   0.536037 0.710951 0.718002 -0.149650
H12   H     H_    0.668766 0.682842 0.693247 0.118353
C20   C     C_R   0.356321 0.685256 0.684299 -0.048074
C21   C     C_R   0.188465 0.723245 0.283836 -0.155779
H13   H     H_    0.047633 0.704922 0.307538 0.116640
C22   C     C_R   0.199698 0.786358 0.219095 -0.150539
H14   H     H_    0.066955 0.814831 0.195128 0.118758
C23   C     C_R   0.379362 0.812406 0.185925 -0.047050
C24   C     C_R   0.547473 0.773531 0.219440 -0.155771
H15   H     H_    0.688299 0.791859 0.195735 0.116614
C25   C     C_R   0.536239 0.710415 0.284183 -0.150576
H16   H     H_    0.668975 0.681939 0.308155 0.118665
C26   C     C_R   0.356571 0.684370 0.317353 -0.047107
O11   O     O_R   0.230120 0.912300 0.917180 -0.540764
O12   O     O_R   0.559740 0.902430 0.088770 -0.543439
O13   O     O_R   0.729930 0.081310 0.089370 -0.541121
C27   C     C_R   0.390642 0.880310 0.117556 0.686780
O14   O     O_R   0.559840 0.901330 0.917750 -0.543480
O15   O     O_R   0.730030 0.080210 0.917120 -0.536976
C28   C     C_R   0.390764 0.879121 0.888643 0.686620
O16   O     O_R   0.230020 0.913400 0.089430 -0.540688
O17   O     O_3   0.396460 0.055470 0.003290 -0.369205
V3    V     V_3+5 0.671360 0.985960 0.003250 1.401465
O18   O     O_R   0.059740 0.091300 0.917690 -0.544416
C29   C     C_R   0.891040 0.113235 0.889463 0.746723
O19   O     O_R   0.059640 0.092400 0.088720 -0.544254
C30   C     C_R   0.890570 0.114801 0.117500 0.685337
V4    V     V_3+5 0.171350 0.007820 0.003190 1.400468
O20   O     O_3   0.896380 0.938200 0.003220 -0.371605

loop_
_geom_bond_atom_site_label_1
_geom_bond_atom_site_label_2
_ccdc_geom_bond_type
O5    V1    S    
C24   C25   A    
O8    C3    A    
O12   V3    S    
C27   O16   A    
C11   C12   A    
O1    V2    S    
V3    O20   S    
C3    C11   S    
C10   C11   A    
O7    V1    S    
O2    C1    A    
C15   H9    S    
C2    C26   S    
O15   V3    S    
C9    C14   A    
C1    O6    A    
C13   H8    S    
C4    C8    S    
C18   C19   A    
C5    C6    D    
O7    V2    S    
O15   C29   A    
O4    V1    S    
C16   C17   A    
O3    V1    S    
V1    O10   S    
C21   H13   S    
C12   C13   A    
C15   C20   A    
C12   H7    S    
O14   V3    S    
O11   V4    S    
O3    C4    A    
C19   C20   A    
O18   V4    S    
O11   C28   A    
C18   H11   S    
C5    H1    S    
C16   H10   S    
O12   C27   A    
C21   C26   A    
C23   C24   A    
O6    V2    S    
C6    H2    S    
O9    V2    S    
C7    H3    S    
O5    C3    A    
V4    O20   S    
C17   C28   S    
C8    H4    S    
O14   C28   A    
C9    C10   A    
C19   H12   S    
O13   C30   A    
V2    O10   S    
O2    V1    S    
C22   H14   S    
O17   V4    S    
C10   H6    S    
C25   H16   S    
C15   C16   A    
O13   V3    S    
C22   C23   A    
O18   C29   A    
C21   C22   A    
C14   C30   S    
C17   C18   A    
O4    C2    A    
C6    C29   S    
O1    C2    A    
C1    C20   S    
O9    C4    A    
C24   H15   S    
C9    H5    S    
C7    C8    D    
O8    V2    S    
C5    C7    S    
C23   C27   S    
O19   C30   A    
O16   V4    S    
C25   C26   A    
O17   V3    S    
O19   V4    S    
C13   C14   A    
