data_mof_unit_42020.cif
_audit_creation_date              2012-12-10T20:07:05-0500
_audit_creation_method            fapswitch 2.2
_symmetry_space_group_name_H-M    P1
_symmetry_Int_Tables_number       1
_space_group_crystal_system       triclinic
_cell_length_a                    19.272826
_cell_length_b                    18.351158
_cell_length_c                    10.62221
_cell_angle_alpha                 89.729658
_cell_angle_beta                  90.124979
_cell_angle_gamma                 89.774352
_cell_volume                      3756.76911448

loop_
_atom_site_label
_atom_site_type_symbol
_atom_type_description
_atom_site_fract_x
_atom_site_fract_y
_atom_site_fract_z
_atom_type_partial_charge
C1    C     C_R   0.365605 0.500181 0.500531 0.925239
C2    C     C_R   0.928375 0.502386 0.508108 0.176967
C3    C     C_R   0.552378 0.725388 0.558114 -0.009891
C4    C     C_R   0.446875 0.274876 0.443602 -0.011184
C5    C     C_R   0.447884 0.725929 0.440618 -0.020673
C6    C     C_R   0.552591 0.273798 0.557400 -0.018545
C7    C     C_R   0.554254 0.802288 0.559844 0.074298
C8    C     C_R   0.444504 0.197991 0.442180 0.074044
C9    C     C_R   0.446242 0.802852 0.437301 0.072147
C10   C     C_R   0.554019 0.196846 0.560195 0.074795
C11   C     C_R   0.499973 0.841484 0.499154 -0.045061
C12   C     C_R   0.634414 0.499898 0.500823 0.927520
C13   C     C_R   0.499189 0.158500 0.501032 -0.047182
C14   C     C_R   0.467634 0.961303 0.597852 -0.196107
C15   C     C_R   0.531095 0.038662 0.402139 -0.198948
C16   C     C_R   0.531383 0.962201 0.401741 -0.203289
C17   C     C_R   0.467420 0.037784 0.598329 -0.201352
C18   C     C_R   0.499156 0.077063 0.500466 0.115503
C19   C     C_R   0.499662 0.922915 0.499597 0.115416
C20   C     C_R   0.489217 0.500254 0.260038 0.894655
C21   C     C_R   0.511260 0.499734 0.739664 0.892059
C22   C     C_R   0.465977 0.635469 0.108096 -0.120208
C23   C     C_R   0.709449 0.499901 0.504572 -0.155692
C24   C     C_R   0.535857 0.364631 0.891107 -0.117829
C25   C     C_R   0.543485 0.632311 0.888318 -0.118080
C26   C     C_R   0.458336 0.367382 0.110926 -0.118863
C27   C     C_R   0.486209 0.700594 0.051107 -0.155101
C28   C     C_R   0.515938 0.299396 0.948036 -0.153936
C29   C     C_R   0.527253 0.698936 0.943694 -0.152602
C30   C     C_R   0.474838 0.300843 0.055430 -0.153427
C31   C     C_R   0.518448 0.566177 0.939942 0.089654
C32   C     C_R   0.483209 0.433679 0.059546 0.088849
C33   C     C_R   0.487119 0.567416 0.058380 0.089361
C34   C     C_R   0.290572 0.501105 0.501991 -0.152568
C35   C     C_R   0.514534 0.432546 0.941087 0.090055
C36   C     C_R   0.522625 0.499163 0.875547 -0.266954
C37   C     C_R   0.478712 0.500769 0.123900 -0.267271
C38   C     C_R   0.746362 0.438321 0.465597 -0.310432
C39   C     C_R   0.255806 0.563099 0.545436 -0.331502
C40   C     C_R   0.253693 0.440632 0.459731 -0.298559
C41   C     C_R   0.744336 0.561652 0.547741 -0.315801
C42   C     C_R   0.818566 0.437756 0.470947 0.459745
C43   C     C_R   0.183196 0.566507 0.543037 0.459311
C44   C     C_R   0.181733 0.441526 0.461804 0.428929
C45   C     C_R   0.963247 0.495938 0.393364 -0.174731
C46   C     C_R   0.816514 0.563463 0.547315 0.462115
C47   C     C_R   0.853282 0.501061 0.509555 -0.122351
C48   C     C_R   0.146806 0.504546 0.502728 -0.114683
C49   C     C_3   0.848600 0.318647 0.513528 0.089421
C50   C     C_3   0.897215 0.326592 0.627146 -0.360754
C51   C     C_3   0.895949 0.258580 0.710226 -0.962453
C52   C     C_3   0.175451 0.694242 0.556473 0.091267
C53   C     C_3   0.205369 0.729689 0.675054 -0.338193
C54   C     C_3   0.246525 0.798204 0.643416 -0.976888
C55   C     C_3   0.137020 0.331926 0.517923 0.080236
C56   C     C_R   0.036770 0.511413 0.619109 -0.165562
C57   C     C_3   0.091759 0.269010 0.473014 -0.307062
C58   C     C_3   0.079653 0.213558 0.578093 -0.987622
C59   C     C_3   0.844112 0.683671 0.510157 0.084700
C60   C     C_3   0.898696 0.680556 0.405544 -0.346037
C61   C     C_3   0.897454 0.749678 0.325225 -0.961799
C62   C     C_3   0.612649 0.843780 0.624342 -0.392680
C63   C     C_3   0.671141 0.797161 0.680445 -0.924579
C64   C     C_3   0.385245 0.156816 0.379692 -0.395476
C65   C     C_3   0.327094 0.203801 0.323316 -0.916039
C66   C     C_3   0.388775 0.844997 0.369721 -0.392718
C67   C     C_R   0.035020 0.497534 0.391393 -0.148011
C68   C     C_3   0.335685 0.799103 0.298252 -0.935628
C69   C     C_3   0.612300 0.154359 0.624733 -0.385329
C70   C     C_3   0.669176 0.200109 0.686103 -0.935872
C71   C     C_R   0.964946 0.510288 0.620975 -0.165944
C72   C     C_R   0.071641 0.505131 0.504282 0.179683
H1    H     H_    0.456967 0.250420 0.097302 0.136807
H2    H     H_    0.285566 0.608164 0.581972 0.174451
H3    H     H_    0.280482 0.392746 0.425023 0.167893
H4    H     H_    0.715714 0.608467 0.581996 0.162751
H5    H     H_    0.934789 0.490251 0.305903 0.153723
H6    H     H_    0.065236 0.516480 0.706678 0.153202
H7    H     H_    0.062079 0.492777 0.302496 0.154827
H8    H     H_    0.937841 0.514771 0.709865 0.153730
H9    H     H_    0.592447 0.693163 0.602685 0.140600
H10   H     H_    0.406575 0.307307 0.400160 0.142324
H11   H     H_    0.407871 0.694117 0.396164 0.145870
H12   H     H_    0.545202 0.749278 0.901682 0.137120
H13   H     H_    0.593120 0.305422 0.600722 0.145091
H14   H     H_    0.442883 0.931945 0.674071 0.135601
H15   H     H_    0.555833 0.068004 0.325895 0.135430
H16   H     H_    0.556317 0.933542 0.325172 0.135669
H17   H     H_    0.442554 0.066451 0.674958 0.134896
H18   H     H_    0.863210 0.268378 0.461921 0.170372
H19   H     H_    0.794145 0.310756 0.545481 0.118953
H20   H     H_    0.951070 0.336071 0.593923 0.238764
H21   H     H_    0.880840 0.374139 0.684381 0.210248
H22   H     H_    0.842619 0.248770 0.745843 0.269131
H23   H     H_    0.531250 0.247816 0.907337 0.136869
H24   H     H_    0.931232 0.266144 0.791857 0.266645
H25   H     H_    0.913672 0.210294 0.656241 0.267054
H26   H     H_    0.133283 0.730004 0.519873 0.158960
H27   H     H_    0.214504 0.691607 0.479345 0.120259
H28   H     H_    0.162111 0.744218 0.739394 0.226142
H29   H     H_    0.239871 0.690738 0.725654 0.223960
H30   H     H_    0.293494 0.783705 0.588548 0.273149
H31   H     H_    0.263331 0.825048 0.731769 0.266399
H32   H     H_    0.214128 0.837146 0.588320 0.266806
H33   H     H_    0.110986 0.358263 0.599773 0.134986
H34   H     H_    0.471146 0.752280 0.091645 0.136968
H35   H     H_    0.188363 0.309728 0.548194 0.138775
H36   H     H_    0.040880 0.290726 0.440206 0.235025
H37   H     H_    0.117451 0.241418 0.392556 0.226625
H38   H     H_    0.129762 0.189309 0.609241 0.267358
H39   H     H_    0.045631 0.169320 0.543141 0.267630
H40   H     H_    0.054001 0.239983 0.659624 0.272321
H41   H     H_    0.852551 0.733908 0.566013 0.171216
H42   H     H_    0.791108 0.688711 0.468727 0.121580
H43   H     H_    0.951132 0.673769 0.447974 0.246935
H44   H     H_    0.888280 0.633102 0.343887 0.210718
H45   H     H_    0.432888 0.638725 0.189930 0.136795
H46   H     H_    0.845662 0.757020 0.280729 0.266682
H47   H     H_    0.937087 0.745413 0.249876 0.267962
H48   H     H_    0.909400 0.797995 0.383911 0.263035
H49   H     H_    0.651023 0.761239 0.756312 0.252957
H50   H     H_    0.696272 0.763925 0.606102 0.253008
H51   H     H_    0.711093 0.833276 0.722079 0.260060
H52   H     H_    0.636414 0.881480 0.554675 0.218417
H53   H     H_    0.590105 0.877248 0.701106 0.211903
H54   H     H_    0.302409 0.237679 0.397318 0.259448
H55   H     H_    0.347461 0.239102 0.246762 0.251353
H56   H     H_    0.568748 0.361604 0.808941 0.136033
H57   H     H_    0.286698 0.167919 0.282490 0.259983
H58   H     H_    0.406964 0.122471 0.303300 0.212628
H59   H     H_    0.361410 0.119964 0.450621 0.218751
H60   H     H_    0.361691 0.766120 0.224661 0.254666
H61   H     H_    0.306986 0.762888 0.363646 0.254137
H62   H     H_    0.297493 0.835722 0.251350 0.261295
H63   H     H_    0.360472 0.878575 0.439820 0.219404
H64   H     H_    0.412915 0.882651 0.300429 0.216048
H65   H     H_    0.695532 0.234339 0.614414 0.253310
H66   H     H_    0.647091 0.234945 0.761401 0.254728
H67   H     H_    0.576163 0.632695 0.805686 0.132179
H68   H     H_    0.708562 0.163420 0.729456 0.260109
H69   H     H_    0.589366 0.119096 0.698984 0.212770
H70   H     H_    0.637380 0.118353 0.554209 0.217090
H71   H     H_    0.425499 0.366727 0.193355 0.133394
H72   H     H_    0.719340 0.390982 0.430035 0.173660
N1    N     N_R   0.500000 0.689440 0.500000 -0.128779
N2    N     N_R   0.500000 0.310560 0.500000 -0.129350
O1    O     O_R   0.398180 0.560840 0.499970 -0.633760
O2    O     O_3   0.145583 0.626105 0.587867 -0.645799
O3    O     O_3   0.145379 0.381996 0.417908 -0.641199
O4    O     O_3   0.851661 0.623568 0.593232 -0.642227
O5    O     O_R   0.601820 0.439160 0.500030 -0.634065
O6    O     O_R   0.601820 0.560840 0.500030 -0.631584
O7    O     O_R   0.398180 0.439160 0.499970 -0.632778
O8    O     O_R   0.499990 0.560810 0.316770 -0.613103
O9    O     O_R   0.500010 0.439190 0.683230 -0.613419
O10   O     O_R   0.500010 0.560810 0.683230 -0.613850
O11   O     O_R   0.499990 0.439190 0.316770 -0.612946
O12   O     O_3   0.856001 0.377966 0.428969 -0.644588
Zn1   Zn    Zn3+2 0.500000 0.581210 0.500000 0.933450
Zn2   Zn    Zn3+2 0.500000 0.418790 0.500000 0.933859

loop_
_geom_bond_atom_site_label_1
_geom_bond_atom_site_label_2
_ccdc_geom_bond_type
C25   C31   A    
C15   C18   A    
C66   C68   S    
C51   H25   S    
C8    C13   A    
C61   H47   S    
C12   O6    A    
C35   C36   A    
C12   O5    A    
C49   H18   S    
C4    C8    A    
O1    Zn1   S    
C62   H52   S    
C21   C36   S    
C53   C54   S    
C70   H68   S    
C12   C23   S    
C11   C19   S    
C6    H13   S    
C20   O8    A    
C13   C18   S    
C55   H33   S    
C28   H23   S    
C34   C40   A    
C65   H55   S    
C54   H32   S    
C68   H61   S    
C25   H67   S    
C48   C72   S    
C38   C42   A    
C3    C7    A    
C59   H42   S    
N1    Zn1   S    
O5    Zn2   S    
N2    Zn2   S    
C69   H69   S    
C15   C16   A    
C56   H6    S    
C27   C29   A    
C67   C72   A    
C39   H2    S    
C52   H26   S    
C68   H60   S    
C9    C66   S    
C43   O2    S    
C57   H37   S    
C53   H29   S    
C56   C72   A    
C45   C67   A    
C41   C46   A    
C31   C33   A    
C5    H11   S    
C43   C48   A    
C51   H24   S    
O9    Zn2   S    
O6    Zn1   S    
C59   C60   S    
C52   O2    S    
C61   H48   S    
C14   C17   A    
C42   O12   S    
C49   H19   S    
C71   H8    S    
C63   H49   S    
C1    C34   S    
C55   O3    S    
C2    C45   A    
C25   C29   A    
C16   H16   S    
C24   C35   A    
C5    N1    A    
C34   C39   A    
C32   C35   A    
C54   H31   S    
C17   H17   S    
C14   H14   S    
C29   H12   S    
C30   H1    S    
C26   C32   A    
C39   C43   A    
C27   H34   S    
C50   C51   S    
C69   H70   S    
C33   C37   A    
C58   H39   S    
C55   H35   S    
C60   C61   S    
C7    C11   A    
C7    C62   S    
C5    C9    A    
C62   C63   S    
C63   H51   S    
C64   H59   S    
C59   H41   S    
C56   C71   A    
C4    N2    A    
C17   C18   A    
C21   O9    A    
C67   H7    S    
C32   C37   A    
C1    O7    A    
C9    C11   A    
C2    C71   A    
C8    C64   S    
C66   H64   S    
C50   H20   S    
C46   O4    S    
C64   H58   S    
C3    N1    A    
O11   Zn2   S    
C20   O11   A    
C55   C57   S    
C58   H40   S    
C49   O12   S    
C60   H44   S    
C26   H71   S    
C63   H50   S    
C52   C53   S    
C15   H15   S    
C53   H28   S    
C59   O4    S    
C22   C33   A    
C46   C47   A    
C61   H46   S    
C58   H38   S    
C38   H72   S    
C14   C19   A    
C54   H30   S    
O10   Zn1   S    
C3    H9    S    
C24   C28   A    
C10   C13   A    
C6    C10   A    
C62   H53   S    
C65   H57   S    
C50   H21   S    
C26   C30   A    
C2    C47   S    
C23   C38   A    
C52   H27   S    
C44   O3    S    
C23   C41   A    
C40   H3    S    
C22   C27   A    
C65   H54   S    
O7    Zn2   S    
C68   H62   S    
O8    Zn1   S    
C64   C65   S    
C41   H4    S    
C20   C37   S    
C70   H66   S    
C57   C58   S    
C16   C19   A    
C6    N2    A    
C28   C30   A    
C21   O10   A    
C42   C47   A    
C69   C70   S    
C1    O1    A    
C51   H22   S    
C66   H63   S    
C10   C69   S    
C40   C44   A    
C57   H36   S    
C4    H10   S    
C70   H65   S    
C49   C50   S    
C24   H56   S    
C31   C36   A    
C60   H43   S    
C45   H5    S    
C22   H45   S    
C44   C48   A    
