data_mof_unit_48952.cif
_audit_creation_date              2013-03-05T16:35:28-0500
_audit_creation_method            fapswitch 2.2
_symmetry_space_group_name_H-M    P1
_symmetry_Int_Tables_number       1
_space_group_crystal_system       triclinic
_cell_length_a                    10.697189
_cell_length_b                    15.005344
_cell_length_c                    14.14847
_cell_angle_alpha                 89.881164
_cell_angle_beta                  90.614916
_cell_angle_gamma                 90.261477
_cell_volume                      2270.88257729

loop_
_atom_site_label
_atom_site_type_symbol
_atom_site_description
_atom_site_fract_x
_atom_site_fract_y
_atom_site_fract_z
_atom_type_partial_charge
O1    O     O_R   0.500010 0.369070 0.579480 -0.607326
O2    O     O_R   0.499990 0.630930 0.420520 -0.604905
O3    O     O_R   0.500010 0.369060 0.420520 -0.617761
O4    O     O_R   0.499990 0.630940 0.579480 -0.629826
C1    C     C_R   0.493196 0.327603 0.500175 0.927406
C2    C     C_R   0.501376 0.671932 0.499981 0.954895
O5    O     O_R   0.316760 0.500010 0.579480 -0.592170
O6    O     O_R   0.683240 0.499990 0.420520 -0.606995
O7    O     O_R   0.316760 0.500000 0.420520 -0.637419
O8    O     O_R   0.683240 0.500000 0.579480 -0.626513
C3    C     C_R   0.259997 0.501846 0.499335 0.904227
C4    C     C_R   0.739881 0.497296 0.500457 0.961345
Zn1   Zn    Zn3+2 0.500000 0.500010 0.606140 1.015207
Zn2   Zn    Zn3+2 0.500000 0.499990 0.393860 1.001731
H1    H     H_    0.239140 0.746991 0.144870 0.241638
H2    H     H_    0.740890 0.228658 0.828266 0.217261
C5    C     C_R   0.173865 0.750736 0.288921 0.238821
C6    C     C_R   0.796699 0.238828 0.681724 0.264255
C7    C     C_R   0.128459 0.698817 0.365339 0.220993
C8    C     C_R   0.848271 0.296558 0.612568 0.214498
C9    C     C_R   0.118421 0.605109 0.355082 -0.040659
C10   C     C_R   0.879256 0.385381 0.636985 -0.046215
C11   C     C_R   0.149339 0.565090 0.269095 -0.167054
C12   C     C_R   0.862064 0.415253 0.729603 -0.112404
C13   C     C_R   0.192399 0.616467 0.194161 -0.152200
C14   C     C_R   0.813446 0.358177 0.797760 -0.203290
H3    H     H_    0.215231 0.584892 0.127932 0.215487
H4    H     H_    0.800453 0.381793 0.869209 0.179679
C15   C     C_R   0.204796 0.708426 0.203918 -0.154038
C16   C     C_R   0.780366 0.270989 0.774103 -0.194247
C17   C     C_R   0.931899 0.544911 0.430677 -0.129944
C18   C     C_R   0.067931 0.449939 0.566577 -0.167382
H5    H     H_    0.878659 0.581331 0.377726 0.193778
H6    H     H_    0.121536 0.411438 0.617679 0.207304
C19   C     C_R   0.872211 0.495639 0.500673 -0.051829
C20   C     C_R   0.127603 0.501111 0.497861 -0.061913
C21   C     C_R   0.939424 0.445887 0.568122 0.040694
C22   C     C_R   0.060024 0.548882 0.428772 0.062834
C23   C     C_R   0.440512 0.091529 0.579105 -0.121796
C24   C     C_R   0.568453 0.909411 0.442857 -0.147774
C25   C     C_R   0.441237 0.183928 0.581891 0.315274
C26   C     C_R   0.581737 0.817494 0.444894 0.313315
C27   C     C_R   0.476082 0.231624 0.499749 -0.168177
C28   C     C_R   0.498336 0.767233 0.500074 -0.177336
C29   C     C_R   0.495852 0.186283 0.414703 -0.132493
C30   C     C_R   0.405405 0.808122 0.552950 -0.165859
C31   C     C_R   0.488095 0.094645 0.411843 -0.077521
C32   C     C_R   0.392081 0.899398 0.549454 -0.035980
H7    H     H_    0.503520 0.061032 0.345324 0.170094
H8    H     H_    0.317097 0.929838 0.588593 0.175835
C33   C     C_R   0.465048 0.046869 0.494725 0.079984
C34   C     C_R   0.473652 0.950385 0.494496 0.067139
C35   C     C_R   0.410026 0.446270 0.105444 0.212390
C36   C     C_R   0.475729 0.582144 0.893493 0.242974
C37   C     C_R   0.417493 0.446346 0.205327 -0.081929
C38   C     C_R   0.479612 0.578165 0.793749 -0.052463
H9    H     H_    0.354278 0.405278 0.245948 0.174079
H10   H     H_    0.463359 0.637988 0.752950 0.185009
N1    N     N_R   0.500000 0.499980 0.252470 -0.119805
N2    N     N_R   0.500000 0.500020 0.747530 -0.126684
C39   C     C_R   0.580072 0.553422 0.203892 0.044006
C40   C     C_R   0.518566 0.423575 0.797624 0.065463
C41   C     C_R   0.578792 0.554492 0.104581 -0.227779
C42   C     C_R   0.516266 0.423606 0.896894 -0.235209
H11   H     H_    0.644384 0.596936 0.067680 0.182439
H12   H     H_    0.532331 0.361808 0.934708 0.187177
C43   C     C_R   0.493052 0.501361 0.053410 0.045168
C44   C     C_R   0.494020 0.502882 0.946821 0.036969
N3    N     N_R   0.315158 0.393174 0.059314 0.204917
O9    O     O_R   0.258646 0.422173 0.983454 -0.347915
O10   O     O_R   0.273406 0.321117 0.099703 -0.345874
N4    N     N_R   0.449934 0.666087 0.938029 0.213820
O11   O     O_R   0.382727 0.669399 0.013939 -0.397942
O12   O     O_R   0.480879 0.740404 0.896660 -0.342307
H13   H     H_    0.645421 0.595447 0.242293 0.168833
H14   H     H_    0.536192 0.362148 0.760734 0.186751
N5    N     N_R   0.189950 0.845764 0.296415 0.241551
O13   O     O_R   0.185944 0.895518 0.220987 -0.311434
O14   O     O_R   0.222354 0.882065 0.376420 -0.343161
N6    N     N_R   0.760122 0.148442 0.659709 0.228112
O15   O     O_R   0.739038 0.091531 0.727302 -0.323831
O16   O     O_R   0.738818 0.123666 0.572948 -0.337713
N7    N     N_R   0.084728 0.741063 0.449807 0.234264
O17   O     O_R   0.114987 0.709610 0.532648 -0.406650
O18   O     O_R   0.006275 0.806917 0.444007 -0.238590
N8    N     N_R   0.877159 0.264039 0.520180 0.230221
O19   O     O_R   0.823887 0.298477 0.445639 -0.393633
O20   O     O_R   0.961131 0.202416 0.510237 -0.280650
H15   H     H_    0.138052 0.493849 0.259732 0.181864
H16   H     H_    0.887487 0.482768 0.749127 0.178831
H17   H     H_    0.421397 0.054724 0.643303 0.182350
H18   H     H_    0.635234 0.949142 0.403854 0.197447
N9    N     N_R   0.402529 0.227221 0.667039 0.199985
O21   O     O_R   0.438310 0.195988 0.748790 -0.363193
O22   O     O_R   0.311340 0.284297 0.663756 -0.372824
N10   N     N_R   0.683151 0.777003 0.395093 0.217068
O23   O     O_R   0.745964 0.712350 0.433903 -0.405011
O24   O     O_R   0.724382 0.812683 0.317451 -0.337058
H19   H     H_    0.519470 0.221397 0.350288 0.193888
H20   H     H_    0.341232 0.769044 0.595090 0.203413

loop_
_geom_bond_atom_site_label_1
_geom_bond_atom_site_label_2
_geom_bond_distance
_ccdc_geom_bond_type
C23   C33   1.398181 A    
C41   H11   1.083010 S    
N9    O21   1.301500 A    
C37   N1    1.361862 A    
C5    C15   1.404480 A    
C35   N3    1.439158 S    
C31   H7    1.083256 S    
Zn1   N2    2.000452 S    
N5    O13   1.301586 A    
C39   H13   1.082010 S    
O5    C3    1.280813 A    
Zn2   N1    2.000452 S    
C26   N10   1.437609 S    
C18   C20   1.395726 A    
C10   C12   1.400085 A    
C3    C20   1.416166 S    
C19   C21   1.404354 A    
C12   C14   1.391825 A    
N8    O20   1.300965 A    
C36   C44   1.420342 A    
H2    C16   1.082373 S    
N2    C40   1.361349 A    
C29   C31   1.377826 A    
O4    Zn1   1.999763 S    
N3    O10   1.301390 A    
C40   C42   1.405005 A    
C25   N9    1.435680 S    
C9    C22   1.481419 S    
C8    N8    1.433502 S    
C17   H5    1.084550 S    
C6    C16   1.407128 A    
C24   C26   1.387402 A    
C1    C27   1.450971 S    
O2    Zn2   2.001448 S    
N9    O22   1.301417 A    
C2    C28   1.430537 S    
C25   C27   1.416061 A    
C40   H14   1.078530 S    
O2    C2    1.282620 A    
C26   C28   1.407343 A    
C7    N7    1.437628 S    
C23   H17   1.082914 S    
C28   C30   1.395637 A    
H1    C15   1.081875 S    
C41   C43   1.407989 A    
C35   C37   1.414596 A    
C13   C15   1.392627 A    
C36   C38   1.413661 A    
N1    C39   1.361323 A    
C43   C44   1.508344 S    
N4    O12   1.301466 A    
C29   H19   1.083410 S    
N8    O19   1.300610 A    
N4    O11   1.299982 A    
C31   C33   1.396759 A    
C24   C34   1.401316 A    
C10   C21   1.480645 S    
C38   N2    1.363355 A    
N10   O24   1.301422 A    
C42   H12   1.083082 S    
O7    Zn2   2.000088 S    
C27   C29   1.402024 A    
N7    O17   1.300868 A    
C32   C34   1.399056 A    
O6    C4    1.277972 A    
N10   O23   1.299991 A    
C5    N5    1.439482 S    
C11   H15   1.083485 S    
N5    O14   1.300220 A    
C18   C21   1.376128 A    
C24   H18   1.083265 S    
C4    C19   1.415863 S    
O7    C3    1.275837 A    
O3    Zn2   1.999763 S    
O8    C4    1.278180 A    
N6    O16   1.300798 A    
N7    O18   1.301239 A    
C8    C10   1.414570 A    
C14   C16   1.394236 A    
C37   H9    1.081855 S    
O1    C1    1.285380 A    
O4    C2    1.281073 A    
O1    Zn1   2.001448 S    
C20   C22   1.406620 A    
C42   C44   1.407244 A    
C30   H20   1.083611 S    
O6    Zn2   1.992137 S    
C7    C9    1.417363 A    
C39   C41   1.405089 A    
N6    O15   1.301609 A    
O3    C1    1.288739 A    
O8    Zn1   2.000087 S    
C12   H16   1.083342 S    
C13   H3    1.081657 S    
C14   H4    1.082478 S    
C17   C22   1.372155 A    
C9    C11   1.401268 A    
C33   C34   1.451129 S    
C17   C19   1.393294 A    
C32   H8    1.082864 S    
C5    C7    1.419919 A    
C38   H10   1.079986 S    
C6    C8    1.419802 A    
C11   C13   1.390822 A    
N3    O9    1.301272 A    
C35   C43   1.420905 A    
C30   C32   1.378401 A    
O5    Zn1   1.992138 S    
C36   N4    1.438740 S    
C23   C25   1.387111 A    
C6    N6    1.443580 S    
C18   H6    1.085232 S    
