data_mof_unit_31785.cif
_audit_creation_date              2012-12-11T14:13:11-0500
_audit_creation_method            fapswitch 2.2
_symmetry_space_group_name_H-M    P1
_symmetry_Int_Tables_number       1
_space_group_crystal_system       triclinic
_cell_length_a                    11.586874
_cell_length_b                    18.397189
_cell_length_c                    10.082296
_cell_angle_alpha                 90.011865
_cell_angle_beta                  110.503669
_cell_angle_gamma                 90.002877
_cell_volume                      2013.04930282

loop_
_atom_site_label
_atom_site_type_symbol
_atom_type_description
_atom_site_fract_x
_atom_site_fract_y
_atom_site_fract_z
_atom_type_partial_charge
C1    C     C_R   0.073095 0.646515 0.140550 0.563685
C2    C     C_2   0.642497 0.059030 0.988937 -0.112227
C3    C     C_2   0.588060 0.420622 0.096506 -0.117879
C4    C     C_2   0.357263 0.559214 0.008259 -0.112860
C5    C     C_2   0.525252 0.946554 0.939970 -0.134436
C6    C     C_2   0.541631 0.023396 0.910820 -0.161016
C7    C     C_2   0.473708 0.446512 0.056790 -0.139263
C8    C     C_2   0.456996 0.522998 0.087894 -0.161739
C9    C     C_2   0.034021 0.930255 0.121015 -0.106060
C10   C     C_2   0.999296 0.079809 0.884283 -0.118306
C11   C     C_2   0.982579 0.424822 0.884653 -0.101954
C12   C     C_R   0.924852 0.354322 0.858908 0.564309
C13   C     C_2   0.006029 0.578804 0.112161 -0.103036
C14   C     C_2   0.057349 0.970215 0.022365 -0.164886
C15   C     C_2   0.028351 0.046786 0.008900 -0.169512
C16   C     C_2   0.963505 0.466536 0.982951 -0.157322
C17   C     C_2   0.008212 0.539881 0.001744 -0.151224
C18   C     C_R   0.478417 0.654162 0.454994 0.586295
C19   C     C_R   0.561554 0.362876 0.622937 0.580803
C20   C     C_R   0.521491 0.153637 0.546218 0.580738
C21   C     C_R   0.438904 0.862680 0.378157 0.583129
C22   C     C_R   0.349743 0.638610 0.013067 0.574038
C23   C     C_R   0.928352 0.146803 0.859351 0.560792
C24   C     C_R   0.621920 0.354038 0.039242 0.554224
C25   C     C_R   0.650243 0.138638 0.986495 0.575933
C26   C     C_R   0.377993 0.854274 0.961601 0.547141
C27   C     C_R   0.547560 0.443213 0.598786 -0.028910
C28   C     C_R   0.530494 0.595043 0.559865 0.009378
C29   C     C_R   0.454244 0.941996 0.406598 -0.027662
C30   C     C_R   0.467490 0.093410 0.445375 0.006025
C31   C     C_R   0.358841 0.456995 0.682228 0.378414
C32   C     C_R   0.736042 0.597670 0.546476 0.394492
C33   C     C_R   0.636192 0.957704 0.313167 0.377074
C34   C     C_R   0.078695 0.855978 0.142150 0.565088
C35   C     C_R   0.272263 0.091382 0.489582 0.381918
C36   C     C_R   0.257149 0.499908 0.673870 -0.109138
C37   C     C_R   0.821948 0.563346 0.501434 -0.091551
C38   C     C_R   0.737069 0.001209 0.320881 -0.096396
C39   C     C_R   0.199462 0.055155 0.552219 -0.094027
C40   C     C_R   0.258273 0.574317 0.653473 -0.020871
C41   C     C_R   0.812754 0.489393 0.470225 -0.060781
C42   C     C_R   0.734290 0.075358 0.343799 -0.018811
C43   C     C_R   0.210917 0.980536 0.572894 -0.069017
C44   C     C_R   0.367585 0.604983 0.654760 -0.057393
C45   C     C_R   0.455987 0.485033 0.637597 0.005080
C46   C     C_R   0.718117 0.449471 0.493023 -0.092086
C47   C     C_R   0.624316 0.104954 0.341753 -0.069975
C48   C     C_R   0.300764 0.943619 0.535534 -0.092743
C49   C     C_R   0.454194 0.561742 0.621606 -0.068999
C50   C     C_R   0.634881 0.482066 0.552407 -0.072928
C51   C     C_R   0.540444 0.061161 0.377919 -0.071745
C52   C     C_R   0.372672 0.978695 0.464361 -0.067785
C53   C     C_3   0.138500 0.616083 0.614078 -0.231881
C54   C     C_3   0.143624 0.698332 0.586669 -0.296349
C55   C     C_3   0.015146 0.729644 0.514324 -0.422061
C56   C     C_R   0.635886 0.558553 0.558370 0.021985
C57   C     C_3   0.899429 0.455149 0.404429 -0.276847
C58   C     C_3   0.968367 0.388626 0.485178 -0.285112
C59   C     C_3   0.068765 0.364657 0.428807 -0.423965
C60   C     C_3   0.848116 0.122433 0.390567 -0.219539
C61   C     C_3   0.935019 0.109820 0.308433 -0.301265
C62   C     C_3   0.003319 0.180028 0.302345 -0.368624
C63   C     C_3   0.133054 0.940771 0.642990 -0.265463
C64   C     C_3   0.997034 0.938800 0.551747 -0.321255
C65   C     C_3   0.920842 0.899993 0.627327 -0.420177
C66   C     C_R   0.540748 0.984730 0.361974 0.002230
C67   C     C_R   0.367397 0.054860 0.459316 0.022779
C68   C     C_2   0.410600 0.922591 0.909850 -0.119088
Cr1   Cr    Cr6+3 0.187610 0.750000 0.979860 0.978754
Cr2   Cr    Cr6+3 0.812390 0.250000 0.020140 0.952659
Cr3   Cr    Cr6+3 0.245810 0.750000 0.341640 0.959062
Cr4   Cr    Cr6+3 0.754190 0.250000 0.658360 0.970938
Cr5   Cr    Cr6+3 0.485760 0.750000 0.219910 1.112012
Cr6   Cr    Cr6+3 0.514240 0.250000 0.780090 1.116795
F1    F     F_    0.355854 0.391247 0.739629 -0.636425
F2    F     F_    0.748495 0.670056 0.574827 -0.644444
F3    F     F_    0.638918 0.892268 0.254522 -0.634267
F4    F     F_    0.254767 0.163682 0.464716 -0.662147
H1    H     H_    0.178732 0.475372 0.690745 0.112706
H2    H     H_    0.603815 0.912966 0.997822 0.199840
H3    H     H_    0.533711 0.552130 0.163563 0.162315
H4    H     H_    0.396351 0.414939 0.989310 0.205498
H5    H     H_    0.720061 0.028575 0.058191 0.098092
H6    H     H_    0.336426 0.959283 0.857696 0.099409
H7    H     H_    0.279786 0.529782 0.935710 0.102537
H8    H     H_    0.661890 0.454254 0.163293 0.093038
H9    H     H_    0.017617 0.073979 0.097926 0.148942
H10   H     H_    0.097178 0.946263 0.949787 0.160140
H11   H     H_    0.051298 0.560339 0.928997 0.151485
H12   H     H_    0.889400 0.596282 0.480175 0.110662
H13   H     H_    0.912952 0.446981 0.048815 0.157764
H14   H     H_    0.010119 0.052185 0.794272 0.094656
H15   H     H_    0.997034 0.954843 0.195733 0.084328
H16   H     H_    0.968376 0.556960 0.188496 0.083079
H17   H     H_    0.028620 0.445868 0.815739 0.080042
H18   H     H_    0.023131 0.787708 0.490729 0.151644
H19   H     H_    0.967158 0.701714 0.412245 0.178293
H20   H     H_    0.960202 0.724385 0.584469 0.201897
H21   H     H_    0.188871 0.729083 0.685342 0.190375
H22   H     H_    0.196841 0.708664 0.517446 0.217332
H23   H     H_    0.814300 0.977379 0.300184 0.113828
H24   H     H_    0.080745 0.591415 0.512807 0.132997
H25   H     H_    0.094344 0.606670 0.694283 0.156617
H26   H     H_    0.026908 0.346278 0.317207 0.150773
H27   H     H_    0.133113 0.410091 0.433487 0.170367
H28   H     H_    0.122498 0.319389 0.494480 0.199496
H29   H     H_    0.011518 0.401604 0.598862 0.183401
H30   H     H_    0.903133 0.342761 0.473461 0.173246
H31   H     H_    0.848355 0.438361 0.294488 0.153545
H32   H     H_    0.967867 0.495805 0.398250 0.126820
H33   H     H_    0.938511 0.222506 0.242290 0.181873
H34   H     H_    0.134439 0.085586 0.585676 0.125685
H35   H     H_    0.049148 0.201070 0.411142 0.187717
H36   H     H_    0.071852 0.170726 0.250288 0.193048
H37   H     H_    0.999705 0.065687 0.356687 0.130971
H38   H     H_    0.886013 0.089156 0.201448 0.182059
H39   H     H_    0.820233 0.180653 0.383609 0.156281
H40   H     H_    0.899416 0.112295 0.504419 0.144752
H41   H     H_    0.964307 0.847927 0.674552 0.168302
H42   H     H_    0.911952 0.934793 0.713125 0.150717
H43   H     H_    0.827101 0.888486 0.551010 0.198223
H44   H     H_    0.962946 0.995012 0.530527 0.155397
H45   H     H_    0.378914 0.663369 0.663009 0.141643
H46   H     H_    0.985363 0.911226 0.449884 0.178076
H47   H     H_    0.165067 0.883829 0.665872 0.170319
H48   H     H_    0.141828 0.968222 0.743708 0.137120
H49   H     H_    0.707013 0.395562 0.450482 0.170679
H50   H     H_    0.613969 0.163551 0.336375 0.146040
H51   H     H_    0.319850 0.889819 0.578291 0.161610
H52   H     H_    0.463823 0.053128 0.838411 0.163241
O1    O     O_R   0.267710 0.668200 0.902110 -0.542760
O2    O     O_R   0.883280 0.330790 0.732340 -0.532714
O3    O     O_R   0.883280 0.169210 0.732340 -0.525640
O4    O     O_R   0.116720 0.830790 0.267660 -0.528402
O5    O     O_R   0.366710 0.675440 0.427590 -0.535249
O6    O     O_R   0.633290 0.324560 0.572410 -0.535292
O7    O     O_R   0.633290 0.175440 0.572410 -0.523294
O8    O     O_R   0.366710 0.824560 0.427590 -0.540071
O9    O     O_R   0.534870 0.669390 0.371760 -0.468933
O10   O     O_R   0.465130 0.330610 0.628240 -0.402137
O11   O     O_R   0.465130 0.169390 0.628240 -0.454588
O12   O     O_R   0.732290 0.331800 0.097890 -0.550274
O13   O     O_R   0.534870 0.830610 0.371760 -0.404415
O14   O     O_R   0.453080 0.674480 0.075160 -0.495639
O15   O     O_R   0.546920 0.325520 0.924840 -0.437215
O16   O     O_R   0.546920 0.174480 0.924840 -0.494903
O17   O     O_R   0.453080 0.825520 0.075160 -0.430654
O18   O     O_3   0.306390 0.750000 0.180470 -0.297691
O19   O     O_3   0.693610 0.250000 0.819530 -0.295756
O20   O     O_R   0.732290 0.168200 0.097890 -0.538154
O21   O     O_R   0.267710 0.831800 0.902110 -0.562830
O22   O     O_R   0.099480 0.674460 0.038850 -0.506606
O23   O     O_R   0.900520 0.325540 0.961150 -0.506135
O24   O     O_R   0.900520 0.174460 0.961150 -0.525218
O25   O     O_R   0.099480 0.825540 0.038850 -0.495833
O26   O     O_R   0.116720 0.669210 0.267660 -0.532839

loop_
_geom_bond_atom_site_label_1
_geom_bond_atom_site_label_2
_ccdc_geom_bond_type
C44   C49   A    
Cr4   O3    S    
C30   C51   A    
C22   O1    A    
Cr2   O23   S    
Cr6   O15   S    
Cr2   O20   S    
C12   O23   A    
C4    C8    D    
Cr3   O4    S    
C28   C56   A    
C43   C63   S    
C47   H50   S    
C20   C30   S    
C53   C54   S    
Cr1   O25   S    
C37   H12   S    
Cr5   O17   S    
C59   H26   S    
C26   O21   A    
C38   C42   A    
C38   H23   S    
C3    C7    D    
C24   O15   A    
Cr3   O5    S    
C5    C6    S    
Cr4   O6    S    
C34   O4    A    
C1    O22   A    
C58   H29   S    
C11   C16   D    
C57   H31   S    
C62   H33   S    
C24   O12   A    
C19   O10   A    
C61   H37   S    
C41   C46   A    
Cr6   O19   S    
C60   H40   S    
C25   O16   A    
C65   H43   S    
C19   C27   S    
C43   C48   A    
C40   C44   A    
C30   C67   A    
C27   C50   A    
C6    H52   S    
C27   C45   A    
Cr5   O14   S    
Cr3   O18   S    
C10   H14   S    
C3    H8    S    
C54   H22   S    
C2    H5    S    
C18   O9    A    
Cr2   O19   S    
C21   O8    A    
C5    C68   D    
C34   O25   A    
C33   C66   A    
Cr4   O2    S    
Cr3   O8    S    
Cr2   O12   S    
C59   H28   S    
C23   O3    A    
Cr5   O18   S    
C8    H3    S    
Cr1   O21   S    
C46   H49   S    
C36   C40   A    
C18   C28   S    
C21   O13   A    
C62   H35   S    
C42   C60   S    
C16   C17   S    
C39   C43   A    
C4    H7    S    
Cr5   O9    S    
C35   F4    S    
C19   O6    A    
C64   H46   S    
C21   C29   S    
C50   C56   A    
C2    C6    D    
C25   O20   A    
C51   C66   A    
C68   H6    S    
C20   O7    A    
C1    O26   A    
C35   C39   A    
C9    C14   D    
C4    C22   S    
C28   C49   A    
C31   F1    S    
C57   H32   S    
C14   C15   S    
C45   C49   A    
C53   H24   S    
Cr1   O1    S    
C55   H19   S    
C61   H38   S    
C65   H41   S    
C17   H11   S    
C18   O5    A    
C59   H27   S    
C32   C37   A    
C5    H2    S    
C63   H47   S    
C52   C67   A    
C39   H34   S    
Cr6   O11   S    
Cr4   O19   S    
C60   H39   S    
C9    C34   S    
C54   H21   S    
C1    C13   S    
C9    H15   S    
C15   H9    S    
Cr5   O13   S    
C11   H17   S    
C54   C55   S    
Cr4   O7    S    
C12   O2    A    
Cr2   O24   S    
Cr1   O22   S    
C20   O11   A    
Cr6   O16   S    
C3    C24   S    
C55   H18   S    
C36   H1    S    
C32   F2    S    
C47   C51   A    
C11   C12   S    
C62   H36   S    
C10   C23   S    
C46   C50   A    
C44   H45   S    
C33   C38   A    
C13   C17   D    
C13   H16   S    
C10   C15   D    
C26   C68   S    
C64   C65   S    
C61   C62   S    
C58   C59   S    
C14   H10   S    
C33   F3    S    
C57   C58   S    
Cr6   O10   S    
C53   H25   S    
C64   H44   S    
Cr3   O26   S    
C55   H20   S    
C63   C64   S    
C65   H42   S    
C2    C25   S    
C58   H30   S    
C42   C47   A    
C37   C41   A    
C26   O17   A    
C48   H51   S    
C63   H48   S    
C7    C8    S    
C35   C67   A    
C41   C57   S    
C29   C66   A    
C48   C52   A    
C7    H4    S    
C16   H13   S    
C40   C53   S    
C31   C45   A    
C23   O24   A    
C22   O14   A    
Cr1   O18   S    
C31   C36   A    
C60   C61   S    
C32   C56   A    
C29   C52   A    
