data_mof_unit_31103.cif
_audit_creation_date              2012-12-11T14:21:16-0500
_audit_creation_method            fapswitch 2.2
_symmetry_space_group_name_H-M    P1
_symmetry_Int_Tables_number       1
_space_group_crystal_system       triclinic
_cell_length_a                    21.934759
_cell_length_b                    7.226644
_cell_length_c                    14.738366
_cell_angle_alpha                 90.00081
_cell_angle_beta                  106.177925
_cell_angle_gamma                 89.999904
_cell_volume                      2243.73476

loop_
_atom_site_label
_atom_site_type_symbol
_atom_type_description
_atom_site_fract_x
_atom_site_fract_y
_atom_site_fract_z
_atom_type_partial_charge
O1    O     O_R   0.584770 0.505770 0.002090 -0.537893
O2    O     O_R   0.415230 0.005770 0.997910 -0.537876
O3    O     O_R   0.467060 0.173340 0.861950 -0.528581
O4    O     O_R   0.532940 0.673340 0.138050 -0.528567
C1    C     C_R   0.454629 0.344064 0.825648 0.769748
C2    C     C_R   0.545372 0.844066 0.174352 0.769806
O5    O     O_R   0.587510 0.175890 0.993210 -0.502951
O6    O     O_R   0.412490 0.675890 0.006790 -0.502940
O7    O     O_R   0.536540 0.008150 0.130100 -0.533809
O8    O     O_R   0.463460 0.508150 0.869900 -0.533833
C3    C     C_R   0.613064 0.344181 0.997394 0.782558
C4    C     C_R   0.386937 0.844175 0.002612 0.782511
O9    O     O_3   0.483140 0.340040 0.044760 -0.373926
O10   O     O_3   0.516860 0.840040 0.955240 -0.373965
V1    V     V_3+5 0.503130 0.064190 0.991700 1.602156
V2    V     V_3+5 0.496870 0.564190 0.008300 1.602170
C5    C     C_2   0.213653 0.727919 0.005883 -0.196007
C6    C     C_2   0.786368 0.227930 0.994268 -0.196077
C7    C     C_2   0.179896 0.886534 0.994159 -0.292989
C8    C     C_2   0.820105 0.386569 0.005856 -0.292940
H1    H     H_    0.190485 0.601223 0.018067 0.160667
H2    H     H_    0.809549 0.101187 0.982191 0.160626
H3    H     H_    0.200627 0.015797 0.980223 0.141059
H4    H     H_    0.799360 0.515877 0.019707 0.141088
C9    C     C_2   0.280722 0.708778 0.000146 0.397029
C10   C     C_2   0.719312 0.208835 0.000059 0.396933
C11   C     C_2   0.319863 0.856493 0.005929 -0.243189
C12   C     C_2   0.680132 0.356514 0.994061 -0.243118
H5    H     H_    0.303037 0.994456 0.014670 0.116057
H6    H     H_    0.696922 0.494439 0.985131 0.116084
C13   C     C_R   0.926973 0.886247 0.722780 -0.097090
C14   C     C_R   0.073024 0.386258 0.277220 -0.097083
C15   C     C_R   0.575549 0.850772 0.276759 -0.150520
C16   C     C_R   0.424449 0.350769 0.723241 -0.150495
C17   C     C_R   0.938879 0.888194 0.564124 0.247834
C18   C     C_R   0.061117 0.388205 0.435875 0.247837
C19   C     C_R   0.965584 0.877035 0.661792 -0.245957
C20   C     C_R   0.034413 0.377039 0.338207 -0.245959
C21   C     C_R   0.860868 0.896724 0.686336 0.340786
C22   C     C_R   0.139129 0.396746 0.313665 0.340784
C23   C     C_R   0.832697 0.868937 0.587975 -0.034319
C24   C     C_R   0.167299 0.368959 0.412025 -0.034314
C25   C     C_R   0.872145 0.891411 0.526904 0.048579
C26   C     C_R   0.127851 0.391433 0.473096 0.048570
C27   C     C_R   0.766494 0.833469 0.547707 0.003379
C28   C     C_R   0.233501 0.333491 0.452295 0.003375
C29   C     C_R   0.738705 0.867264 0.449550 0.082093
C30   C     C_R   0.261291 0.367295 0.550451 0.082088
C31   C     C_R   0.778110 0.932936 0.395919 -0.127359
C32   C     C_R   0.221886 0.432984 0.604078 -0.127359
C33   C     C_R   0.843783 0.929374 0.431419 -0.108400
C34   C     C_R   0.156211 0.429411 0.568580 -0.108393
C35   C     C_R   0.727067 0.759230 0.600164 0.157182
C36   C     C_R   0.272927 0.259241 0.399837 0.157178
C37   C     C_R   0.661492 0.775549 0.565520 -0.121874
C38   C     C_R   0.338502 0.275549 0.434482 -0.121874
C39   C     C_R   0.633045 0.829276 0.471859 -0.022227
C40   C     C_R   0.366950 0.329278 0.528143 -0.022236
C41   C     C_R   0.671794 0.845406 0.409593 0.018669
C42   C     C_R   0.328202 0.345428 0.590410 0.018685
C43   C     C_R   0.566507 0.851303 0.437800 0.227608
C44   C     C_R   0.433488 0.351293 0.562200 0.227614
C45   C     C_R   0.538068 0.868659 0.339841 0.106374
C46   C     C_R   0.461929 0.368638 0.660158 0.106372
C47   C     C_R   0.641943 0.830506 0.310986 0.060910
C48   C     C_R   0.358053 0.330539 0.689018 0.060854
H7    H     H_    0.871776 0.968166 0.384568 0.165997
H8    H     H_    0.128219 0.468208 0.615429 0.166004
H9    H     H_    0.633036 0.729539 0.610333 0.202469
H10   H     H_    0.366957 0.229530 0.389668 0.202474
H11   H     H_    0.016713 0.871279 0.690371 0.153389
H12   H     H_    0.983284 0.371274 0.309626 0.153386
H13   H     H_    0.758661 0.989238 0.326048 0.163493
H14   H     H_    0.241334 0.489312 0.673944 0.163476
O11   O     O_R   0.036450 0.233070 0.130130 -0.535183
O12   O     O_R   0.963550 0.733070 0.869870 -0.535179
O13   O     O_R   0.912470 0.560570 0.006790 -0.541319
O14   O     O_R   0.087530 0.060570 0.993210 -0.541312
C49   C     C_R   0.887054 0.392148 0.002697 0.762827
C50   C     C_R   0.112946 0.892144 0.997307 0.762833
O15   O     O_R   0.032920 0.562940 0.138050 -0.532769
O16   O     O_R   0.967080 0.062940 0.861950 -0.532763
O17   O     O_R   0.084790 0.730500 0.002090 -0.537569
O18   O     O_R   0.915210 0.230500 0.997910 -0.537561
C51   C     C_R   0.044402 0.394458 0.174863 0.768339
C52   C     C_R   0.955597 0.894455 0.825137 0.768359
O19   O     O_3   0.016820 0.396170 0.955260 -0.383375
O20   O     O_3   0.983180 0.896170 0.044740 -0.383383
V3    V     V_3+5 0.996880 0.672090 0.008300 1.510546
V4    V     V_3+5 0.003120 0.172090 0.991700 1.510559
O21   O     O_3   0.826477 0.954328 0.746773 -0.629728
H15   H     H_    0.787841 0.019064 0.709255 0.316924
O22   O     O_3   0.173521 0.454356 0.253230 -0.629754
H16   H     H_    0.212157 0.519087 0.290751 0.316920
I1    I     I_    0.759250 0.579315 0.719108 -0.332121
I2    I     I_    0.240741 0.079334 0.280888 -0.332147
I3    I     I_    0.509642 0.868672 0.535139 -0.282802
I4    I     I_    0.490350 0.368668 0.464857 -0.282776
O23   O     O_3   0.303696 0.533639 0.990459 -0.613039
H17   H     H_    0.269296 0.441932 0.985286 0.296880
O24   O     O_3   0.696390 0.033771 0.010031 -0.613092
H18   H     H_    0.730819 0.942098 0.015359 0.296882
I5    I     I_    0.690220 0.714297 0.214852 -0.413742
I6    I     I_    0.309773 0.214438 0.785173 -0.413795
I7    I     I_    0.437519 0.901713 0.284571 -0.302195
I8    I     I_    0.562480 0.401669 0.715425 -0.302303
I9    I     I_    0.002465 0.893719 0.477688 -0.382504
I10   I     I_    0.997530 0.393721 0.522310 -0.382492

loop_
_geom_bond_atom_site_label_1
_geom_bond_atom_site_label_2
_ccdc_geom_bond_type
C40   C44   A    
O24   H18   S    
C35   I1    S    
C35   C37   A    
C6    C10   S    
C22   O22   S    
O2    C4    A    
C16   C48   A    
C2    O7    A    
C15   C47   A    
C29   C31   A    
O14   V4    S    
O5    C3    A    
O13   V3    S    
O22   H16   S    
C24   C26   A    
C17   C19   A    
C32   H14   S    
C10   O24   S    
C49   O18   A    
O14   C50   A    
C39   C41   A    
C11   H5    S    
C40   C42   A    
C24   C28   A    
C27   C29   A    
C43   C45   A    
C44   C46   A    
O11   V4    S    
C44   I4    S    
C9    O23   S    
C8    H4    S    
C38   C40   A    
C31   C33   A    
O1    C3    A    
C32   C34   A    
C14   C20   A    
C45   I7    S    
C17   C25   A    
C36   I2    S    
C34   H8    S    
O6    C4    A    
O12   V3    S    
O15   V3    S    
C26   C34   A    
C30   C32   A    
C42   C48   A    
O6    V2    S    
C13   C52   S    
C23   C25   A    
O18   V4    S    
C50   O17   A    
C21   O21   S    
O11   C51   A    
C30   C42   A    
C20   H12   S    
O13   C49   A    
O17   V3    S    
C36   C38   A    
O19   V4    S    
C18   I10   S    
C4    C11   S    
C48   I6    S    
O4    C2    A    
O21   H15   S    
O16   C52   A    
C27   C35   A    
C5    H1    S    
C13   C19   A    
O4    V2    S    
C7    H3    S    
O23   H17   S    
C15   C45   A    
C1    C16   S    
C28   C36   A    
C16   C46   A    
O1    V2    S    
C33   H7    S    
C46   I8    S    
O2    V1    S    
C37   H9    S    
C38   H10   S    
C19   H11   S    
C31   H13   S    
C18   C26   A    
C47   I5    S    
C18   C20   A    
O12   C52   A    
O3    V1    S    
C8    C49   S    
C6    H2    S    
C43   I3    S    
C22   C24   A    
O3    C1    A    
C39   C43   A    
C9    C11   D    
C10   C12   D    
O16   V4    S    
C2    C15   S    
C5    C9    S    
C37   C39   A    
O7    V1    S    
C12   H6    S    
O8    V2    S    
C41   C47   A    
C25   C33   A    
C3    C12   S    
C14   C51   S    
O5    V1    S    
C5    C7    D    
C13   C21   A    
C6    C8    D    
C14   C22   A    
C7    C50   S    
C17   I9    S    
C29   C41   A    
C28   C30   A    
C1    O8    A    
O20   V3    S    
C21   C23   A    
O9    V2    S    
C23   C27   A    
O10   V1    S    
O15   C51   A    
