data_mof_unit_8734.cif
_audit_creation_date              2012-12-10T17:05:20-0500
_audit_creation_method            fapswitch 2.2
_symmetry_space_group_name_H-M    P1
_symmetry_Int_Tables_number       1
_space_group_crystal_system       triclinic
_cell_length_a                    10.063991
_cell_length_b                    10.746811
_cell_length_c                    15.531589
_cell_angle_alpha                 90.089818
_cell_angle_beta                  67.897947
_cell_angle_gamma                 90.204557
_cell_volume                      1556.37943935

loop_
_atom_site_label
_atom_site_type_symbol
_atom_type_description
_atom_site_fract_x
_atom_site_fract_y
_atom_site_fract_z
_atom_type_partial_charge
C1    C     C_R   0.501269 0.737190 0.498413 0.933769
C2    C     C_R   0.427969 0.549416 0.907641 0.094597
C3    C     C_R   0.290875 0.599897 0.958581 0.179660
C4    C     C_R   0.534621 0.546486 0.946550 0.055274
C5    C     C_R   0.495089 0.574577 0.041885 0.072025
C6    C     C_R   0.357711 0.626053 0.091168 -0.228512
C7    C     C_R   0.258251 0.639931 0.049480 -0.238874
C8    C     C_R   0.679953 0.518724 0.892846 -0.211032
C9    C     C_R   0.779971 0.505374 0.933934 -0.233599
C10   C     C_R   0.737281 0.514811 0.029872 0.169407
C11   C     C_R   0.594169 0.548834 0.084629 0.095611
C12   C     C_R   0.410245 0.501230 0.675787 0.868524
C13   C     C_R   0.834661 0.486723 0.072183 -0.216014
C14   C     C_R   0.789291 0.485632 0.168681 -0.198432
C15   C     C_R   0.551232 0.545998 0.181106 -0.262527
C16   C     C_2   0.610498 0.067216 0.502863 -0.154726
C17   C     C_2   0.492436 0.131314 0.512224 -0.332690
C18   C     C_2   0.606808 0.933288 0.508349 -0.158330
C19   C     C_2   0.506175 0.868813 0.490878 -0.325505
C20   C     C_2   0.076961 0.399599 0.496318 -0.062909
C21   C     C_2   0.937567 0.403109 0.481531 -0.121250
C22   C     C_R   0.498478 0.262806 0.502421 0.933927
C23   C     C_R   0.589861 0.502021 0.324252 0.867319
C24   C     C_R   0.356785 0.519430 0.776163 -0.060947
C25   C     C_R   0.646035 0.511826 0.223165 -0.055629
C26   C     C_R   0.188926 0.610724 0.917252 -0.226003
C27   C     C_R   0.222743 0.572588 0.825528 -0.198916
C28   C     C_R   0.453708 0.501320 0.819468 -0.243905
H1    H     H_    0.154601 0.680425 0.089078 0.149633
H2    H     H_    0.944171 0.460915 0.030829 0.148621
H3    H     H_    0.712190 0.113005 0.491433 0.166146
H4    H     H_    0.387863 0.088483 0.529749 0.149136
H5    H     H_    0.689885 0.887660 0.525482 0.163410
H6    H     H_    0.427095 0.911387 0.468510 0.146387
H7    H     H_    0.121257 0.309442 0.501579 0.146573
H8    H     H_    0.117283 0.580701 0.478288 0.159283
H9    H     H_    0.907332 0.319962 0.453569 0.137137
H10   H     H_    0.441291 0.563341 0.225189 0.157705
H11   H     H_    0.864405 0.460120 0.200464 0.158633
H12   H     H_    0.889810 0.482532 0.890789 0.159171
H13   H     H_    0.085123 0.652168 0.954830 0.146895
H14   H     H_    0.146714 0.588314 0.792535 0.171323
H15   H     H_    0.550810 0.450785 0.781998 0.167716
H16   H     H_    0.325708 0.660603 0.161273 0.143935
H17   H     H_    0.720311 0.509722 0.818282 0.201286
N1    N     N_2   0.148330 0.498670 0.499030 -0.167929
N2    N     N_2   0.852680 0.498640 0.499000 -0.167772
O1    O     O_R   0.386950 0.680940 0.500010 -0.618302
O2    O     O_R   0.613110 0.680900 0.499990 -0.640143
O3    O     O_R   0.322330 0.500030 0.632270 -0.597151
O4    O     O_R   0.548480 0.499990 0.632240 -0.609429
O5    O     O_R   0.386890 0.319100 0.500010 -0.622466
O6    O     O_R   0.613050 0.319060 0.499990 -0.617743
O7    O     O_R   0.451520 0.500010 0.367760 -0.618207
O8    O     O_R   0.677670 0.499970 0.367730 -0.619628
Zn1   Zn    Zn3+2 0.349000 0.500030 0.500020 0.952786
Zn2   Zn    Zn3+2 0.651000 0.499970 0.499980 0.940396
C29   C     C_2   0.857067 0.589928 0.564865 0.572568
H18   H     H_    0.833107 0.686038 0.555550 0.019708
O9    O     O_2   0.876636 0.560593 0.635197 -0.619989

loop_
_geom_bond_atom_site_label_1
_geom_bond_atom_site_label_2
_ccdc_geom_bond_type
C9    H12   S    
C2    C4    A    
C15   H10   S    
C23   O8    A    
C6    C7    A    
O4    Zn2   S    
N2    Zn2   S    
O3    Zn1   S    
C9    C10   A    
C12   C24   S    
C28   H15   S    
C12   O3    A    
C17   C22   S    
C24   C27   A    
C4    C8    A    
O8    Zn2   S    
C2    C3    A    
C14   H11   S    
C21   H9    S    
C1    O1    A    
C6    H16   S    
C13   C14   A    
C16   H3    S    
H8    N1    S    
C27   H14   S    
C26   C27   A    
C16   C17   D    
C1    O2    A    
C7    H1    S    
C16   C18   S    
C5    C11   A    
C22   O6    A    
C3    C7    A    
C23   C25   S    
C14   C25   A    
C5    C6    A    
C18   H5    S    
O7    Zn1   S    
C15   C25   A    
C1    C19   S    
C10   C11   A    
C29   O9    D    
C24   C28   A    
C13   H2    S    
C12   O4    A    
O2    Zn2   S    
C20   C21   S    
C23   O7    A    
C22   O5    A    
C18   C19   D    
N1    Zn1   S    
O1    Zn1   S    
C17   H4    S    
O6    Zn2   S    
C8    H17   S    
C8    C9    A    
C2    C28   A    
C21   N2    D    
C29   H18   S    
C20   H7    S    
C11   C15   A    
C10   C13   A    
C3    C26   A    
C20   N1    D    
O5    Zn1   S    
C26   H13   S    
C4    C5    A    
N2    C29   S    
C19   H6    S    
