data_mof_unit_41844.cif
_audit_creation_date              2012-12-11T17:25:30-0500
_audit_creation_method            fapswitch 2.2
_symmetry_space_group_name_H-M    P1
_symmetry_Int_Tables_number       1
_space_group_crystal_system       triclinic
_cell_length_a                    8.304739
_cell_length_b                    16.506579
_cell_length_c                    19.145203
_cell_angle_alpha                 100.861352
_cell_angle_beta                  92.016065
_cell_angle_gamma                 93.403595
_cell_volume                      2570.03813296

loop_
_atom_site_label
_atom_site_type_symbol
_atom_type_description
_atom_site_fract_x
_atom_site_fract_y
_atom_site_fract_z
_atom_type_partial_charge
Ba1   Ba    Ba6+2 0.846140 0.535590 0.465350 1.698470
Ba2   Ba    Ba6+2 0.343680 0.464470 0.534650 1.721187
C1    C     C_3   0.645526 0.825728 0.278736 -0.365840
C2    C     C_R   0.012569 0.534330 0.727806 0.060857
C3    C     C_R   0.849209 0.448243 0.818968 -0.193399
C4    C     C_3   0.084580 0.717055 0.275906 0.349196
C5    C     C_R   0.784731 0.447050 0.749957 -0.049202
C6    C     C_R   0.338156 0.570200 0.186317 -0.187166
C7    C     C_R   0.409280 0.550238 0.247227 0.009779
C8    C     C_R   0.095382 0.487954 0.202833 -0.135521
C9    C     C_R   0.165217 0.472870 0.268654 0.045639
C10   C     C_R   0.976962 0.506833 0.849560 0.043723
C11   C     C_R   0.874438 0.484240 0.703210 -0.243916
C12   C     C_3   0.622236 0.744601 0.304965 0.356096
C13   C     C_R   0.180958 0.538100 0.158815 -0.000475
C14   C     C_R   0.326267 0.497457 0.283393 -0.078957
C15   C     C_R   0.737934 0.505303 0.964877 -0.085248
C16   C     C_3   0.056816 0.749064 0.207290 -0.361842
C17   C     C_R   0.627208 0.491632 0.014789 -0.081286
C18   C     C_R   0.674789 0.507785 0.085980 -0.028663
C19   C     C_R   0.832877 0.536350 0.106647 -0.074615
C20   C     C_R   0.953693 0.531322 0.057752 0.017049
C21   C     C_R   0.905836 0.518054 0.983075 0.055583
C22   C     C_R   0.116261 0.551579 0.083457 -0.004671
C23   C     C_3   0.645788 0.241146 0.309005 0.242973
C24   C     C_R   0.215648 0.581247 0.032967 0.030715
C25   C     C_R   0.183497 0.552118 0.958197 0.043647
C26   C     C_R   0.023912 0.522365 0.930487 0.032974
C27   C     C_R   0.333274 0.647853 0.052500 -0.096310
C28   C     C_3   0.148238 0.722498 0.619302 0.375105
C29   C     C_R   0.446775 0.665475 0.004711 -0.047994
C30   C     C_R   0.442157 0.617777 0.936632 -0.026897
C31   C     C_R   0.312709 0.560100 0.913800 -0.084535
C32   C     C_R   0.382672 0.731316 0.473469 -0.263705
C33   C     C_R   0.528336 0.760775 0.510211 -0.019240
C34   C     C_3   0.695362 0.153010 0.304393 -0.409295
C35   C     C_R   0.584688 0.843563 0.514657 -0.129288
C36   C     C_R   0.489769 0.897886 0.484397 0.256215
C37   C     C_R   0.337870 0.867876 0.451890 -0.167790
C38   C     C_R   0.284358 0.784916 0.447042 -0.015666
C39   C     C_R   0.619067 0.144337 0.486660 -0.133368
C40   C     C_3   0.099229 0.811184 0.636887 -0.336880
C41   C     C_R   0.667712 0.227666 0.490806 -0.015333
C42   C     C_R   0.719642 0.092163 0.516872 0.260232
C43   C     C_R   0.813107 0.260325 0.526586 -0.278488
C44   C     C_R   0.917319 0.209546 0.553718 -0.054691
C45   C     C_3   0.080122 0.294975 0.727119 -0.298863
C46   C     C_R   0.870293 0.125547 0.549391 -0.157093
C47   C     C_3   0.045664 0.277727 0.380709 0.357489
C48   C     C_3   0.103210 0.190530 0.364275 -0.355362
C49   C     C_3   0.556790 0.733512 0.689416 0.669563
C50   C     C_3   0.531397 0.825627 0.695002 -0.338776
C51   C     C_3   0.041502 0.257519 0.792420 0.398221
C52   C     C_3   0.580105 0.249286 0.681075 0.454555
C53   C     C_3   0.552384 0.163118 0.697542 -0.242095
C54   C     C_R   0.051446 0.553171 0.801799 -0.098817
H1    H     H_    0.681285 0.752420 0.359073 0.081618
H2    H     H_    0.447840 0.694238 0.669278 0.017059
H3    H     H_    0.775678 0.845622 0.280088 0.149659
H4    H     H_    0.648402 0.862790 0.707089 0.128028
H5    H     H_    0.447878 0.846744 0.737700 0.147887
H6    H     H_    0.476582 0.837518 0.644814 -0.002163
H7    H     H_    0.490177 0.731520 0.308326 -0.078452
H8    H     H_    0.583213 0.874455 0.313713 0.080129
H9    H     H_    0.609600 0.247927 0.254121 0.083783
H10   H     H_    0.743398 0.289370 0.326408 0.071187
H11   H     H_    0.587613 0.108738 0.291745 0.136409
H12   H     H_    0.177334 0.847369 0.681508 0.116460
H13   H     H_    0.780679 0.138440 0.261185 0.106525
H14   H     H_    0.753491 0.145258 0.355424 0.085691
H15   H     H_    0.593694 0.818415 0.223451 0.111943
H16   H     H_    0.099897 0.705572 0.161949 0.067959
H17   H     H_    0.156803 0.353532 0.742721 0.159247
H18   H     H_    0.963642 0.310486 0.704646 0.607007
H19   H     H_    0.943960 0.290580 0.821072 -0.083425
H20   H     H_    0.996679 0.191714 0.775471 0.040896
H21   H     H_    0.711606 0.261443 0.676893 -0.270054
H22   H     H_    0.517234 0.250346 0.629179 0.070502
H23   H     H_    0.971804 0.812061 0.652564 0.128697
H24   H     H_    0.608758 0.117535 0.657230 0.039105
H25   H     H_    0.421069 0.145614 0.696210 0.171792
H26   H     H_    0.019861 0.655163 0.270554 0.069645
H27   H     H_    0.607471 0.161209 0.750866 0.124229
H28   H     H_    0.138820 0.604322 0.820704 0.094327
H29   H     H_    0.791631 0.406951 0.849532 0.084190
H30   H     H_    0.418178 0.605390 0.159814 0.074054
H31   H     H_    0.979642 0.456415 0.185445 0.112637
H32   H     H_    0.832443 0.477499 0.648153 0.075204
H33   H     H_    0.686460 0.509016 0.913534 0.087382
H34   H     H_    0.111736 0.840881 0.589795 0.082956
H35   H     H_    0.501526 0.475024 0.998921 0.096318
H36   H     H_    0.587159 0.502117 0.124890 0.087602
H37   H     H_    0.216220 0.711918 0.284366 -0.060828
H38   H     H_    0.862360 0.567156 0.160329 0.119021
H39   H     H_    0.333909 0.689501 0.103280 0.067627
H40   H     H_    0.540449 0.714530 0.021091 0.100630
H41   H     H_    0.536919 0.626780 0.901162 0.177784
H42   H     H_    0.311797 0.524198 0.860846 0.150855
H43   H     H_    0.506092 0.120431 0.458203 0.103823
H44   H     H_    0.260977 0.909324 0.430981 0.091864
H45   H     H_    0.925322 0.275365 0.402582 -0.109806
H46   H     H_    0.698791 0.865363 0.543005 0.109011
H47   H     H_    0.950498 0.086196 0.571135 0.091709
H48   H     H_    0.340020 0.667367 0.470012 0.075724
H49   H     H_    0.926350 0.754976 0.196813 0.149525
H50   H     H_    0.850145 0.324875 0.529289 0.056037
H51   H     H_    0.123094 0.810282 0.211007 0.117234
H52   H     H_    0.268947 0.722537 0.597656 -0.144572
H53   H     H_    0.065487 0.687976 0.576707 0.104591
H54   H     H_    0.855761 0.752723 0.784166 0.340277
H55   H     H_    0.410595 0.354534 0.891474 0.353014
H56   H     H_    0.125543 0.313919 0.423530 0.112754
H57   H     H_    0.031506 0.152058 0.318930 0.105980
H58   H     H_    0.092331 0.161131 0.411645 0.078910
H59   H     H_    0.230803 0.192364 0.349713 0.160335
I1    I     I_    0.460666 0.424626 0.333945 -0.305694
N1    N     N_2   0.537725 0.983004 0.487292 -0.239053
N2    N     N_2   0.675574 0.006522 0.514606 -0.234826
O1    O     O_2   0.886430 0.442790 0.326210 -0.438741
O2    O     O_2   0.253498 0.216103 0.547643 -0.479703
O3    O     O_3   0.159594 0.238273 0.677960 -0.558733
O4    O     O_3   0.133270 0.450140 0.414870 -0.487261
O5    O     O_3   0.558160 0.600070 0.536280 -0.459138
O6    O     O_2   0.381490 0.299900 0.465440 -0.440286
O7    O     O_3   0.510326 0.254146 0.349882 -0.615780
O8    O     O_2   0.451084 0.463559 0.757201 -0.428614
O9    O     O_3   0.519355 0.307580 0.735310 -0.544922
O10   O     O_3   0.642580 0.593140 0.369810 -0.448205
O11   O     O_2   0.735110 0.521365 0.248317 -0.488531
O12   O     O_3   0.687349 0.710326 0.647675 -0.641211
O13   O     O_3   0.040037 0.310877 0.317948 -0.632724
O14   O     O_3   0.691413 0.681151 0.258076 -0.615655
O15   O     O_2   0.808210 0.700130 0.534600 -0.454974
O16   O     O_3   0.055070 0.637380 0.405640 -0.495942
O17   O     O_2   0.956453 0.785615 0.463638 -0.483254
O18   O     O_2   0.459726 0.733696 0.821596 -0.301815
O19   O     O_2   0.633030 0.624526 0.771135 -0.331612
O20   O     O_3   0.765373 0.773206 0.813520 -0.491394
O21   O     O_2   0.153711 0.250511 0.924032 -0.266320
O22   O     O_2   0.324813 0.199825 0.825771 -0.265188
O23   O     O_3   0.024050 0.772553 0.331827 -0.592508
O24   O     O_3   0.308256 0.358990 0.864726 -0.527671
O25   O     O_2   0.303270 0.557240 0.673830 -0.432548
O26   O     O_3   0.056430 0.549930 0.585140 -0.510884
O27   O     O_3   0.547120 0.406930 0.630200 -0.477386
O28   O     O_3   0.149496 0.689126 0.681757 -0.625098
O29   O     O_3   0.631540 0.400000 0.463730 -0.437889
O30   O     O_3   0.134620 0.362690 0.594370 -0.514786
P1    P     P_3+3 0.058810 0.419740 0.337290 1.021595
P2    P     P_3+3 0.634670 0.689830 0.556010 0.982141
P3    P     P_3+3 0.080712 0.745010 0.412427 0.943404
P4    P     P_3+3 0.130890 0.580330 0.662710 1.023000
P5    P     P_3+3 0.116425 0.255682 0.591941 0.896796
P6    P     P_3+3 0.619257 0.587169 0.278496 0.955829
P7    P     P_3+3 0.559523 0.293620 0.440608 0.980398
P8    P     P_3+3 0.576562 0.406445 0.720398 1.026406
S1    S     S_3+6 0.601496 0.714016 0.776198 -0.068278
S2    S     S_3+6 0.211628 0.264710 0.853565 -0.018460

loop_
_geom_bond_atom_site_label_1
_geom_bond_atom_site_label_2
_ccdc_geom_bond_type
O1    P1    D    
C4    H26   S    
Ba2   O26   S    
C17   C18   A    
Ba1   O10   S    
C34   H11   S    
C12   O14   S    
C1    H8    S    
C25   C31   A    
Ba2   O27   S    
C47   O13   S    
O23   P3    S    
C24   C25   A    
C15   C21   A    
O3    P5    S    
C10   C26   S    
C32   C38   A    
C33   C35   A    
C7    C14   A    
C22   C24   A    
C32   C33   A    
C50   H5    S    
C47   H45   S    
O11   P6    D    
Ba1   O15   S    
C45   O3    S    
C19   H38   S    
O16   P3    S    
Ba2   O30   S    
C29   H40   S    
C30   H41   S    
C48   H59   S    
Ba1   O1    S    
C2    C11   A    
C44   P5    S    
C23   O7    S    
Ba1   O4    S    
C50   H4    S    
H55   O24   S    
O22   S2    D    
C16   H51   S    
C36   N1    S    
C9    P1    S    
C5    P8    S    
C31   H42   S    
O21   S2    D    
C6    C7    A    
C16   H16   S    
O12   P2    S    
O14   P6    S    
C39   H43   S    
C54   H28   S    
C33   P2    S    
C53   H25   S    
O29   P7    S    
O10   P6    S    
C45   C51   S    
C52   H21   S    
C3    H29   S    
O5    P2    S    
C40   H23   S    
C19   C20   A    
C2    C54   A    
C40   H12   S    
Ba2   O25   S    
C39   C41   A    
C51   H19   S    
O24   S2    S    
C41   P7    S    
C14   I1    S    
C4    O23   S    
C49   O12   S    
C34   H14   S    
C28   O28   S    
Ba2   O4    S    
Ba2   P4    S    
C36   C37   A    
C4    C16   S    
C44   C46   A    
C8    H31   S    
O15   P2    D    
C28   H53   S    
C49   C50   S    
O4    P1    S    
H54   O20   S    
C23   H9    S    
C45   H17   S    
C3    C10   A    
C37   C38   A    
C3    C5    A    
Ba2   O29   S    
C43   C44   A    
C46   H47   S    
C49   S1    S    
C32   H48   S    
C38   P3    S    
C40   H34   S    
C1    H15   S    
Ba1   O5    S    
C35   C36   A    
C18   H36   S    
C9    C14   A    
C29   C30   A    
C42   N2    S    
C4    H37   S    
C51   S2    S    
C15   H33   S    
Ba1   P2    S    
C49   H2    S    
C21   C26   A    
C2    P4    S    
Ba1   P1    S    
C41   C43   A    
C10   C54   A    
C1    C12   S    
C47   H56   S    
O28   P4    S    
O18   S1    D    
O25   P4    D    
C7    P6    S    
C6    C13   A    
C39   C42   A    
C20   C22   A    
Ba1   O29   S    
C51   H20   S    
O30   P5    S    
C53   H27   S    
Ba1   O16   S    
C43   H50   S    
O27   P8    S    
C27   H39   S    
C12   H1    S    
C52   C53   S    
C13   C22   S    
C28   H52   S    
C17   H35   S    
C23   H10   S    
C45   H18   S    
O9    P8    S    
Ba2   O6    S    
C52   O9    S    
O19   S1    D    
C8    C13   A    
C48   H57   S    
C30   C31   A    
C16   H49   S    
O26   P4    S    
Ba1   O26   S    
C50   H6    S    
N1    N2    D    
C53   H24   S    
O20   S1    S    
C37   H44   S    
C35   H46   S    
O17   P3    D    
C12   H7    S    
Ba1   Ba2   S    
C11   H32   S    
O2    P5    D    
C15   C17   A    
C6    H30   S    
C34   H13   S    
O13   P1    S    
C8    C9    A    
C23   C34   S    
O7    P7    S    
C5    C11   A    
C18   C19   A    
C24   C27   A    
C27   C29   A    
C47   C48   S    
O6    P7    D    
C25   C26   A    
C20   C21   A    
C28   C40   S    
C48   H58   S    
Ba2   O5    S    
C42   C46   A    
C1    H3    S    
C52   H22   S    
O8    P8    D    
