data_mof_unit_44628.cif
_audit_creation_date              2012-12-10T20:26:28-0500
_audit_creation_method            fapswitch 2.2
_symmetry_space_group_name_H-M    P1
_symmetry_Int_Tables_number       1
_space_group_crystal_system       triclinic
_cell_length_a                    10.659573
_cell_length_b                    10.714703
_cell_length_c                    9.91204
_cell_angle_alpha                 89.495592
_cell_angle_beta                  87.945022
_cell_angle_gamma                 90.57338
_cell_volume                      1131.26303283

loop_
_atom_site_label
_atom_site_type_symbol
_atom_type_description
_atom_site_fract_x
_atom_site_fract_y
_atom_site_fract_z
_atom_type_partial_charge
C1    C     C_R   0.504086 0.260035 0.500064 0.873829
C2    C     C_R   0.598232 0.549725 0.065544 0.212199
C3    C     C_R   0.598825 0.546004 0.922347 -0.165750
C4    C     C_R   0.262708 0.507310 0.502183 0.938018
C5    C     C_R   0.394039 0.466463 0.933766 0.122789
C6    C     C_3   0.326487 0.343116 0.933633 -0.160581
C7    C     C_3   0.332746 0.339688 0.087673 0.303294
C8    C     C_R   0.503835 0.739931 0.499377 0.866220
C9    C     C_R   0.737553 0.499743 0.497906 0.929875
C10   C     C_2   0.935611 0.565890 0.402906 -0.183084
C11   C     C_2   0.870187 0.496120 0.493073 -0.325929
C12   C     C_R   0.524503 0.128682 0.498728 -0.103006
C13   C     C_2   0.070996 0.560637 0.397626 -0.119317
C14   C     C_2   0.131740 0.531588 0.508813 -0.375172
C15   C     C_R   0.531918 0.062721 0.619557 0.090696
C16   C     C_3   0.709714 0.607866 0.128303 -0.848829
C17   C     C_3   0.194029 0.350874 0.878798 -0.771061
C18   C     C_3   0.178122 0.230270 0.208179 0.123452
C19   C     C_3   0.044763 0.236391 0.267403 -0.828928
C20   C     C_3   0.512868 0.870626 0.866476 -0.860024
C21   C     C_R   0.540566 0.065906 0.375615 -0.235501
C22   C     C_R   0.540101 0.936711 0.375330 -0.232532
C23   C     C_R   0.523500 0.871508 0.498144 -0.134248
C24   C     C_R   0.531459 0.934991 0.619715 0.142262
C25   C     C_3   0.448624 0.927545 0.745249 -0.019030
C26   C     C_3   0.450879 0.068968 0.744957 -0.511811
C27   C     C_R   0.395625 0.463799 0.076079 0.119499
H1    H     H_    0.889804 0.624493 0.330207 0.160570
H2    H     H_    0.543830 0.889003 0.279365 0.171883
H3    H     H_    0.354148 0.886895 0.727789 0.165023
H4    H     H_    0.357468 0.110052 0.726921 0.181435
H5    H     H_    0.679897 0.669007 0.212702 0.264703
H6    H     H_    0.773111 0.532901 0.160793 0.250109
H7    H     H_    0.764120 0.667848 0.054759 0.194954
H8    H     H_    0.199260 0.352697 0.767083 0.234609
H9    H     H_    0.138637 0.266731 0.910476 0.229139
H10   H     H_    0.144422 0.435415 0.915733 0.256268
H11   H     H_    0.241100 0.200875 0.289671 0.140676
H12   H     H_    0.503363 0.110069 0.828993 0.204557
H13   H     H_    0.180263 0.158974 0.126938 0.124569
H14   H     H_    0.980540 0.271770 0.190310 0.259516
H15   H     H_    0.012746 0.141820 0.300976 0.201473
H16   H     H_    0.041451 0.299152 0.355792 0.263889
H17   H     H_    0.611457 0.904383 0.872505 0.240237
H18   H     H_    0.460170 0.895284 0.961026 0.231839
H19   H     H_    0.512290 0.768034 0.857824 0.266388
H20   H     H_    0.678906 0.581453 0.863159 0.168585
H21   H     H_    0.383887 0.270529 0.884767 0.143052
H22   H     H_    0.397712 0.267866 0.127052 0.029928
H23   H     H_    0.913161 0.434799 0.565419 0.140196
H24   H     H_    0.119883 0.576257 0.300767 0.200796
H25   H     H_    0.085341 0.528630 0.608168 0.154609
H26   H     H_    0.544461 0.115357 0.279734 0.164526
N1    N     N_R   0.499170 0.499140 0.142800 -0.139881
N2    N     N_R   0.499170 0.499180 0.857150 -0.132809
O1    O     O_R   0.500020 0.316790 0.614690 -0.611941
O2    O     O_R   0.500000 0.316760 0.385350 -0.629758
O3    O     O_R   0.319080 0.500020 0.614640 -0.621616
O4    O     O_R   0.319070 0.499980 0.385300 -0.577110
O5    O     O_R   0.500000 0.683240 0.614650 -0.616475
O6    O     O_R   0.499980 0.683210 0.385310 -0.632258
O7    O     O_R   0.680930 0.500020 0.614700 -0.624060
O8    O     O_R   0.680920 0.499980 0.385360 -0.615596
O9    O     O_3   0.214888 0.348958 0.156938 -0.572815
Zn1   Zn    Zn3+2 0.500010 0.500020 0.653130 0.936446
Zn2   Zn    Zn3+2 0.499990 0.499980 0.346870 0.947012

loop_
_geom_bond_atom_site_label_1
_geom_bond_atom_site_label_2
_ccdc_geom_bond_type
C23   C24   A    
C19   H15   S    
C6    C7    S    
N1    Zn2   S    
C22   H2    S    
C1    O2    A    
C16   H6    S    
C16   H5    S    
C2    C16   S    
C8    O6    A    
O3    Zn1   S    
C20   H18   S    
O7    Zn1   S    
C12   C15   A    
C5    C27   A    
O2    Zn2   S    
C9    O7    A    
C2    C3    A    
C18   H11   S    
O8    Zn2   S    
C26   H4    S    
C11   H23   S    
C13   H24   S    
C21   C22   A    
C8    O5    A    
C21   H26   S    
C9    C11   S    
C18   O9    S    
C1    C12   S    
C6    H21   S    
C12   C21   A    
C4    O4    A    
C3    H20   S    
C15   C24   A    
C17   H9    S    
C1    O1    A    
C19   H16   S    
O5    Zn1   S    
C20   H17   S    
O4    Zn2   S    
C4    C14   S    
C5    C6    S    
C7    O9    S    
C2    N1    A    
C26   H12   S    
C27   N1    A    
N2    Zn1   S    
C10   H1    S    
O1    Zn1   S    
C20   H19   S    
C8    C23   S    
C7    C27   S    
C24   C25   S    
C7    H22   S    
C18   C19   S    
C10   C11   D    
C4    O3    A    
C25   H3    S    
C10   C13   S    
C6    C17   S    
C18   H13   S    
C22   C23   A    
C15   C26   S    
C17   H10   S    
C17   H8    S    
C13   C14   D    
C16   H7    S    
C25   C26   S    
C9    O8    A    
C3    N2    A    
O6    Zn2   S    
C5    N2    A    
C14   H25   S    
C19   H14   S    
C20   C25   S    
