data_mof_unit_26485.cif
_audit_creation_date              2013-03-05T15:49:56-0500
_audit_creation_method            fapswitch 2.2
_symmetry_space_group_name_H-M    P1
_symmetry_Int_Tables_number       1
_space_group_crystal_system       triclinic
_cell_length_a                    13.583884
_cell_length_b                    13.538069
_cell_length_c                    27.617357
_cell_angle_alpha                 90.056181
_cell_angle_beta                  90.13958
_cell_angle_gamma                 119.98725
_cell_volume                      4398.92470683

loop_
_atom_site_label
_atom_site_type_symbol
_atom_site_description
_atom_site_fract_x
_atom_site_fract_y
_atom_site_fract_z
_atom_type_partial_charge
O1    O     O_R   0.302900 0.805360 0.446400 -0.493629
O2    O     O_R   0.522090 0.841370 0.450730 -0.495231
C1    C     C_R   0.619641 0.898397 0.431332 0.542830
O3    O     O_R   0.693280 0.995650 0.447220 -0.498174
O4    O     O_R   0.657260 0.178740 0.451050 -0.484027
C2    C     C_R   0.600111 0.219518 0.431584 0.546405
O5    O     O_R   0.502640 0.195380 0.446850 -0.506777
O6    O     O_R   0.319630 0.976590 0.450330 -0.488259
C3    C     C_R   0.279365 0.878914 0.430540 0.560120
O7    O     O_R   0.303680 0.807790 0.552740 -0.501924
O8    O     O_R   0.522820 0.843620 0.549310 -0.518772
C4    C     C_R   0.619592 0.901412 0.569463 0.525346
O9    O     O_R   0.694060 0.998080 0.553560 -0.466394
O10   O     O_R   0.657980 0.180990 0.549630 -0.446960
C5    C     C_R   0.602873 0.225208 0.567816 0.532990
O11   O     O_R   0.503420 0.197810 0.553190 -0.539273
O12   O     O_R   0.320350 0.978840 0.548910 -0.479043
C6    C     C_R   0.331743 0.903442 0.574010 0.547368
Cr1   Cr    Cr6+3 0.417720 0.831920 0.499820 1.042516
Cr2   Cr    Cr6+3 0.668190 0.085770 0.500360 1.104371
Cr3   Cr    Cr6+3 0.414060 0.082260 0.499840 1.040547
O13   O     O_3   0.499990 0.999990 0.500010 -0.291192
C7    C     C_1   0.630241 0.265037 0.383877 -0.011773
C8    C     C_R   0.757202 0.381058 0.270028 -0.110164
C9    C     C_R   0.770260 0.396510 0.219964 -0.007281
C10   C     C_R   0.569786 0.250494 0.208712 0.018154
C11   C     C_R   0.556781 0.238775 0.259699 0.021374
C12   C     C_R   0.652124 0.304191 0.289943 0.021097
C13   C     C_R   0.676635 0.330970 0.189136 0.051273
C14   C     C_1   0.688420 0.356050 0.138020 -0.058361
C15   C     C_1   0.644733 0.288822 0.341597 -0.060025
C16   C     C_1   0.699013 0.385763 0.096444 -0.020416
H1    H     H_    0.829216 0.430047 0.293831 0.121749
C17   C     C_1   0.233129 0.863241 0.382575 -0.010571
C18   C     C_R   0.259846 0.830305 0.258108 -0.122305
C19   C     C_R   0.242798 0.823830 0.207996 -0.118093
C20   C     C_R   0.078081 0.846319 0.219331 -0.111810
C21   C     C_R   0.095528 0.853435 0.269473 -0.108950
C22   C     C_R   0.186191 0.844884 0.288976 0.030793
C23   C     C_R   0.151695 0.831559 0.188483 0.031290
C24   C     C_1   0.127528 0.815189 0.137395 -0.062801
C25   C     C_1   0.206830 0.853695 0.340381 -0.059391
C26   C     C_1   0.098524 0.795041 0.095573 -0.014781
H2    H     H_    0.330497 0.823951 0.272828 0.117199
H3    H     H_    0.299583 0.811301 0.184605 0.113765
H4    H     H_    0.006393 0.850873 0.204652 0.115810
H5    H     H_    0.038205 0.864924 0.292938 0.116945
C27   C     C_1   0.634349 0.867712 0.383377 -0.012259
C28   C     C_R   0.665197 0.750868 0.271942 -0.120677
C29   C     C_R   0.671392 0.736658 0.222180 -0.115187
C30   C     C_R   0.639749 0.894692 0.206600 -0.092558
C31   C     C_R   0.633257 0.910034 0.256529 0.014247
C32   C     C_R   0.646743 0.837347 0.289499 0.053054
C33   C     C_R   0.658864 0.808586 0.189480 0.022173
C34   C     C_1   0.673109 0.797941 0.138547 -0.059779
C35   C     C_1   0.641655 0.850494 0.341087 -0.055213
C36   C     C_1   0.691476 0.787353 0.096786 -0.011350
H6    H     H_    0.675620 0.694813 0.296780 0.116784
H7    H     H_    0.687402 0.670411 0.209201 0.118063
H8    H     H_    0.631047 0.950775 0.181104 0.112219
C37   C     C_R   0.644628 0.290357 0.612872 -0.008167
C38   C     C_R   0.737198 0.294613 0.638214 0.188472
C39   C     C_R   0.744596 0.312815 0.687834 -0.124482
C40   C     C_R   0.669348 0.338712 0.711602 -0.002360
C41   C     C_R   0.590438 0.355474 0.684682 -0.027198
C42   C     C_R   0.576812 0.327843 0.635638 -0.150685
C43   C     C_R   0.580443 0.293395 0.793460 -0.110995
C44   C     C_R   0.589650 0.313007 0.843188 -0.116748
C45   C     C_R   0.794501 0.430631 0.834725 -0.117583
C46   C     C_R   0.784705 0.415384 0.785297 -0.119704
C47   C     C_R   0.677598 0.349342 0.764231 0.026071
C48   C     C_R   0.696745 0.383950 0.863721 0.024244
H9    H     H_    0.497531 0.238600 0.777597 0.121690
H10   H     H_    0.513647 0.276594 0.865197 0.135844
H11   H     H_    0.809275 0.305879 0.708108 0.154306
H12   H     H_    0.860599 0.458943 0.763339 0.126221
H13   H     H_    0.878253 0.487067 0.849567 0.149007
H14   H     H_    0.509394 0.330780 0.615759 0.153976
C49   C     C_R   0.304141 0.895321 0.625803 0.015343
C50   C     C_R   0.338787 0.994542 0.653457 -0.123041
C51   C     C_R   0.315109 0.986552 0.702961 -0.061976
C52   C     C_R   0.255026 0.879064 0.724997 0.055110
C53   C     C_R   0.223915 0.780522 0.697677 -0.079424
C54   C     C_R   0.248890 0.788461 0.648695 -0.088756
C55   C     C_R   0.237712 0.795604 0.806150 -0.162423
C56   C     C_R   0.185831 0.763523 0.851216 -0.139742
C57   C     C_R   0.101211 0.882135 0.838446 -0.107093
C58   C     C_R   0.149301 0.911713 0.792261 0.215811
C59   C     C_R   0.216947 0.866170 0.775595 -0.003044
C60   C     C_R   0.114657 0.803995 0.867042 -0.026639
H15   H     H_    0.384255 0.077915 0.636833 0.131492
H16   H     H_    0.290013 0.760801 0.794032 0.170194
H17   H     H_    0.198529 0.704319 0.873018 0.151231
H18   H     H_    0.341184 0.063611 0.723792 0.128245
H19   H     H_    0.045331 0.912959 0.850268 0.164989
H20   H     H_    0.177360 0.696823 0.714043 0.142958
H21   H     H_    0.222827 0.710330 0.628711 0.164493
C61   C     C_R   0.625948 0.878977 0.620416 0.045705
C62   C     C_R   0.616355 0.776632 0.636504 -0.116306
C63   C     C_R   0.612040 0.755228 0.686156 -0.045230
C64   C     C_R   0.612615 0.834054 0.719591 0.072483
C65   C     C_R   0.618218 0.934377 0.702931 -0.107594
C66   C     C_R   0.625703 0.956981 0.653746 -0.084549
C67   C     C_R   0.711332 0.908715 0.796968 -0.144954
C68   C     C_R   0.737135 0.893673 0.843914 -0.128049
C69   C     C_R   0.578474 0.699975 0.843167 -0.116151
C70   C     C_R   0.549898 0.714778 0.795877 0.203216
C71   C     C_R   0.621060 0.818939 0.771851 0.009303
C72   C     C_R   0.674164 0.787813 0.866664 -0.026960
H22   H     H_    0.613399 0.714595 0.610873 0.112925
H23   H     H_    0.766641 0.989062 0.779197 0.151932
H24   H     H_    0.810802 0.963266 0.861278 0.158600
H25   H     H_    0.609914 0.678323 0.698542 0.130319
H26   H     H_    0.527775 0.618867 0.861127 0.169968
H27   H     H_    0.618192 0.995847 0.728089 0.110298
H28   H     H_    0.628270 0.034284 0.641516 0.128437
O14   O     O_R   0.819150 0.845650 0.033320 -0.505417
O15   O     O_R   0.006060 0.815720 0.028680 -0.493101
C73   C     C_R   0.049566 0.761220 0.048169 0.545590
O16   O     O_R   0.028100 0.664460 0.032550 -0.505701
O17   O     O_R   0.811290 0.477490 0.029660 -0.493715
C74   C     C_R   0.713836 0.434823 0.049433 0.544220
O18   O     O_R   0.638120 0.455970 0.034270 -0.505125
O19   O     O_R   0.667540 0.672320 0.030160 -0.493293
C75   C     C_R   0.723227 0.770814 0.049388 0.545290
O20   O     O_R   0.814460 0.840990 0.926980 -0.514791
O21   O     O_R   0.001710 0.811400 0.930110 -0.500372
C76   C     C_R   0.045658 0.757217 0.910804 0.541729
O22   O     O_R   0.023410 0.659800 0.926210 -0.516146
O23   O     O_R   0.806940 0.473170 0.931090 -0.506301
C77   C     C_R   0.708682 0.429709 0.912249 0.538556
O24   O     O_R   0.633420 0.451310 0.927930 -0.507418
O25   O     O_R   0.663190 0.668000 0.931580 -0.499600
C78   C     C_R   0.717263 0.765853 0.911814 0.545895
Cr4   Cr    Cr6+3 0.908000 0.821090 0.979770 1.034301
Cr5   Cr    Cr6+3 0.912420 0.571130 0.979880 1.029068
Cr6   Cr    Cr6+3 0.657970 0.566940 0.980940 1.035962
O26   O     O_3   0.826130 0.653050 0.980200 -0.249014
C79   C     C_3   0.612753 0.004777 0.272501 -0.397226
H29   H     H_    0.604933 0.009007 0.312277 0.143545
H30   H     H_    0.683985 0.087975 0.260197 0.146286
H31   H     H_    0.532894 0.991911 0.255752 0.120281
N1    N     N_R   0.822358 0.278461 0.614642 0.091832
O27   O     O_R   0.865915 0.223989 0.636512 -0.322066
O28   O     O_R   0.870196 0.334714 0.575287 -0.306215
C80   C     C_3   0.518915 0.400466 0.706579 -0.355024
H32   H     H_    0.512719 0.460680 0.681154 0.147133
H33   H     H_    0.432013 0.328635 0.713743 0.168382
H34   H     H_    0.556648 0.448478 0.740580 0.175989
C81   C     C_3   0.884172 0.484453 0.199973 -0.390606
H35   H     H_    0.948377 0.527533 0.229088 0.134757
H36   H     H_    0.916321 0.442838 0.174937 0.145083
H37   H     H_    0.875399 0.550825 0.179994 0.140872
N2    N     N_R   0.120050 0.979109 0.761676 0.067477
O29   O     O_R   0.082963 0.945259 0.717859 -0.309663
O30   O     O_R   0.111187 0.062763 0.780167 -0.328127
C82   C     C_3   0.468962 0.177411 0.176035 -0.393763
H38   H     H_    0.489251 0.190577 0.136934 0.139082
H39   H     H_    0.437338 0.085782 0.183357 0.129100
H40   H     H_    0.399743 0.196613 0.182794 0.139015
N3    N     N_R   0.449776 0.624382 0.773050 0.059902
O31   O     O_R   0.408548 0.519378 0.787219 -0.347114
O32   O     O_R   0.391942 0.647614 0.742038 -0.354850
C83   C     C_3   0.440815 0.157781 0.280982 -0.389897
H41   H     H_    0.439645 0.155574 0.321052 0.146510
H42   H     H_    0.378796 0.183826 0.269440 0.138904
H43   H     H_    0.411014 0.069683 0.268275 0.131668

loop_
_geom_bond_atom_site_label_1
_geom_bond_atom_site_label_2
_geom_bond_distance
_ccdc_geom_bond_type
Cr4   O26   1.970630 S    
C57   C58   1.399146 A    
C49   C54   1.405204 A    
O25   Cr6   1.908490 S    
C82   H38   1.107491 S    
O25   C78   1.274037 A    
C45   H13   1.083657 S    
C18   C19   1.398053 A    
C17   C25   1.205701 T    
C38   N1    1.437381 S    
C76   O22   1.270823 A    
N3    O31   1.301500 A    
O4    Cr2   1.910476 S    
C55   C56   1.390574 A    
O8    Cr1   1.922349 S    
C10   C11   1.418721 A    
C64   C65   1.400080 A    
C52   C59   1.471220 S    
C69   H26   1.082973 S    
C29   H7    1.083901 S    
C83   H41   1.107004 S    
C20   C21   1.399416 A    
O21   Cr4   1.921882 S    
C20   C23   1.403302 A    
O2    C1    1.273033 A    
C36   C75   1.431217 S    
O4    C2    1.274117 A    
C79   H31   1.108883 S    
C69   C70   1.404401 A    
C2    C7    1.426629 S    
C44   H10   1.083172 S    
C61   C66   1.401447 A    
C80   H34   1.109237 S    
C1    C27   1.431685 S    
C31   C79   1.507945 S    
C1    O3    1.267607 A    
C10   C82   1.518805 S    
C27   C35   1.204721 T    
C40   C47   1.458945 S    
O15   C73   1.272188 A    
C65   H27   1.083701 S    
C65   C66   1.385473 A    
C37   C42   1.403933 A    
C70   N3    1.440614 S    
C6    C49   1.469830 S    
C81   H37   1.110744 S    
C57   H19   1.083741 S    
O12   C6    1.305819 A    
C70   C71   1.416184 A    
C46   C47   1.396138 A    
C43   H9    1.082811 S    
N2    O30   1.301292 A    
C64   C71   1.470151 S    
O2    Cr1   1.921665 S    
C82   H39   1.110154 S    
Cr3   O13   1.975494 S    
C24   C26   1.205593 T    
C45   C46   1.376537 A    
C67   C68   1.383831 A    
N3    O32   1.301493 A    
C55   H16   1.083604 S    
C51   C52   1.403906 A    
C22   C25   1.439654 S    
C80   H33   1.110094 S    
C83   H43   1.106966 S    
C9    C13   1.412399 A    
C42   H14   1.084275 S    
O1    Cr1   2.040997 S    
C5    O11   1.273561 A    
C30   C31   1.403775 A    
C16   C74   1.427111 S    
O19   Cr6   1.926113 S    
C19   C23   1.399705 A    
Cr1   O13   1.970850 S    
O1    C3    1.266502 A    
C8    C9    1.396974 A    
Cr5   O26   1.975723 S    
C56   C60   1.398959 A    
C55   C59   1.405028 A    
O6    C3    1.273023 A    
O24   Cr6   2.043598 S    
O5    Cr3   2.026267 S    
C62   H22   1.083065 S    
O12   Cr3   1.909910 S    
C28   H6    1.083710 S    
C43   C44   1.391956 A    
C9    C81   1.510145 S    
O16   Cr5   2.045029 S    
C7    C15   1.201814 T    
C45   C48   1.404027 A    
C18   C22   1.402847 A    
C13   C14   1.442736 S    
C56   H17   1.083207 S    
O10   Cr2   1.925805 S    
C11   C83   1.519352 S    
O22   Cr5   2.028869 S    
C53   C54   1.386608 A    
O7    Cr1   2.036804 S    
C44   C48   1.399485 A    
C38   C39   1.386580 A    
O6    Cr3   1.927388 S    
C21   H5    1.083423 S    
C19   H3    1.083538 S    
C29   C33   1.399776 A    
C4    O9    1.268387 A    
C73   O16   1.266295 A    
C18   H2    1.083705 S    
N2    O29   1.301290 A    
O17   C74   1.274392 A    
C23   C24   1.439430 S    
C68   H24   1.083205 S    
Cr2   O13   1.979041 S    
O20   Cr4   2.036310 S    
C52   C53   1.400179 A    
C82   H40   1.109785 S    
C34   C36   1.204066 T    
C46   H12   1.083674 S    
C3    C17   1.434037 S    
C81   H36   1.110332 S    
C49   C50   1.404788 A    
C54   H21   1.082742 S    
O21   C76   1.271713 A    
O14   Cr4   2.040411 S    
C67   C71   1.402285 A    
C31   C32   1.418492 A    
C48   C77   1.450215 S    
C80   H32   1.110885 S    
C32   C35   1.441740 S    
N1    O28   1.301506 A    
C68   C72   1.399748 A    
C33   C34   1.437236 S    
O9    Cr2   2.027171 S    
C72   C78   1.468685 S    
C81   H35   1.111095 S    
C4    C61   1.451342 S    
C12   C15   1.438332 S    
O23   Cr5   1.927436 S    
C63   H25   1.082822 S    
C8    C12   1.393900 A    
C50   C51   1.397128 A    
C67   H23   1.083725 S    
C79   H29   1.108071 S    
O11   Cr3   2.044518 S    
C2    O5    1.268108 A    
Cr6   O26   1.978806 S    
O18   Cr6   2.024906 S    
C8    H1    1.084641 S    
C62   C63   1.397121 A    
C30   C33   1.397126 A    
C40   C41   1.411660 A    
C50   H15   1.082481 S    
C83   H42   1.109748 S    
O23   C77   1.268639 A    
C20   H4    1.083775 S    
C77   O24   1.272410 A    
C14   C16   1.201968 T    
C51   H18   1.083154 S    
C79   H30   1.110543 S    
C21   C22   1.399865 A    
C39   H11   1.083705 S    
O7    C6    1.292761 A    
C28   C32   1.400528 A    
C53   H20   1.083635 S    
C63   C64   1.407571 A    
C61   C62   1.398274 A    
C66   H28   1.083882 S    
C43   C47   1.405061 A    
C41   C42   1.391888 A    
O17   Cr5   1.912091 S    
C37   C38   1.413363 A    
C39   C40   1.399873 A    
O3    Cr2   2.042813 S    
C58   C59   1.415691 A    
O20   C78   1.267807 A    
C10   C13   1.417820 A    
C28   C29   1.396077 A    
C57   C60   1.403634 A    
C26   C73   1.433876 S    
C11   C12   1.416364 A    
C74   O18   1.267924 A    
C5    C37   1.463664 S    
C60   C76   1.467638 S    
O10   C5    1.272847 A    
C30   H8    1.084725 S    
C41   C80   1.508086 S    
O14   C75   1.266986 A    
O15   Cr4   1.921563 S    
N1    O27   1.301532 A    
O8    C4    1.271779 A    
C58   N2    1.437403 S    
O19   C75   1.273024 A    
C69   C72   1.405010 A    
