data_mof_unit_14108.cif
_audit_creation_date              2012-12-11T15:26:00-0500
_audit_creation_method            fapswitch 2.2
_symmetry_space_group_name_H-M    P1
_symmetry_Int_Tables_number       1
_space_group_crystal_system       triclinic
_cell_length_a                    24.51518
_cell_length_b                    17.088204
_cell_length_c                    15.475273
_cell_angle_alpha                 90.000025
_cell_angle_beta                  51.06482
_cell_angle_gamma                 90.0
_cell_volume                      5042.7777616

loop_
_atom_site_label
_atom_site_type_symbol
_atom_type_description
_atom_site_fract_x
_atom_site_fract_y
_atom_site_fract_z
_atom_type_partial_charge
C1    C     C_R   0.340481 0.126956 0.784455 -0.148949
C2    C     C_2   0.311019 0.831864 0.970133 0.014054
C3    C     C_2   0.339371 0.232761 0.898768 0.019886
C4    C     C_2   0.642373 0.742481 0.145001 0.000794
C5    C     C_2   0.160629 0.732761 0.101232 0.019886
C6    C     C_2   0.857628 0.242481 0.854998 0.000793
C7    C     C_2   0.808168 0.655700 0.980228 -0.002711
C8    C     C_2   0.188981 0.331864 0.029866 0.014054
C9    C     C_2   0.761767 0.148975 0.957860 -0.130091
C10   C     C_2   0.241486 0.841045 0.031709 -0.134372
C11   C     C_2   0.304829 0.284037 0.882925 -0.143982
C12   C     C_R   0.649414 0.857923 0.242167 -0.132623
C13   C     C_2   0.691875 0.700897 0.137025 -0.124019
C14   C     C_2   0.195171 0.784036 0.117075 -0.143982
C15   C     C_2   0.808126 0.200898 0.862975 -0.124019
C16   C     C_2   0.738234 0.648975 0.042141 -0.130092
C17   C     C_2   0.258515 0.341045 0.968291 -0.134371
C18   C     C_R   0.591500 0.142213 0.592442 -0.119582
C19   C     C_R   0.385942 0.898078 0.406185 -0.139775
C20   C     C_R   0.412448 0.143646 0.405279 -0.124513
C21   C     C_R   0.613106 0.897047 0.594772 -0.129006
C22   C     C_R   0.087553 0.643646 0.594721 -0.124513
C23   C     C_R   0.666431 0.108101 0.198172 -0.140148
C24   C     C_R   0.886894 0.397047 0.405228 -0.129006
C25   C     C_R   0.908500 0.642213 0.407558 -0.119583
C26   C     C_R   0.114058 0.398078 0.593815 -0.139775
C27   C     C_R   0.662495 0.144337 0.407803 -0.133933
C28   C     C_R   0.311355 0.898656 0.590123 -0.127619
C29   C     C_R   0.336110 0.143502 0.589894 -0.132747
C30   C     C_R   0.688658 0.899292 0.410851 -0.143595
C31   C     C_R   0.163890 0.643501 0.410106 -0.132747
C32   C     C_R   0.811342 0.399292 0.589149 -0.143596
C33   C     C_R   0.837505 0.644337 0.592197 -0.133932
C34   C     C_R   0.335400 0.885445 0.796109 -0.122857
C35   C     C_R   0.188645 0.398656 0.409877 -0.127619
C36   C     C_R   0.576117 0.107726 0.197754 -0.150067
C37   C     C_R   0.425916 0.886489 0.797666 -0.146103
C38   C     C_R   0.431268 0.127125 0.784183 -0.139199
C39   C     C_R   0.558437 0.858595 0.241111 -0.143697
C40   C     C_R   0.068732 0.627125 0.215817 -0.139199
C41   C     C_R   0.941563 0.358594 0.758889 -0.143697
C42   C     C_R   0.923883 0.607727 0.802245 -0.150067
C43   C     C_R   0.074084 0.386490 0.202334 -0.146104
C44   C     C_R   0.368196 0.162976 0.828900 0.090674
C45   C     C_R   0.833569 0.608102 0.801828 -0.140149
C46   C     C_R   0.616710 0.815733 0.209224 0.087606
C47   C     C_R   0.646094 0.127522 0.135320 0.092950
C48   C     C_R   0.356689 0.863519 0.857099 0.084152
C49   C     C_R   0.853906 0.627524 0.864678 0.092949
C50   C     C_R   0.143311 0.363520 0.142900 0.084153
C51   C     C_R   0.131804 0.662976 0.171100 0.090673
C52   C     C_R   0.883291 0.315733 0.790775 0.087607
C53   C     C_R   0.639736 0.188267 0.500666 0.061765
C54   C     C_R   0.316557 0.884688 0.496730 0.064845
C55   C     C_R   0.361871 0.188657 0.496279 0.061863
C56   C     C_R   0.164600 0.385445 0.203891 -0.122857
C57   C     C_R   0.682732 0.884525 0.504791 0.065744
C58   C     C_R   0.138129 0.688657 0.503721 0.061863
C59   C     C_R   0.817268 0.384525 0.495209 0.065744
C60   C     C_R   0.860264 0.688267 0.499334 0.061765
C61   C     C_R   0.183443 0.384687 0.503270 0.064844
C62   C     C_R   0.277862 0.297227 0.597573 -0.255386
C63   C     C_R   0.807049 0.849887 0.405376 -0.258047
C64   C     C_R   0.725456 0.295200 0.398051 -0.254341
C65   C     C_R   0.192348 0.849011 0.598105 -0.255995
C66   C     C_R   0.774544 0.795200 0.601949 -0.254341
C67   C     C_R   0.159519 0.626956 0.215545 -0.148949
C68   C     C_R   0.307652 0.349011 0.401895 -0.255995
C69   C     C_R   0.222138 0.797226 0.402427 -0.255386
C70   C     C_R   0.692951 0.349887 0.594624 -0.258046
C71   C     C_R   0.728562 0.845737 0.606226 0.040759
C72   C     C_R   0.354967 0.300462 0.397061 0.042982
C73   C     C_R   0.268916 0.846993 0.397316 0.042317
C74   C     C_R   0.645949 0.301343 0.598502 0.041773
C75   C     C_R   0.231084 0.346993 0.602684 0.042318
C76   C     C_R   0.854051 0.801343 0.401498 0.041773
C77   C     C_R   0.771438 0.345737 0.393774 0.040759
C78   C     C_R   0.850586 0.357923 0.757833 -0.132623
C79   C     C_R   0.145033 0.800462 0.602939 0.042982
C80   C     C_R   0.740224 0.863620 0.506692 0.112486
C81   C     C_R   0.334291 0.264918 0.495773 0.113636
C82   C     C_R   0.258513 0.863729 0.496138 0.111431
C83   C     C_R   0.667931 0.264289 0.499949 0.114712
C84   C     C_R   0.241487 0.363729 0.503862 0.111432
C85   C     C_R   0.832069 0.764289 0.500051 0.114712
C86   C     C_R   0.759776 0.363620 0.493308 0.112486
C87   C     C_R   0.165709 0.764917 0.504227 0.113636
C88   C     C_2   0.691832 0.155696 0.019770 -0.002714
H1    H     H_    0.287651 0.133273 0.813172 0.092660
H2    H     H_    0.409007 0.902439 0.320030 0.106801
H3    H     H_    0.442150 0.156417 0.318589 0.110676
H4    H     H_    0.588920 0.899853 0.681509 0.106339
H5    H     H_    0.057850 0.656417 0.681411 0.110676
H6    H     H_    0.911080 0.399853 0.318491 0.106339
H7    H     H_    0.930951 0.652566 0.322931 0.102657
H8    H     H_    0.090993 0.402438 0.679970 0.106801
H9    H     H_    0.701628 0.159783 0.321739 0.094762
H10   H     H_    0.264129 0.903115 0.675281 0.084440
H11   H     H_    0.292321 0.157126 0.674263 0.087626
H12   H     H_    0.697153 0.843753 0.228771 0.094787
H13   H     H_    0.736344 0.904645 0.326244 0.086950
H14   H     H_    0.207679 0.657126 0.325737 0.087625
H15   H     H_    0.763656 0.404646 0.673756 0.086950
H16   H     H_    0.798372 0.659783 0.678261 0.094761
H17   H     H_    0.235871 0.403115 0.324719 0.084440
H18   H     H_    0.546678 0.104345 0.167474 0.085728
H19   H     H_    0.456116 0.886598 0.826746 0.088819
H20   H     H_    0.461889 0.134877 0.811544 0.083575
H21   H     H_    0.521587 0.843383 0.227529 0.093246
H22   H     H_    0.038111 0.634877 0.188456 0.083574
H23   H     H_    0.719296 0.105961 0.170447 0.084108
H24   H     H_    0.978413 0.343383 0.772470 0.093246
H25   H     H_    0.953323 0.604347 0.832525 0.085729
H26   H     H_    0.043884 0.386598 0.173254 0.088819
H27   H     H_    0.266263 0.279726 0.674726 0.118630
H28   H     H_    0.821771 0.871580 0.327717 0.117565
H29   H     H_    0.738508 0.276233 0.320420 0.120044
H30   H     H_    0.178444 0.869737 0.675611 0.116660
H31   H     H_    0.761492 0.776234 0.679580 0.120044
H32   H     H_    0.321555 0.369736 0.324389 0.116660
H33   H     H_    0.233737 0.779725 0.325274 0.118630
H34   H     H_    0.283201 0.883305 0.820980 0.088900
H35   H     H_    0.678229 0.371580 0.672283 0.117565
H36   H     H_    0.219160 0.878422 0.004398 0.118218
H37   H     H_    0.784584 0.115845 0.987875 0.126990
H38   H     H_    0.707096 0.715971 0.187353 0.129958
H39   H     H_    0.300568 0.275031 0.817794 0.129096
H40   H     H_    0.792903 0.215972 0.812648 0.129958
H41   H     H_    0.199432 0.775031 0.182206 0.129096
H42   H     H_    0.280840 0.378422 0.995602 0.118218
H43   H     H_    0.715417 0.615841 0.012128 0.126990
H44   H     H_    0.640463 0.828374 0.763864 0.091293
H45   H     H_    0.780704 0.605963 0.829553 0.084109
H46   H     H_    0.688747 0.906656 0.746235 0.108067
H47   H     H_    0.414189 0.263406 0.237874 0.088729
H48   H     H_    0.447855 0.339888 0.259797 0.106939
H49   H     H_    0.356059 0.830113 0.238727 0.091489
H50   H     H_    0.307694 0.908927 0.258480 0.110084
H51   H     H_    0.583565 0.267528 0.759362 0.086233
H52   H     H_    0.552252 0.342883 0.731385 0.108127
H53   H     H_    0.143941 0.330114 0.761274 0.091489
H54   H     H_    0.192306 0.408928 0.741520 0.110084
H55   H     H_    0.916436 0.767528 0.240638 0.086233
H56   H     H_    0.216799 0.383306 0.179020 0.088899
H57   H     H_    0.947747 0.842883 0.268615 0.108127
H58   H     H_    0.859537 0.328374 0.236136 0.091294
H59   H     H_    0.811253 0.406656 0.253764 0.108067
H60   H     H_    0.085811 0.763410 0.762127 0.088730
H61   H     H_    0.052144 0.839889 0.740200 0.106939
H62   H     H_    0.374675 0.818246 0.010125 0.087523
H63   H     H_    0.368779 0.738953 0.951125 0.108947
H64   H     H_    0.628017 0.159993 0.979031 0.093756
H65   H     H_    0.631788 0.243789 0.033168 0.105376
H66   H     H_    0.631509 0.768185 0.028899 0.099750
H67   H     H_    0.212349 0.633273 0.186828 0.092660
H68   H     H_    0.566429 0.712704 0.135611 0.099519
H69   H     H_    0.365942 0.194159 0.993145 0.095672
H70   H     H_    0.380712 0.289544 0.959878 0.093299
H71   H     H_    0.868494 0.268184 0.971097 0.099749
H72   H     H_    0.933574 0.212703 0.864382 0.099520
H73   H     H_    0.134058 0.694159 0.006855 0.095672
H74   H     H_    0.119287 0.789544 0.040122 0.093299
H75   H     H_    0.125325 0.318248 0.989873 0.087523
H76   H     H_    0.131221 0.238955 0.048873 0.108947
H77   H     H_    0.871988 0.660009 0.020959 0.093754
H78   H     H_    0.802847 0.343752 0.771228 0.094786
H79   H     H_    0.868209 0.743801 0.966824 0.105377
H80   H     H_    0.569049 0.152566 0.677069 0.102657
N1    N     N_R   0.388930 0.078160 0.705470 -0.037125
N2    N     N_R   0.419500 0.922160 0.443350 -0.041359
N3    N     N_R   0.419500 0.077840 0.443350 -0.042612
N4    N     N_R   0.580500 0.922160 0.556650 -0.041649
N5    N     N_R   0.080500 0.577840 0.556650 -0.042612
N6    N     N_R   0.919500 0.422160 0.443350 -0.041649
N7    N     N_R   0.919500 0.577840 0.443350 -0.042656
N8    N     N_R   0.080500 0.422160 0.556650 -0.041359
N9    N     N_R   0.626210 0.077590 0.443410 -0.039445
N10   N     N_R   0.373790 0.922410 0.556590 -0.038915
N11   N     N_R   0.373790 0.077590 0.556590 -0.038815
N12   N     N_R   0.611070 0.921840 0.294530 -0.040361
N13   N     N_R   0.626210 0.922410 0.443410 -0.038579
N14   N     N_R   0.126210 0.577590 0.443410 -0.038815
N15   N     N_R   0.873790 0.422410 0.556590 -0.038579
N16   N     N_R   0.873790 0.577590 0.556590 -0.039445
N17   N     N_R   0.126210 0.422410 0.443410 -0.038915
N18   N     N_R   0.554800 0.077270 0.294580 -0.037523
N19   N     N_R   0.445200 0.922730 0.705420 -0.039258
N20   N     N_R   0.445200 0.077270 0.705420 -0.036901
N21   N     N_R   0.554800 0.922730 0.294580 -0.039541
N22   N     N_R   0.054800 0.577270 0.294580 -0.036901
N23   N     N_R   0.611070 0.078160 0.294530 -0.037928
N24   N     N_R   0.945200 0.422730 0.705420 -0.039542
N25   N     N_R   0.945200 0.577270 0.705420 -0.037523
N26   N     N_R   0.054800 0.422730 0.294580 -0.039258
N27   N     N_3   0.669798 0.875726 0.711678 -0.232874
N28   N     N_3   0.422081 0.286207 0.291986 -0.229224
N29   N     N_3   0.327197 0.877313 0.291695 -0.232653
N30   N     N_3   0.577629 0.288757 0.702298 -0.226934
N31   N     N_3   0.172804 0.377314 0.708305 -0.232653
N32   N     N_3   0.922371 0.788757 0.297702 -0.226934
N33   N     N_3   0.830202 0.375725 0.288322 -0.232874
N34   N     N_R   0.388930 0.921840 0.705470 -0.041246
N35   N     N_3   0.077919 0.786208 0.708013 -0.229225
N36   N     N_3   0.339947 0.783914 0.008757 -0.215370
N37   N     N_3   0.661772 0.197813 0.978373 -0.215001
N38   N     N_3   0.620702 0.721183 0.080813 -0.215706
N39   N     N_3   0.344878 0.244194 0.985221 -0.207298
N40   N     N_3   0.879301 0.221181 0.919183 -0.215706
N41   N     N_3   0.155122 0.744194 0.014779 -0.207297
N42   N     N_3   0.160053 0.283915 0.991242 -0.215371
N43   N     N_3   0.838229 0.697824 0.021620 -0.215000
N44   N     N_R   0.888930 0.578160 0.705470 -0.037928
N45   N     N_R   0.111070 0.421840 0.294530 -0.041246
N46   N     N_R   0.111070 0.578160 0.294530 -0.037125
N47   N     N_R   0.888930 0.421840 0.705470 -0.040361
N48   N     N_R   0.580500 0.077840 0.556650 -0.042656
Ni1   Ni    Ni4+2 0.382710 0.000000 0.629850 0.209147
Ni2   Ni    Ni4+2 0.617290 1.000000 0.370150 0.209037
Ni3   Ni    Ni4+2 0.882710 0.500000 0.629850 0.209037
Ni4   Ni    Ni4+2 0.117290 0.500000 0.370150 0.209147
Ni5   Ni    Ni4+2 0.513020 0.000000 0.629850 0.208278
Ni6   Ni    Ni4+2 0.486980 1.000000 0.370150 0.207408
Ni7   Ni    Ni4+2 0.013020 0.500000 0.629850 0.207409
Ni8   Ni    Ni4+2 0.986980 0.500000 0.370150 0.208278

loop_
_geom_bond_atom_site_label_1
_geom_bond_atom_site_label_2
_ccdc_geom_bond_type
N1    Ni1   S    
C37   H19   S    
N14   Ni4   S    
C65   C79   A    
N8    Ni7   S    
C33   H16   S    
C64   C77   A    
N10   Ni1   S    
N12   Ni2   S    
H69   N39   S    
C19   N2    A    
H62   N36   S    
C74   C83   A    
C24   N6    A    
C58   C87   S    
C22   N5    A    
N26   N45   A    
C23   N23   A    
H51   N30   S    
H71   N40   S    
C4    C46   S    
C21   C57   A    
H55   N32   S    
C10   H36   S    
N19   N34   A    
C69   H33   S    
N2    N10   A    
C43   N26   A    
H70   N39   S    
N34   Ni1   S    
N17   Ni4   S    
C26   C61   A    
H48   N28   S    
H58   N33   S    
N22   Ni8   S    
N12   N21   A    
C43   H26   S    
C39   N21   A    
C52   C78   A    
C75   C84   A    
C63   C76   A    
C30   C57   A    
N18   N23   A    
C36   C47   A    
C67   H67   S    
H54   N31   S    
C4    C13   D    
C16   H43   S    
H52   N30   S    
N48   Ni5   S    
N4    Ni5   S    
C1    C44   A    
C18   C53   A    
C6    C15   D    
N2    Ni6   S    
C70   H35   S    
N45   Ni4   S    
N16   Ni3   S    
C11   C17   S    
C74   N30   S    
H76   N42   S    
C41   H24   S    
C73   N29   S    
C70   C74   A    
H44   N27   S    
N15   Ni3   S    
C65   H30   S    
C69   C73   A    
C25   C60   A    
C26   N8    A    
C55   C81   S    
H68   N38   S    
H61   N35   S    
N24   N47   A    
C6    N40   S    
C72   C81   A    
C69   C87   A    
C35   N17   A    
N20   Ni5   S    
N18   Ni6   S    
C34   H34   S    
N11   Ni1   S    
C57   C80   S    
N3    N11   A    
C66   C85   A    
C20   C55   A    
C8    N42   S    
N47   Ni3   S    
N4    N13   A    
N23   Ni2   S    
C79   C87   A    
C71   C80   A    
H75   N42   S    
C63   C80   A    
N9    Ni2   S    
C26   H8    S    
C20   H3    S    
C18   N48   A    
C3    C44   S    
C78   H78   S    
C45   N44   A    
C23   C47   A    
C29   H11   S    
C36   H18   S    
C68   C84   A    
C31   H14   S    
H64   N37   S    
N8    N17   A    
N6    Ni8   S    
C7    C49   S    
H57   N32   S    
C12   C46   A    
C53   C83   S    
C76   N32   S    
C23   H23   S    
C28   C54   A    
N21   Ni6   S    
H77   N43   S    
N25   N44   A    
C40   H22   S    
N19   Ni5   S    
C2    C48   S    
C72   N28   S    
H73   N41   S    
C9    H37   S    
C64   H29   S    
H63   N36   S    
N6    N15   A    
C42   N25   A    
C11   H39   S    
C64   C83   A    
C38   C44   A    
C35   H17   S    
C24   H6    S    
H72   N40   S    
C25   N7    A    
C42   H25   S    
C71   N27   S    
C66   C71   A    
C45   C49   A    
C68   C72   A    
N25   Ni7   S    
N24   Ni7   S    
C33   N16   A    
C5    C14   D    
C32   H15   S    
C2    N36   S    
C35   C61   A    
N5    Ni7   S    
C51   C67   A    
C37   C48   A    
N22   N46   A    
C40   N22   A    
C56   N45   A    
H66   N38   S    
C88   N37   S    
H65   N37   S    
C13   H38   S    
C19   C54   A    
H46   N27   S    
C12   N12   A    
C62   C81   A    
H49   N29   S    
C77   C86   A    
C25   H7    S    
C33   C60   A    
C79   N35   S    
C66   H31   S    
C39   C46   A    
C31   N14   A    
C10   C14   S    
C30   N13   A    
C62   C75   A    
C18   H80   S    
C63   H28   S    
C2    C10   D    
C8    C50   S    
C73   C82   A    
C54   C82   S    
N3    Ni6   S    
C5    N41   S    
C31   C58   A    
N26   Ni8   S    
C22   C58   A    
C28   H10   S    
C27   H9    S    
C1    H1    S    
C41   C52   A    
C41   N24   A    
C17   H42   S    
C7    C16   D    
C27   N9    A    
N1    N20   A    
C61   C84   S    
C77   N33   S    
C78   N47   A    
N5    N14   A    
C7    N43   S    
C60   C85   S    
C27   C53   A    
C43   C50   A    
C4    N38   S    
N44   Ni3   S    
C75   N31   S    
C40   C51   A    
C29   C55   A    
C45   H45   S    
C8    C17   D    
H59   N33   S    
C15   H40   S    
C3    N39   S    
C47   C88   S    
C9    C15   S    
C59   C86   S    
H79   N43   S    
C62   H27   S    
C9    C88   D    
C19   H2    S    
N46   Ni4   S    
C68   H32   S    
C65   C82   A    
C37   N19   A    
N7    Ni8   S    
C34   N34   A    
C24   C59   A    
C38   N20   A    
H47   N28   S    
C30   H13   S    
C1    N1    A    
C22   H5    S    
C32   N15   A    
C36   N18   A    
C38   H20   S    
C50   C56   A    
C12   H12   S    
C3    C11   D    
C42   C49   A    
C56   H56   S    
H50   N29   S    
C39   H21   S    
C20   N3    A    
C34   C48   A    
H74   N41   S    
C29   N11   A    
C13   C16   S    
N13   Ni2   S    
C5    C51   S    
C67   N46   A    
H53   N31   S    
C32   C59   A    
C6    C52   S    
C28   N10   A    
C76   C85   A    
C14   H41   S    
C21   N4    A    
H60   N35   S    
N9    N48   A    
N7    N16   A    
C21   H4    S    
C70   C86   A    
