data_mof_unit_6000.cif
_audit_creation_date              2012-12-11T14:49:23-0500
_audit_creation_method            fapswitch 2.2
_symmetry_space_group_name_H-M    P1
_symmetry_Int_Tables_number       1
_space_group_crystal_system       triclinic
_cell_length_a                    16.961441
_cell_length_b                    16.711629
_cell_length_c                    19.497172
_cell_angle_alpha                 118.10874
_cell_angle_beta                  63.48973
_cell_angle_gamma                 100.465827
_cell_volume                      4359.28119596

loop_
_atom_site_label
_atom_site_type_symbol
_atom_type_description
_atom_site_fract_x
_atom_site_fract_y
_atom_site_fract_z
_atom_type_partial_charge
C1    C     C_R   0.047733 0.757394 0.002473 0.190037
C2    C     C_R   0.250245 0.523444 0.829664 -0.203997
C3    C     C_R   0.183906 0.488666 0.086860 -0.137235
C4    C     C_R   0.763367 0.422478 0.164427 -0.212464
C5    C     C_R   0.982625 0.344866 0.762177 -0.148998
C6    C     C_R   0.258225 0.537042 0.063494 0.070082
C7    C     C_R   0.933722 0.269025 0.758767 0.019532
C8    C     C_R   0.256205 0.466072 0.748528 0.079270
C9    C     C_R   0.024302 0.223752 0.010385 0.054864
C10   C     C_R   0.932629 0.227100 0.618369 -0.248955
C11   C     C_R   0.895825 0.218017 0.694733 0.110746
C12   C     C_R   0.766709 0.444930 0.240291 0.037490
C13   C     C_R   0.829237 0.155536 0.704612 -0.258481
C14   C     C_R   0.818762 0.085697 0.632621 0.085822
C15   C     C_R   0.866670 0.088178 0.552929 -0.032630
C16   C     C_R   0.805049 0.560140 0.960534 -0.133560
C17   C     C_R   0.916217 0.164328 0.547807 0.100012
C18   C     C_R   0.769804 0.008575 0.636495 0.179467
C19   C     C_R   0.780379 0.930322 0.560121 -0.314051
C20   C     C_R   0.835183 0.929919 0.480861 0.134430
C21   C     C_R   0.872981 0.010989 0.477384 0.024470
C22   C     C_R   0.925039 0.012143 0.397914 0.136963
C23   C     C_R   0.724595 0.549708 0.020893 0.087266
C24   C     C_R   0.961939 0.092848 0.394408 -0.319627
C25   C     C_R   0.957677 0.169758 0.469162 0.178501
C26   C     C_R   0.859072 0.848515 0.405547 -0.240509
C27   C     C_R   0.920474 0.848063 0.327485 0.106069
C28   C     C_R   0.953940 0.675885 0.247759 -0.144210
C29   C     C_R   0.946361 0.931037 0.323338 -0.238376
C30   C     C_R   0.390487 0.381482 0.625644 0.128689
C31   C     C_R   0.334369 0.458707 0.675265 0.059976
C32   C     C_R   0.349411 0.530954 0.655145 -0.314423
C33   C     C_R   0.420872 0.527264 0.582845 0.153870
C34   C     C_R   0.963734 0.762424 0.252369 0.065499
C35   C     C_R   0.478542 0.449869 0.530214 0.000742
C36   C     C_R   0.464056 0.376434 0.551283 0.029829
C37   C     C_R   0.434756 0.599851 0.562441 -0.193365
C38   C     C_R   0.506186 0.596401 0.489309 -0.216029
C39   C     C_R   0.563768 0.520378 0.436579 0.153819
C40   C     C_R   0.740166 0.484421 0.038881 -0.131736
C41   C     C_R   0.550531 0.446504 0.456634 0.019586
C42   C     C_R   0.609461 0.369914 0.403161 0.078012
C43   C     C_R   0.596708 0.297907 0.425043 0.171684
C44   C     C_R   0.523792 0.301370 0.498445 -0.298845
C45   C     C_R   0.250764 0.566603 0.011158 -0.143469
C46   C     C_R   0.635148 0.517541 0.364233 -0.270751
C47   C     C_R   0.692597 0.442321 0.312165 0.136750
C48   C     C_R   0.679938 0.367960 0.329300 -0.277308
C49   C     C_R   0.637353 0.592923 0.056337 0.049682
C50   C     C_R   0.326225 0.561871 0.096196 0.125176
C51   C     C_R   0.411029 0.522414 0.148539 -0.211576
C52   C     C_R   0.023528 0.753364 0.171971 -0.136028
C53   C     C_R   0.334861 0.515319 0.136623 -0.175614
C54   C     C_R   0.389101 0.624929 0.078538 -0.258166
C55   C     C_R   0.467881 0.627777 0.085170 0.157518
C56   C     C_R   0.920259 0.262402 0.832168 0.189908
C57   C     C_R   0.480110 0.572937 0.116725 0.190968
C58   C     C_R   0.563691 0.560252 0.106397 -0.314852
C59   C     C_R   0.623601 0.658597 0.035715 0.188847
C60   C     C_R   0.537760 0.676950 0.052379 -0.291613
C61   C     C_R   0.842888 0.182565 0.141031 -0.131060
C62   C     C_R   0.970098 0.861672 0.984631 0.015625
C63   C     C_R   0.895597 0.950706 0.959830 -0.252425
C64   C     C_R   0.842187 0.492391 0.241129 0.154769
C65   C     C_R   0.941221 0.869823 0.930023 0.203655
C66   C     C_R   0.963299 0.937898 0.061319 -0.268478
C67   C     C_R   0.171641 0.455067 0.751705 0.179826
C68   C     C_R   0.925131 0.020053 0.086509 0.117377
C69   C     C_R   0.885237 0.025009 0.038691 0.080592
C70   C     C_R   0.838099 0.105509 0.070216 0.124933
C71   C     C_R   0.889565 0.180595 0.183988 0.225004
C72   C     C_R   0.926249 0.097247 0.159298 -0.260743
C73   C     C_R   0.964026 0.688931 0.931977 -0.180553
C74   C     C_R   0.996936 0.772628 0.969533 -0.038157
C75   C     C_3   0.200130 0.766524 0.986420 -0.961396
C76   C     C_3   0.896358 0.108676 0.815963 -0.961902
C77   C     C_3   0.198772 0.348047 0.601944 -0.917626
C78   C     C_R   0.049347 0.309173 0.055410 -0.117796
C79   C     C_3   0.632422 0.053554 0.762183 -0.927104
C80   C     C_3   0.939396 0.323966 0.498150 -0.936139
C81   C     C_3   0.407455 0.316987 0.706300 -0.897810
C82   C     C_3   0.725707 0.232936 0.403716 -0.895783
C83   C     C_3   0.711776 0.693545 0.915984 -0.967438
C84   C     C_3   0.704639 0.065289 0.047950 -0.938391
C85   C     C_3   0.974253 0.273781 0.268757 -0.968709
C86   C     C_3   0.937841 0.808015 0.787032 -0.964253
C87   C     C_3   0.834918 0.519745 0.381076 -0.945714
C88   C     C_R   0.969972 0.238989 0.980880 -0.148238
H1    H     H_    0.088643 0.324496 0.090766 0.095588
H2    H     H_    0.647001 0.574147 0.348439 0.130694
H3    H     H_    0.419278 0.481236 0.174484 0.126409
H4    H     H_    0.286346 0.468230 0.153295 0.116851
H5    H     H_    0.911797 0.657978 0.298623 0.127750
H6    H     H_    0.870265 0.957553 0.920853 0.171431
H7    H     H_    0.957949 0.092410 0.194668 0.141853
H8    H     H_    0.694406 0.456721 0.081113 0.098396
H9    H     H_    0.930829 0.672282 0.891310 0.124746
H10   H     H_    0.290848 0.615152 0.989562 0.092593
H11   H     H_    0.128252 0.867421 0.003616 0.171369
H12   H     H_    0.933546 0.187530 0.950134 0.125551
H13   H     H_    0.249707 0.817185 0.001029 0.247422
H14   H     H_    0.226107 0.724410 0.916089 0.256609
H15   H     H_    0.190176 0.723974 0.018919 0.262398
H16   H     H_    0.833232 0.226917 0.927708 0.153559
H17   H     H_    0.848668 0.067120 0.845873 0.263148
H18   H     H_    0.961009 0.104568 0.815780 0.250273
H19   H     H_    0.906917 0.078465 0.748214 0.266350
H20   H     H_    0.121864 0.470782 0.678237 0.153645
H21   H     H_    0.157462 0.313446 0.565780 0.248677
H22   H     H_    0.219234 0.297586 0.613388 0.257033
H23   H     H_    0.304041 0.551460 0.848426 0.127229
H24   H     H_    0.257351 0.373660 0.562697 0.252187
H25   H     H_    0.161839 0.467270 0.136737 0.084644
H26   H     H_    0.980979 0.277473 0.610208 0.146498
H27   H     H_    0.791789 0.155462 0.765994 0.185918
H28   H     H_    0.711564 0.941909 0.713078 0.172414
H29   H     H_    0.591149 0.019718 0.725763 0.252549
H30   H     H_    0.640700 0.125365 0.772755 0.257315
H31   H     H_    0.597938 0.052913 0.825527 0.249467
H32   H     H_    0.748653 0.868757 0.562815 0.137495
H33   H     H_    0.989762 0.933133 0.263498 0.114576
H34   H     H_    0.989530 0.381595 0.726923 0.116727
H35   H     H_    0.048890 0.239085 0.404539 0.170631
H36   H     H_    0.977348 0.384234 0.493725 0.249744
H37   H     H_    0.895102 0.342986 0.566442 0.259794
H38   H     H_    0.899009 0.304319 0.461087 0.264876
H39   H     H_    0.376206 0.245278 0.601054 0.162121
H40   H     H_    0.480577 0.311353 0.672960 0.246676
H41   H     H_    0.383664 0.261550 0.726110 0.248943
H42   H     H_    0.386965 0.382896 0.764676 0.257624
H43   H     H_    0.390310 0.659105 0.602982 0.129409
H44   H     H_    0.816546 0.599474 0.927123 0.139249
H45   H     H_    0.716811 0.378580 0.140800 0.114104
H46   H     H_    0.725650 0.310260 0.286027 0.157836
H47   H     H_    0.628024 0.161145 0.365888 0.169159
H48   H     H_    0.696288 0.233714 0.467676 0.246699
H49   H     H_    0.760512 0.297041 0.407738 0.263035
H50   H     H_    0.774496 0.175140 0.357990 0.259111
H51   H     H_    0.516051 0.245593 0.514178 0.145701
H52   H     H_    0.570558 0.516075 0.129767 0.130918
H53   H     H_    0.690366 0.775642 0.042456 0.177717
H54   H     H_    0.775207 0.724101 0.890168 0.267209
H55   H     H_    0.658778 0.726320 0.918141 0.253183
H56   H     H_    0.834435 0.785555 0.409196 0.122509
H57   H     H_    0.717089 0.619800 0.872256 0.262188
H58   H     H_    0.526859 0.724068 0.033570 0.142362
H59   H     H_    0.381559 0.665078 0.051513 0.118692
H60   H     H_    0.778542 0.176119 0.041910 0.169815
H61   H     H_    0.660624 0.098714 0.117291 0.254642
H62   H     H_    0.715490 0.992611 0.028045 0.259415
H63   H     H_    0.671644 0.068967 0.011440 0.250286
H64   H     H_    0.879017 0.320390 0.255001 0.179466
H65   H     H_    0.973953 0.344011 0.317925 0.257923
H66   H     H_    0.035072 0.261861 0.209409 0.252071
H67   H     H_    0.998676 0.094581 0.333181 0.128579
H68   H     H_    0.973846 0.226841 0.294412 0.258477
H69   H     H_    0.019584 0.763055 0.817118 0.167987
H70   H     H_    0.956882 0.744740 0.726023 0.255166
H71   H     H_    0.974057 0.864950 0.773329 0.259910
H72   H     H_    0.865631 0.819771 0.813483 0.257432
H73   H     H_    0.985243 0.932901 0.103567 0.126409
H74   H     H_    0.046960 0.806864 0.153097 0.125393
H75   H     H_    0.948692 0.479163 0.262780 0.162345
H76   H     H_    0.877946 0.547650 0.415915 0.250613
H77   H     H_    0.810355 0.454373 0.382972 0.260872
H78   H     H_    0.303947 0.589627 0.695715 0.140168
H79   H     H_    0.779264 0.569385 0.414072 0.263273
H80   H     H_    0.516489 0.653040 0.473993 0.132161
N1    N     N_R   0.036080 0.671900 0.995420 -0.045841
N2    N     N_R   0.867430 0.509300 0.948100 -0.045555
N3    N     N_R   0.003360 0.617250 0.167070 -0.042711
N4    N     N_R   0.825450 0.461270 0.995400 -0.046185
N5    N     N_R   0.045340 0.665280 0.119770 -0.040005
N6    N     N_R   0.883740 0.497640 0.167070 -0.071390
N7    N     N_R   0.987050 0.628910 0.948110 -0.049895
N8    N     N_R   0.174550 0.538730 0.004600 -0.033792
N9    N     N_2   0.118500 0.812949 0.017326 -0.131618
N10   N     N_2   0.862437 0.201967 0.862175 -0.123475
N11   N     N_2   0.147819 0.422554 0.682010 -0.118529
N12   N     N_R   0.954660 0.334720 0.880230 -0.072678
N13   N     N_2   0.717075 0.005966 0.716266 -0.112377
N14   N     N_2   0.999721 0.249971 0.463961 -0.117108
N15   N     N_2   0.369828 0.309559 0.650098 -0.112329
N16   N     N_2   0.657902 0.222623 0.374605 -0.115993
N17   N     N_2   0.694468 0.707699 0.000751 -0.118647
N18   N     N_2   0.787358 0.110870 0.030717 -0.116778
N19   N     N_2   0.896799 0.262863 0.252285 -0.105804
N20   N     N_2   0.960047 0.797364 0.845975 -0.116316
N21   N     N_2   0.885394 0.506338 0.293795 -0.126364
N22   N     N_R   0.116260 0.502360 0.832930 -0.076334
N23   N     N_R   0.012950 0.371090 0.051890 -0.044344
N24   N     N_R   0.963920 0.328100 0.004580 -0.042272
N25   N     N_R   0.165290 0.545350 0.880240 -0.050188
N26   N     N_R   0.132570 0.490700 0.051900 -0.037171
N27   N     N_R   0.996640 0.382750 0.832930 -0.052856
N28   N     N_R   0.834710 0.454650 0.119760 -0.047301
Ni1   Ni    Ni4+2 0.104370 0.604370 0.000010 0.210201
Ni2   Ni    Ni4+2 0.895630 0.395630 0.999990 0.196363
Ni3   Ni    Ni4+2 0.991920 0.505780 0.891500 0.200002
Ni4   Ni    Ni4+2 0.008080 0.494220 0.108500 0.205255

loop_
_geom_bond_atom_site_label_1
_geom_bond_atom_site_label_2
_ccdc_geom_bond_type
C61   C70   A    
C85   N19   S    
C66   C68   A    
C63   C65   A    
N6    N28   A    
C76   H17   S    
C6    C45   A    
C32   H78   S    
C27   C29   A    
H39   N15   S    
C41   C42   A    
C14   C18   A    
C84   N18   S    
C35   C36   A    
H69   N20   S    
N8    Ni1   S    
C3    C6    A    
C64   N21   S    
C81   H42   S    
C67   N22   A    
C39   C41   A    
C56   N10   S    
C38   H80   S    
N3    N5    A    
C63   H6    S    
C26   C27   A    
C50   C54   A    
C80   H38   S    
C1    C74   A    
C7    C56   A    
C48   H46   S    
C22   C29   A    
C16   C23   A    
H11   N9    S    
C82   H49   S    
C76   N10   S    
C45   H10   S    
C12   C47   S    
C9    C88   A    
C80   H36   S    
C30   C31   A    
C12   C64   A    
C23   C49   S    
C80   H37   S    
C10   C17   A    
H60   N18   S    
C23   C40   A    
C79   H30   S    
C82   N16   S    
C43   N16   S    
C42   C48   A    
C4    N28   A    
C18   C19   A    
C73   C74   A    
N22   N25   A    
C51   H3    S    
C21   C22   A    
C83   H57   S    
C72   H7    S    
C1    N9    S    
C87   H79   S    
C63   C69   A    
C68   C69   A    
C29   H33   S    
C75   H14   S    
C62   C74   S    
N4    Ni2   S    
C51   C57   A    
N24   Ni2   S    
C4    C12   A    
C86   H71   S    
C10   H26   S    
C24   H67   S    
C5    N27   A    
C84   H61   S    
C61   C71   A    
C87   H76   S    
C65   N20   S    
C28   C34   A    
C59   C60   A    
C78   H1    S    
C55   C60   A    
C75   H15   S    
C77   H22   S    
C60   H58   S    
H47   N16   S    
C40   H8    S    
H64   N19   S    
C26   H56   S    
N2    Ni3   S    
N22   Ni3   S    
N27   Ni3   S    
C27   C34   S    
H16   N10   S    
C2    H23   S    
C3    N26   A    
C62   C66   A    
N5    Ni1   S    
N23   N24   A    
C50   C53   A    
C24   C25   A    
N28   Ni2   S    
C3    H25   S    
C45   N8    A    
C5    C7    A    
C70   N18   S    
C85   H65   S    
C18   N13   S    
C13   H27   S    
C5    H34   S    
C33   C37   A    
C49   C58   A    
C79   N13   S    
H20   N11   S    
C79   H31   S    
C28   H5    S    
C51   C53   A    
C85   H68   S    
C73   N7    A    
C16   H44   S    
C7    C11   S    
C43   C44   A    
C37   C38   A    
C77   H24   S    
C16   N2    A    
C76   H19   S    
C54   H59   S    
C28   N3    A    
C81   H41   S    
C47   C48   A    
C15   C21   A    
C68   C72   A    
H28   N13   S    
C53   H4    S    
N1    N7    A    
H75   N21   S    
C77   N11   S    
N23   Ni4   S    
C77   H21   S    
C86   H70   S    
N7    Ni3   S    
C88   H12   S    
N12   N27   A    
C39   C46   A    
C19   H32   S    
C73   H9    S    
C44   H51   S    
C80   N14   S    
C55   C57   A    
C81   H40   S    
N26   Ni4   S    
C36   C44   A    
N3    Ni4   S    
H53   N17   S    
C42   C43   A    
C81   N15   S    
C64   N6    A    
C40   N4    A    
C25   N14   S    
N1    Ni1   S    
C56   N12   A    
C58   H52   S    
C54   C55   A    
C15   C17   A    
C46   C47   A    
C76   H18   S    
C6    C50   S    
C62   C65   A    
C8    C31   S    
C34   C52   A    
C31   C32   A    
C2    C8    A    
C78   N23   A    
C71   N19   S    
C83   H54   S    
C30   N15   S    
C46   H2    S    
C30   C36   A    
C88   N24   A    
H35   N14   S    
N6    Ni4   S    
C49   C59   A    
C87   N21   S    
C2    N25   A    
C17   C25   A    
C32   C33   A    
C19   C20   A    
C75   N9    S    
C71   C72   A    
C82   H50   S    
C67   N11   S    
C83   H55   S    
C11   C13   A    
C57   C58   A    
C38   C39   A    
C20   C26   A    
N25   Ni1   S    
C79   H29   S    
C1    N1    A    
C33   C35   A    
C59   N17   S    
C22   C24   A    
C9    C78   A    
C82   H48   S    
C69   C70   A    
C35   C41   A    
N12   Ni2   S    
C10   C11   A    
C87   H77   S    
C84   H63   S    
C37   H43   S    
C85   H66   S    
C20   C21   A    
C66   H73   S    
C8    C67   A    
C75   H13   S    
C14   C15   A    
C83   N17   S    
N2    N4    A    
N8    N26   A    
C13   C14   A    
C86   H72   S    
C52   N5    A    
C86   N20   S    
C52   H74   S    
C4    H45   S    
C84   H62   S    
