data_mof_unit_26119.cif
_audit_creation_date              2012-12-11T15:12:18-0500
_audit_creation_method            fapswitch 2.2
_symmetry_space_group_name_H-M    P1
_symmetry_Int_Tables_number       1
_space_group_crystal_system       triclinic
_cell_length_a                    31.198653
_cell_length_b                    22.627249
_cell_length_c                    18.014317
_cell_angle_alpha                 90.336983
_cell_angle_beta                  123.978632
_cell_angle_gamma                 90.041196
_cell_volume                      10545.2344208

loop_
_atom_site_label
_atom_site_type_symbol
_atom_type_description
_atom_site_fract_x
_atom_site_fract_y
_atom_site_fract_z
_atom_type_partial_charge
C1    C     C_R   0.545305 0.584039 0.743178 -0.142459
C2    C     C_R   0.280717 0.684365 0.511770 0.152641
C3    C     C_R   0.300505 0.344134 0.931944 0.039304
C4    C     C_R   0.810010 0.170008 0.940781 0.003591
C5    C     C_R   0.203459 0.839154 0.053780 0.037320
C6    C     C_R   0.137735 0.287353 0.920615 -0.008256
C7    C     C_R   0.864568 0.700104 0.105786 0.041991
C8    C     C_R   0.293611 0.783381 0.084000 0.076852
C9    C     C_R   0.708271 0.205781 0.882632 0.062602
C10   C     C_R   0.766656 0.658578 0.057406 0.083368
C11   C     C_R   0.231754 0.335852 0.959303 0.050557
C12   C     C_R   0.735558 0.166911 0.954561 0.083149
C13   C     C_R   0.261706 0.332643 0.495757 0.160718
C14   C     C_R   0.259169 0.810824 0.002473 0.051928
C15   C     C_R   0.201878 0.301238 0.882106 0.078874
C16   C     C_R   0.793834 0.698326 0.129327 0.062577
C17   C     C_R   0.728537 0.218013 0.831252 -0.284025
C18   C     C_R   0.286173 0.790814 0.154083 -0.315337
C19   C     C_R   0.209763 0.355564 0.005019 -0.267923
C20   C     C_R   0.793417 0.630420 0.024987 -0.330615
C21   C     C_R   0.273235 0.818062 0.941171 -0.264864
C22   C     C_R   0.709741 0.141003 0.990187 -0.331449
C23   C     C_R   0.772348 0.712960 0.178076 -0.285578
C24   C     C_R   0.729462 0.677989 0.506015 0.144056
C25   C     C_R   0.218312 0.295730 0.823519 -0.315993
C26   C     C_R   0.777608 0.198812 0.857007 0.162232
C27   C     C_R   0.242482 0.819489 0.140602 0.160314
C28   C     C_R   0.162481 0.333978 0.984441 0.163450
C29   C     C_R   0.842920 0.648684 0.051860 0.176452
C30   C     C_R   0.316287 0.790224 0.952629 0.163936
C31   C     C_R   0.661348 0.160895 0.966499 0.176974
C32   C     C_R   0.722259 0.695835 0.149321 0.163338
C33   C     C_R   0.266103 0.318488 0.845942 0.160162
C34   C     C_R   0.577625 0.607822 0.424987 -0.149888
C35   C     C_R   0.241625 0.840659 0.491461 0.149174
C36   C     C_R   0.416479 0.398313 0.575444 -0.137628
C37   C     C_R   0.426305 0.609837 0.576965 -0.149089
C38   C     C_R   0.575428 0.391555 0.422697 -0.150089
C39   C     C_R   0.077856 0.107080 0.424024 -0.150211
C40   C     C_R   0.917616 0.898039 0.576883 -0.157397
C41   C     C_R   0.914679 0.099116 0.576292 -0.162979
C42   C     C_R   0.087727 0.904401 0.423690 -0.170000
C43   C     C_R   0.386830 0.593798 0.266647 -0.150277
C44   C     C_R   0.610896 0.400384 0.724940 -0.142323
C45   C     C_R   0.616659 0.583797 0.742298 -0.137833
C46   C     C_R   0.759489 0.163685 0.499090 0.145529
C47   C     C_R   0.383391 0.415665 0.258758 -0.133612
C48   C     C_R   0.883828 0.085052 0.259558 -0.135792
C49   C     C_R   0.115226 0.912007 0.737581 -0.140510
C50   C     C_R   0.110211 0.101442 0.723988 -0.137867
C51   C     C_R   0.891188 0.895761 0.282228 -0.134574
C52   C     C_R   0.597396 0.599891 0.793172 0.078099
C53   C     C_R   0.402406 0.399087 0.207848 0.074945
C54   C     C_R   0.410350 0.617368 0.226520 0.077753
C55   C     C_R   0.585337 0.370578 0.756995 0.074037
C56   C     C_R   0.084217 0.130829 0.755966 0.071809
C57   C     C_R   0.760297 0.834013 0.495398 0.152464
C58   C     C_R   0.917831 0.863950 0.253682 0.072320
C59   C     C_R   0.903523 0.102088 0.209818 0.077326
C60   C     C_R   0.094692 0.893318 0.785068 0.078644
C61   C     C_R   0.614389 0.639191 0.499613 0.084927
C62   C     C_R   0.376656 0.370060 0.500791 0.135253
C63   C     C_R   0.390328 0.642025 0.503819 0.086113
C64   C     C_R   0.612752 0.360514 0.495862 0.086993
C65   C     C_R   0.116285 0.137104 0.498525 0.089345
C66   C     C_R   0.876130 0.871317 0.502818 0.095907
C67   C     C_R   0.873980 0.126066 0.502240 0.092996
C68   C     C_R   0.234473 0.177192 0.516864 0.147501
C69   C     C_R   0.130071 0.879518 0.497711 0.090765
C70   C     C_R   0.644122 0.261901 0.492779 0.102525
C71   C     C_R   0.357984 0.741391 0.501661 0.108280
C72   C     C_R   0.348995 0.274753 0.520270 0.105500
C73   C     C_R   0.645391 0.736963 0.492227 0.101192
C74   C     C_R   0.166778 0.783016 0.507658 0.104999
C75   C     C_R   0.840460 0.222780 0.502379 0.102351
C76   C     C_R   0.844793 0.774772 0.511153 0.103287
C77   C     C_R   0.146729 0.234906 0.490816 0.103557
C78   C     C_R   0.647576 0.323430 0.491591 0.009153
C79   C     C_R   0.722771 0.258160 0.495485 0.014388
C80   C     C_R   0.355839 0.680048 0.507973 0.005059
C81   C     C_R   0.340157 0.334953 0.502610 0.028725
C82   C     C_R   0.650638 0.675570 0.498342 0.013849
C83   C     C_R   0.166667 0.844105 0.496187 0.009384
C84   C     C_R   0.837449 0.161254 0.503919 0.010971
C85   C     C_R   0.839841 0.836217 0.505530 0.010545
C86   C     C_R   0.152428 0.173581 0.497414 0.009683
C87   C     C_R   0.686805 0.352366 0.491548 -0.290722
C88   C     C_R   0.318213 0.651858 0.513576 -0.290209
C89   C     C_R   0.297888 0.364061 0.491635 -0.315627
C90   C     C_R   0.280802 0.746206 0.503635 0.005930
C91   C     C_R   0.691648 0.646274 0.504624 -0.290177
C92   C     C_R   0.203123 0.872885 0.487928 -0.290089
C93   C     C_R   0.797971 0.131737 0.502509 -0.293093
C94   C     C_R   0.798541 0.865747 0.497758 -0.294092
C95   C     C_R   0.195429 0.144926 0.510406 -0.294698
C96   C     C_3   0.446716 0.727630 0.000183 -0.969607
C97   C     C_3   0.601478 0.251897 0.040027 -0.893085
C98   C     C_3   0.577043 0.720774 0.029363 -0.964550
C99   C     C_3   0.358306 0.419196 0.858106 -0.901864
C100  C     C_3   0.924724 0.211799 0.967278 -0.964749
C101  C     C_R   0.267959 0.271154 0.509492 0.020156
C102  C     C_3   0.165420 0.937450 0.139661 -0.901040
C103  C     C_3   0.021295 0.290474 0.902282 -0.962393
C104  C     C_3   0.908718 0.734147 0.984410 -0.893432
C105  C     C_3   0.614405 0.221396 0.580140 -0.925366
C106  C     C_3   0.388536 0.778189 0.413523 -0.952608
C107  C     C_3   0.391551 0.228739 0.456594 -0.900388
C108  C     C_3   0.611805 0.782078 0.571164 -0.921390
C109  C     C_3   0.145661 0.744967 0.608846 -0.935087
C110  C     C_3   0.870311 0.264493 0.415699 -0.920698
C111  C     C_3   0.879701 0.729064 0.434491 -0.926706
C112  C     C_R   0.454433 0.415424 0.256732 -0.141376
C113  C     C_R   0.725577 0.739987 0.499879 0.004820
C114  C     C_3   0.109067 0.280740 0.562603 -0.937333
C115  C     C_3   0.784334 0.168042 0.734884 -0.876270
C116  C     C_3   0.220655 0.774025 0.236226 -0.867525
C117  C     C_3   0.165304 0.339176 0.121900 -0.891726
C118  C     C_3   0.908062 0.576034 0.088348 -0.886649
C119  C     C_3   0.297361 0.776396 0.803000 -0.889651
C120  C     C_3   0.595277 0.090480 0.935139 -0.888779
C121  C     C_3   0.710792 0.667047 0.266621 -0.879567
C122  C     C_3   0.300564 0.255105 0.783535 -0.873467
C123  C     C_R   0.242288 0.778855 0.501109 0.002680
C124  C     C_R   0.761450 0.225871 0.498204 0.002372
C125  C     C_R   0.764055 0.771966 0.501374 0.011846
C126  C     C_R   0.229550 0.238986 0.507862 0.010211
C127  C     C_R   0.682117 0.228493 0.493939 0.087224
C128  C     C_R   0.319464 0.775218 0.498458 0.079626
C129  C     C_R   0.311899 0.241709 0.522392 0.048648
C130  C     C_R   0.683319 0.769886 0.492477 0.078547
C131  C     C_R   0.204437 0.749665 0.508250 0.082277
C132  C     C_R   0.459052 0.593421 0.267488 -0.134565
C133  C     C_R   0.802161 0.255758 0.500251 0.078994
C134  C     C_R   0.806426 0.741979 0.509349 0.086932
C135  C     C_R   0.185575 0.268291 0.494818 0.078397
C136  C     C_R   0.764986 0.349755 0.497058 -0.212302
C137  C     C_R   0.242946 0.655513 0.516973 -0.212471
C138  C     C_R   0.218974 0.361752 0.484405 -0.211496
C139  C     C_R   0.771079 0.648398 0.513954 -0.213063
C140  C     C_R   0.279533 0.869372 0.486209 -0.209290
C141  C     C_R   0.719172 0.134318 0.496257 -0.209504
C142  C     C_R   0.718474 0.863517 0.486948 -0.211931
C143  C     C_R   0.538076 0.398355 0.722127 -0.122181
C144  C     C_R   0.277813 0.148192 0.530784 -0.192616
C145  C     C_R   0.318599 0.836933 0.490613 -0.197512
C146  C     C_R   0.680516 0.166528 0.493380 -0.203929
C147  C     C_R   0.680022 0.831629 0.485216 -0.192295
C148  C     C_R   0.316494 0.180232 0.533871 -0.210094
C149  C     C_R   0.803712 0.317680 0.500523 -0.191974
C150  C     C_R   0.204894 0.687952 0.515110 -0.193723
C151  C     C_R   0.181079 0.329776 0.484179 -0.206542
C152  C     C_R   0.809580 0.680231 0.516051 -0.198451
C153  C     C_R   0.389033 0.662737 0.157740 0.097948
C154  C     C_R   0.037347 0.102180 0.721177 -0.130680
C155  C     C_R   0.603173 0.315904 0.810009 0.118588
C156  C     C_R   0.628868 0.619558 0.888209 0.102469
C157  C     C_R   0.369224 0.380218 0.112862 0.116276
C158  C     C_R   0.872146 0.123199 0.116253 0.102634
C159  C     C_R   0.126820 0.869574 0.875643 0.113057
C160  C     C_R   0.101263 0.185177 0.810635 0.102178
C161  C     C_R   0.901379 0.806623 0.205511 0.116443
C162  C     C_R   0.381691 0.709934 0.030515 0.182677
C163  C     C_R   0.597924 0.243159 0.903478 0.177799
C164  C     C_R   0.636172 0.655937 0.022783 0.174390
C165  C     C_R   0.963999 0.894050 0.284711 -0.131841
C166  C     C_R   0.351832 0.362992 0.964340 0.186728
C167  C     C_R   0.862982 0.155558 0.979013 0.174839
C168  C     C_R   0.156457 0.866061 0.032363 0.185151
C169  C     C_R   0.096053 0.253500 0.910030 0.182663
C170  C     C_R   0.908161 0.729922 0.117321 0.178452
C171  C     C_R   0.402799 0.666406 0.096495 -0.252509
C172  C     C_R   0.579845 0.294470 0.851841 -0.282676
C173  C     C_R   0.606685 0.631696 0.935911 -0.248685
C174  C     C_R   0.385565 0.380761 0.054551 -0.284376
C175  C     C_R   0.892839 0.131287 0.065338 -0.247005
C176  C     C_R   0.955298 0.085392 0.258485 -0.140065
C177  C     C_R   0.118878 0.881879 0.943201 -0.281950
C178  C     C_R   0.079473 0.202305 0.857086 -0.254111
C179  C     C_R   0.926092 0.782430 0.167446 -0.282304
C180  C     C_R   0.355774 0.703842 0.156364 -0.232896
C181  C     C_R   0.643384 0.284176 0.816380 -0.237825
C182  C     C_R   0.681914 0.627556 0.930965 -0.240345
C183  C     C_R   0.318682 0.363453 0.079658 -0.248024
C184  C     C_R   0.820236 0.135613 0.077698 -0.242361
C185  C     C_R   0.171105 0.840641 0.896319 -0.253385
C186  C     C_R   0.138623 0.220884 0.813931 -0.232066
C187  C     C_R   0.043825 0.912283 0.739467 -0.141367
C188  C     C_R   0.860118 0.776051 0.197570 -0.236954
C189  C     C_R   0.332760 0.747346 0.090708 0.055973
C190  C     C_R   0.662949 0.232811 0.867598 0.039820
C191  C     C_R   0.713273 0.648940 0.018923 0.050102
C192  C     C_R   0.283203 0.349661 0.989610 0.042310
C193  C     C_R   0.788162 0.155526 0.989833 0.051691
C194  C     C_R   0.211616 0.831181 0.984339 0.044676
C195  C     C_R   0.158147 0.271209 0.869139 0.055437
C196  C     C_R   0.840457 0.723741 0.147232 0.039367
C197  C     C_R   0.627141 0.608177 0.574743 -0.128955
C198  C     C_R   0.724815 0.320291 0.494358 0.151139
C199  C     C_R   0.367045 0.397504 0.425203 -0.156501
C200  C     C_R   0.374853 0.609601 0.427586 -0.124493
C201  C     C_R   0.627580 0.392362 0.572124 -0.127678
C202  C     C_R   0.129459 0.106084 0.573733 -0.133288
C203  C     C_R   0.865383 0.899568 0.426968 -0.140406
C204  C     C_R   0.865426 0.100088 0.426064 -0.131050
C205  C     C_R   0.137053 0.903392 0.573843 -0.126526
C206  C     C_R   0.344613 0.750055 0.024490 -0.012254
C207  C     C_R   0.640043 0.211663 0.912324 0.042170
C208  C     C_R   0.690115 0.666937 0.064777 0.006789
H1    H     H_    0.520622 0.581630 0.767539 0.086497
H2    H     H_    0.314638 0.776005 0.220909 0.148843
H3    H     H_    0.559437 0.382183 0.352980 0.103546
H4    H     H_    0.062693 0.115991 0.354678 0.100979
H5    H     H_    0.931971 0.891228 0.646404 0.100817
H6    H     H_    0.925713 0.103304 0.644552 0.099283
H7    H     H_    0.076574 0.901251 0.355219 0.101145
H8    H     H_    0.567594 0.254662 0.451909 0.177408
H9    H     H_    0.581465 0.197132 0.573474 0.253656
H10   H     H_    0.620702 0.263112 0.617885 0.249475
H11   H     H_    0.649334 0.193280 0.618008 0.254785
H12   H     H_    0.434684 0.748952 0.544093 0.178903
H13   H     H_    0.228602 0.389654 0.056069 0.146120
H14   H     H_    0.354020 0.806512 0.373809 0.249572
H15   H     H_    0.382078 0.735350 0.378160 0.250382
H16   H     H_    0.421893 0.801071 0.419699 0.256319
H17   H     H_    0.413336 0.219721 0.588562 0.160408
H18   H     H_    0.363347 0.191718 0.424691 0.244079
H19   H     H_    0.429976 0.213024 0.474874 0.247934
H20   H     H_    0.379339 0.265323 0.407951 0.257893
H21   H     H_    0.567846 0.743120 0.445444 0.177782
H22   H     H_    0.577965 0.806805 0.559982 0.250190
H23   H     H_    0.646440 0.811127 0.608926 0.256822
H24   H     H_    0.776857 0.592498 0.980671 0.136991
H25   H     H_    0.617570 0.742208 0.611475 0.253722
H26   H     H_    0.092544 0.773555 0.479279 0.180107
H27   H     H_    0.115458 0.719502 0.609533 0.253625
H28   H     H_    0.152013 0.787558 0.644588 0.248012
H29   H     H_    0.181999 0.719043 0.644795 0.258934
H30   H     H_    0.917272 0.231405 0.544271 0.179943
H31   H     H_    0.902814 0.290147 0.422948 0.251161
H32   H     H_    0.834639 0.291406 0.377024 0.255760
H33   H     H_    0.865224 0.223054 0.378170 0.253126
H34   H     H_    0.922753 0.768086 0.560318 0.177668
H35   H     H_    0.251846 0.847539 0.884821 0.142074
H36   H     H_    0.913889 0.704489 0.446918 0.253841
H37   H     H_    0.874168 0.768738 0.394011 0.249374
H38   H     H_    0.845337 0.699690 0.396468 0.255559
H39   H     H_    0.068262 0.239659 0.438220 0.178208
H40   H     H_    0.074034 0.304521 0.547832 0.255976
H41   H     H_    0.142735 0.311107 0.600655 0.249821
H42   H     H_    0.114897 0.241541 0.604144 0.250289
H43   H     H_    0.688047 0.400377 0.491224 0.142548
H44   H     H_    0.318021 0.603984 0.518202 0.143654
H45   H     H_    0.293573 0.411427 0.480241 0.142406
H46   H     H_    0.726247 0.103644 0.034796 0.137162
H47   H     H_    0.694043 0.598368 0.509160 0.142884
H48   H     H_    0.201860 0.920582 0.480561 0.139796
H49   H     H_    0.797141 0.083741 0.502913 0.140781
H50   H     H_    0.796270 0.913629 0.492873 0.140515
H51   H     H_    0.198461 0.097101 0.516479 0.142612
H52   H     H_    0.827124 0.237215 0.826253 0.197115
H53   H     H_    0.795359 0.185032 0.690068 0.251324
H54   H     H_    0.742726 0.155778 0.693415 0.253821
H55   H     H_    0.807608 0.128150 0.769501 0.241315
H56   H     H_    0.270356 0.844886 0.270012 0.167944
H57   H     H_    0.794338 0.737004 0.240604 0.151589
H58   H     H_    0.214703 0.784689 0.290104 0.251390
H59   H     H_    0.250123 0.738577 0.260288 0.238467
H60   H     H_    0.183375 0.758050 0.176644 0.247882
H61   H     H_    0.103352 0.367943 0.995035 0.196624
H62   H     H_    0.148195 0.363495 0.153002 0.246300
H63   H     H_    0.207655 0.347535 0.162736 0.245182
H64   H     H_    0.158047 0.291157 0.122166 0.248676
H65   H     H_    0.845636 0.595325 0.960621 0.165531
H66   H     H_    0.929140 0.554889 0.062020 0.244820
H67   H     H_    0.889279 0.541000 0.103898 0.242475
H68   H     H_    0.194036 0.274878 0.758687 0.146241
H69   H     H_    0.936519 0.600496 0.150752 0.249719
H70   H     H_    0.367804 0.808780 0.915138 0.196899
H71   H     H_    0.309702 0.791844 0.759266 0.250008
H72   H     H_    0.256202 0.788618 0.771109 0.248616
H73   H     H_    0.301089 0.727567 0.808727 0.248389
H74   H     H_    0.659948 0.110441 0.060839 0.165843
H75   H     H_    0.575007 0.071198 0.964073 0.244983
H76   H     H_    0.612283 0.054064 0.918039 0.242632
H77   H     H_    0.566467 0.114487 0.873203 0.248942
H78   H     H_    0.673333 0.738425 0.178307 0.197487
H79   H     H_    0.658177 0.617361 0.643379 0.102342
H80   H     H_    0.699512 0.685409 0.310614 0.251652
H81   H     H_    0.751615 0.652284 0.309433 0.252834
H82   H     H_    0.685581 0.628532 0.229127 0.241516
H83   H     H_    0.250221 0.324336 0.718906 0.174355
H84   H     H_    0.313027 0.255412 0.736596 0.247925
H85   H     H_    0.270732 0.220056 0.761751 0.237642
H86   H     H_    0.334673 0.245023 0.851674 0.248936
H87   H     H_    0.334925 0.390558 0.356604 0.102476
H88   H     H_    0.342977 0.619169 0.360176 0.096797
H89   H     H_    0.478742 0.417305 0.231552 0.087398
H90   H     H_    0.660973 0.384440 0.638724 0.096584
H91   H     H_    0.163111 0.112979 0.640675 0.096713
H92   H     H_    0.830923 0.895107 0.360196 0.097605
H93   H     H_    0.833101 0.106168 0.357589 0.098360
H94   H     H_    0.169772 0.898542 0.642302 0.097104
H95   H     H_    0.346671 0.597944 0.243239 0.094408
H96   H     H_    0.650661 0.395343 0.746975 0.088223
H97   H     H_    0.656624 0.580680 0.764478 0.083597
H98   H     H_    0.343351 0.419616 0.236143 0.086744
H99   H     H_    0.843818 0.082275 0.237380 0.084207
H100  H     H_    0.485022 0.597548 0.246095 0.086694
H101  H     H_    0.155584 0.912935 0.760995 0.092080
H102  H     H_    0.149784 0.108371 0.745772 0.090386
H103  H     H_    0.852416 0.888116 0.264047 0.088415
H104  H     H_    0.766539 0.397622 0.496874 0.127850
H105  H     H_    0.242867 0.607827 0.522504 0.127468
H106  H     H_    0.214531 0.409127 0.474418 0.129323
H107  H     H_    0.773915 0.600652 0.518873 0.130249
H108  H     H_    0.279145 0.916963 0.479331 0.128273
H109  H     H_    0.717642 0.086461 0.496498 0.129611
H110  H     H_    0.715574 0.911252 0.481805 0.126973
H111  H     H_    0.510613 0.389266 0.738866 0.085973
H112  H     H_    0.281434 0.100581 0.538040 0.124357
H113  H     H_    0.347784 0.860373 0.487433 0.156150
H114  H     H_    0.649682 0.142721 0.491097 0.158374
H115  H     H_    0.647948 0.855522 0.478365 0.157074
H116  H     H_    0.348913 0.156099 0.542705 0.136692
H117  H     H_    0.834669 0.341614 0.503375 0.158082
H118  H     H_    0.175890 0.664399 0.518695 0.157959
H119  H     H_    0.147921 0.353235 0.473772 0.159905
H120  H     H_    0.841645 0.656266 0.523000 0.158112
H121  H     H_    0.660970 0.301778 0.784249 0.116169
H122  H     H_    0.009392 0.111152 0.736863 0.087518
H123  H     H_    0.345881 0.698852 0.204559 0.121502
H124  H     H_    0.307434 0.357615 0.125889 0.123641
H125  H     H_    0.698553 0.621201 0.893032 0.120149
H126  H     H_    0.173984 0.826222 0.841864 0.128702
H127  H     H_    0.805189 0.133653 0.118695 0.121643
H128  H     H_    0.841426 0.795490 0.226763 0.116492
H129  H     H_    0.154672 0.206561 0.777257 0.118719
H130  H     H_    0.548704 0.318687 0.847748 0.122092
H131  H     H_    0.428901 0.634193 0.097898 0.125182
H132  H     H_    0.424348 0.395108 0.078378 0.121360
H133  H     H_    0.992680 0.882775 0.271612 0.089589
H134  H     H_    0.565765 0.624652 0.904958 0.123599
H135  H     H_    0.084571 0.905316 0.927663 0.124774
H136  H     H_    0.932789 0.120483 0.093012 0.123034
H137  H     H_    0.958124 0.805468 0.172819 0.122315
H138  H     H_    0.050007 0.175248 0.854357 0.122640
H139  H     H_    0.385678 0.668706 0.932673 0.172274
H140  H     H_    0.451603 0.730824 0.943841 0.259203
H141  H     H_    0.475147 0.695368 0.049378 0.252858
H142  H     H_    0.454529 0.771850 0.032599 0.257822
H143  H     H_    0.536201 0.232379 0.915076 0.164226
H144  H     H_    0.980112 0.084014 0.234322 0.086524
H145  H     H_    0.584055 0.233799 0.074615 0.245743
H146  H     H_    0.597051 0.300740 0.036162 0.239179
H147  H     H_    0.643253 0.240711 0.080038 0.253020
H148  H     H_    0.591743 0.633701 0.069916 0.168734
H149  H     H_    0.563509 0.732330 0.072963 0.260839
H150  H     H_    0.542819 0.711139 0.960838 0.253852
H151  H     H_    0.598339 0.759392 0.027164 0.257412
H152  H     H_    0.408513 0.353513 0.939370 0.163132
H153  H     H_    0.370580 0.415556 0.811078 0.244985
H154  H     H_    0.379222 0.456853 0.904754 0.238352
H155  H     H_    0.019293 0.912406 0.764284 0.089229
H156  H     H_    0.316077 0.427888 0.818541 0.253096
H157  H     H_    0.901481 0.125799 0.923854 0.168446
H158  H     H_    0.937138 0.219502 0.921146 0.257259
H159  H     H_    0.959247 0.200126 0.034133 0.252820
H160  H     H_    0.907705 0.253349 0.972868 0.257212
H161  H     H_    0.109347 0.872332 0.078728 0.163886
H162  H     H_    0.160142 0.942882 0.195377 0.245823
H163  H     H_    0.143220 0.972413 0.089285 0.239900
H164  H     H_    0.207195 0.942689 0.167237 0.252240
H165  H     H_    0.075051 0.232333 0.996338 0.172043
H166  H     H_    0.706388 0.241706 0.768993 0.151099
H167  H     H_    0.008121 0.304542 0.945538 0.258717
H168  H     H_    0.994112 0.256312 0.854324 0.250841
H169  H     H_    0.020675 0.329547 0.864596 0.256987
H170  H     H_    0.971635 0.715596 0.111769 0.165568
H171  H     H_    0.927170 0.713941 0.952668 0.246110
H172  H     H_    0.914359 0.782845 0.987823 0.239156
H173  H     H_    0.866702 0.723802 0.942044 0.252787
H174  H     H_    0.564634 0.616219 0.356618 0.100571
H175  H     H_    0.427607 0.393311 0.643548 0.091814
H176  H     H_    0.442503 0.619763 0.646588 0.104621
N1    N     N_R   0.532970 0.559900 0.665210 -0.038362
N2    N     N_R   0.402100 0.440070 0.454470 -0.041959
N3    N     N_R   0.402100 0.559930 0.454470 -0.043872
N4    N     N_R   0.597900 0.440070 0.545530 -0.043254
N5    N     N_R   0.097900 0.059930 0.545530 -0.041593
N6    N     N_R   0.902100 0.940070 0.454470 -0.040265
N7    N     N_R   0.902100 0.059930 0.454470 -0.041433
N8    N     N_R   0.097900 0.940070 0.545530 -0.041244
N9    N     N_R   0.567170 0.559950 0.454460 -0.041964
N10   N     N_R   0.432830 0.440050 0.545540 -0.043703
N11   N     N_R   0.432830 0.559950 0.545540 -0.043481
N12   N     N_R   0.467030 0.440100 0.334790 -0.038022
N13   N     N_R   0.567170 0.440050 0.454460 -0.042245
N14   N     N_R   0.067170 0.059950 0.454460 -0.040433
N15   N     N_R   0.932830 0.940050 0.545540 -0.038776
N16   N     N_R   0.932830 0.059950 0.545540 -0.038524
N17   N     N_R   0.067170 0.940050 0.454460 -0.038277
N18   N     N_R   0.421470 0.559970 0.334770 -0.036002
N19   N     N_R   0.578530 0.440030 0.665230 -0.036774
N20   N     N_R   0.578530 0.559970 0.665230 -0.037988
N21   N     N_R   0.421470 0.440030 0.334770 -0.036688
N22   N     N_R   0.921470 0.059970 0.334770 -0.038839
N23   N     N_R   0.467030 0.559900 0.334790 -0.037151
N24   N     N_R   0.078530 0.940030 0.665230 -0.038728
N25   N     N_R   0.078530 0.059970 0.665230 -0.037668
N26   N     N_R   0.921470 0.940030 0.334770 -0.038832
N27   N     N_2   0.394488 0.708636 0.966200 -0.110915
N28   N     N_2   0.575697 0.226495 0.951053 -0.095956
N29   N     N_2   0.610460 0.669718 0.065460 -0.113278
N30   N     N_2   0.370095 0.364786 0.907593 -0.095803
N31   N     N_2   0.886956 0.164365 0.932154 -0.112899
N32   N     N_2   0.147145 0.879556 0.099360 -0.095632
N33   N     N_2   0.073096 0.266933 0.957517 -0.111999
N34   N     N_R   0.532970 0.440100 0.665210 -0.038886
N35   N     N_2   0.931981 0.710485 0.073408 -0.095886
N36   N     N_2   0.602838 0.234139 0.492149 -0.115609
N37   N     N_2   0.399243 0.768566 0.501601 -0.111196
N38   N     N_2   0.395185 0.249074 0.536207 -0.109985
N39   N     N_2   0.602547 0.765136 0.485786 -0.116322
N40   N     N_2   0.128939 0.755294 0.517171 -0.114715
N41   N     N_2   0.881714 0.251154 0.503453 -0.115916
N42   N     N_2   0.888003 0.746374 0.519034 -0.115697
N43   N     N_2   0.102377 0.262504 0.479629 -0.113582
N44   N     N_2   0.793443 0.213355 0.799097 -0.110529
N45   N     N_R   0.032970 0.059900 0.665210 -0.039173
N46   N     N_2   0.237922 0.826439 0.214442 -0.093930
N47   N     N_2   0.142363 0.359538 0.031243 -0.108691
N48   N     N_2   0.869522 0.615804 0.021989 -0.093652
N49   N     N_2   0.329247 0.804007 0.890398 -0.109352
N50   N     N_2   0.635520 0.130267 0.999631 -0.093277
N51   N     N_2   0.705499 0.712113 0.205520 -0.109932
N52   N     N_2   0.279621 0.312272 0.782816 -0.094286
N53   N     N_R   0.967030 0.940100 0.334790 -0.039700
N54   N     N_R   0.967030 0.059900 0.334790 -0.038841
N55   N     N_R   0.032970 0.940100 0.665210 -0.038691
N56   N     N_R   0.597900 0.559930 0.545530 -0.044510
Ni1   Ni    Ni4+2 0.483030 0.500000 0.604430 0.210741
Ni2   Ni    Ni4+2 0.516970 0.500000 0.395570 0.209774
Ni3   Ni    Ni4+2 0.983030 0.000000 0.604430 0.210776
Ni4   Ni    Ni4+2 0.016970 1.000000 0.395570 0.210791
Ni5   Ni    Ni4+2 0.587400 0.500000 0.604430 0.209277
Ni6   Ni    Ni4+2 0.412600 0.500000 0.395570 0.212089
Ni7   Ni    Ni4+2 0.087400 0.000000 0.604430 0.212141
Ni8   Ni    Ni4+2 0.912600 1.000000 0.395570 0.209750

loop_
_geom_bond_atom_site_label_1
_geom_bond_atom_site_label_2
_ccdc_geom_bond_type
C70   C127  A    
C7    C29   A    
C205  N8    A    
C145  H113  S    
C45   H97   S    
C74   C83   A    
C34   H174  S    
C116  H59   S    
C175  H136  S    
C66   C85   S    
C201  N4    A    
C41   C67   A    
C49   C60   A    
C124  C133  A    
C14   C21   A    
C18   H2    S    
C100  H160  S    
N24   Ni7   S    
C137  H105  S    
C61   C82   S    
C119  H71   S    
C38   N13   A    
C128  C145  A    
C184  C193  A    
C107  H18   S    
C139  C152  A    
H143  N28   S    
N6    Ni8   S    
C2    C90   A    
C99   H154  S    
C143  H111  S    
C71   C80   A    
N1    N20   A    
C144  H112  S    
C11   C15   A    
C162  C171  A    
C10   C20   A    
H26   N40   S    
H78   N51   S    
C104  H172  S    
C177  H135  S    
C136  C198  A    
N8    N17   A    
C47   C53   A    
C136  H104  S    
C14   C194  A    
C153  C180  A    
C43   N18   A    
C39   C65   A    
C46   C124  A    
C184  H127  S    
C36   C62   A    
C197  H79   S    
N53   Ni4   S    
C46   C141  A    
C38   C64   A    
C156  C173  A    
C166  C174  A    
C68   C95   A    
C72   C129  A    
C55   C143  A    
C56   C154  A    
C71   N37   S    
C40   N15   A    
C61   C197  A    
H34   N42   S    
C132  N23   A    
C201  H90   S    
C36   N10   A    
C178  H138  S    
C34   C61   A    
C82   C91   A    
C31   C207  A    
C11   C192  A    
C48   N22   A    
C118  H69   S    
C181  C190  A    
C43   C54   A    
C189  C206  A    
C73   N39   S    
C182  H125  S    
C74   N40   S    
C164  C173  A    
C121  N51   S    
C122  H85   S    
C122  N52   S    
C163  C172  A    
C160  C178  A    
C93   H49   S    
N7    N16   A    
C62   C81   S    
C105  H9    S    
C71   C128  A    
C185  H126  S    
C98   H151  S    
N3    Ni6   S    
C79   C127  A    
C73   C130  A    
C154  H122  S    
N15   Ni3   S    
C104  H173  S    
C149  H117  S    
C140  C145  A    
C169  N33   S    
C138  C151  A    
C54   C132  A    
C10   C191  A    
C37   H176  S    
C167  N31   S    
C80   C88   A    
C10   C16   A    
C44   C55   A    
C91   H47   S    
C111  H38   S    
C168  N32   S    
C84   C93   A    
H161  N32   S    
C86   C95   A    
N22   Ni8   S    
C106  N37   S    
C41   N16   A    
C7    C170  A    
C188  H128  S    
H21   N39   S    
N56   Ni5   S    
N18   Ni6   S    
C176  H144  S    
C87   C198  A    
C7    C196  A    
N4    Ni5   S    
C5    C194  A    
C78   C87   A    
N1    Ni1   S    
C90   C123  A    
C39   N14   A    
C173  H134  S    
C119  H73   S    
N9    N56   A    
C108  H22   S    
C55   C155  S    
C202  H91   S    
C57   C142  A    
C121  H81   S    
C204  H93   S    
C62   C199  A    
C96   H141  S    
C161  C188  A    
C116  H58   S    
C180  C189  A    
C57   C125  A    
C59   C158  S    
C110  H32   S    
C75   C84   A    
C15   C25   A    
C36   H175  S    
C29   N48   S    
N25   N45   A    
C163  N28   S    
C58   C165  A    
C170  N35   S    
C42   H7    S    
C49   N24   A    
N6    N15   A    
C5    C27   A    
C120  H75   S    
C6    C28   A    
C105  H11   S    
C70   N36   S    
C97   H145  S    
C161  C179  A    
C98   H149  S    
C115  H53   S    
C34   N9    A    
H65   N48   S    
C116  N46   S    
C157  C174  A    
C21   H35   S    
C165  N53   A    
C79   C198  A    
C199  H87   S    
C74   C131  A    
C200  H88   S    
C117  H63   S    
C97   H146  S    
C172  H130  S    
C63   C80   S    
H74   N50   S    
C102  H164  S    
C113  C130  A    
N17   Ni4   S    
C1    H1    S    
C142  H110  S    
C59   C176  A    
C164  C208  A    
C156  C182  A    
C45   C52   A    
H165  N33   S    
C114  H41   S    
C23   H57   S    
C50   C56   A    
C121  H80   S    
C51   N26   A    
C147  H115  S    
C45   N20   A    
C106  H15   S    
C104  N35   S    
C108  H23   S    
C199  N2    A    
C19   C28   A    
C139  H107  S    
C109  H27   S    
C16   C23   A    
C1    N1    A    
C57   C94   A    
C137  C150  A    
C96   N27   S    
C197  N56   A    
C118  H66   S    
C48   C59   A    
C167  C175  A    
N9    Ni2   S    
H83   N52   S    
H61   N47   S    
C130  C147  A    
C64   C78   S    
C142  C147  A    
C48   H99   S    
C187  H155  S    
C47   N21   A    
C116  H60   S    
C75   N41   S    
C155  C181  A    
C32   N51   S    
C79   C124  A    
C143  N34   A    
C69   C205  A    
C88   H44   S    
C170  C179  A    
C13   C138  A    
C159  C185  A    
C35   C123  A    
C107  N38   S    
C26   N44   S    
C98   H150  S    
C3    C192  A    
C33   N52   S    
C94   H50   S    
C76   C85   A    
C97   H147  S    
C39   H4    S    
C68   C144  A    
C96   H142  S    
C99   H153  S    
C9    C12   A    
N7    Ni8   S    
C103  N33   S    
H17   N38   S    
C202  N5    A    
C190  C207  A    
C152  H120  S    
C102  N32   S    
N11   Ni1   S    
C25   C33   A    
C101  C129  A    
C125  C134  A    
N23   Ni2   S    
C64   C201  A    
C102  H162  S    
C146  H114  S    
C12   C193  A    
C60   C159  S    
C185  C194  A    
C77   N43   S    
C183  C192  A    
C117  H64   S    
C136  C149  A    
C65   C86   S    
C76   N42   S    
C11   C19   A    
C17   H166  S    
C121  H82   S    
C108  N39   S    
C3    C33   A    
C168  C177  A    
C103  H169  S    
N20   Ni5   S    
C63   C200  A    
C5    C168  A    
C154  N45   A    
C37   C63   A    
H8    N36   S    
C155  C172  A    
C150  H118  S    
C114  H40   S    
C65   C202  A    
C28   N47   S    
C122  H86   S    
C72   C81   A    
C111  N42   S    
C81   C89   A    
C35   C92   A    
C40   C66   A    
C162  C206  A    
C132  H100  S    
H70   N49   S    
C165  H133  S    
C6    C195  A    
C30   N49   S    
C51   H103  S    
C24   C139  A    
C4    C193  A    
C110  N41   S    
N10   Ni1   S    
C100  H159  S    
C37   N11   A    
C99   N30   S    
C119  H72   S    
C76   C134  A    
C119  N49   S    
C138  H106  S    
C42   N17   A    
C43   H95   S    
C158  C175  A    
C8    C18   A    
C44   H96   S    
C87   H43   S    
C16   C196  A    
C115  H54   S    
C35   C140  A    
C8    C189  A    
C111  H37   S    
C134  C152  A    
N21   Ni6   S    
C122  H84   S    
C104  H171  S    
N24   N55   A    
C176  N54   A    
C141  C146  A    
C92   H48   S    
C126  C135  A    
C60   C187  A    
C182  C191  A    
C9    C190  A    
N2    N10   A    
H30   N41   S    
C151  H119  S    
C73   C82   A    
N5    Ni7   S    
N25   Ni7   S    
C186  H129  S    
N26   Ni8   S    
H52   N44   S    
C123  C131  A    
C2    C137  A    
H152  N30   S    
N19   N34   A    
C95   H51   S    
N34   Ni1   S    
C4    C26   A    
C75   C133  A    
C25   H68   S    
C21   C30   A    
C15   C195  A    
C4    C167  A    
C23   C32   A    
C117  N47   S    
C203  N6    A    
C118  N48   S    
C41   H6    S    
C110  H33   S    
C135  C151  A    
C183  H124  S    
C27   N46   S    
C163  C207  A    
C1    C52   A    
H170  N35   S    
C127  C146  A    
N18   N23   A    
C120  H76   S    
C105  H10   S    
C203  H92   S    
C131  C150  A    
C157  C183  A    
C162  N27   S    
C58   C161  S    
C158  C184  A    
C181  H121  S    
N2    Ni6   S    
N16   Ni3   S    
C114  H42   S    
C111  H36   S    
C20   H24   S    
C109  N40   S    
C12   C22   A    
C70   C78   A    
C19   H13   S    
C98   N29   S    
C160  C186  A    
C144  C148  A    
C54   C153  S    
C117  H62   S    
C105  N36   S    
N22   N54   A    
C179  H137  S    
H139  N27   S    
C83   C92   A    
N5    N14   A    
C17   C26   A    
C204  N7    A    
N55   Ni3   S    
H56   N46   S    
C113  C125  A    
C140  H108  S    
N26   N53   A    
C141  H109  S    
C166  N30   S    
C129  C148  A    
C67   C204  A    
C72   N38   S    
H148  N29   S    
C106  H16   S    
C115  N44   S    
C40   H5    S    
C2    C88   A    
C38   H3    S    
C180  H123  S    
H39   N43   S    
C24   C113  A    
C89   H45   S    
C187  N55   A    
C100  N31   S    
C164  N29   S    
C159  C177  A    
C49   H101  S    
C118  H67   S    
C20   C29   A    
C120  H77   S    
C103  H167  S    
C22   C31   A    
N8    Ni7   S    
C186  C195  A    
C133  C149  A    
C200  N3    A    
C51   C58   A    
C110  H31   S    
C42   C69   A    
C107  H19   S    
C100  H158  S    
C205  H94   S    
C69   C83   S    
C85   C94   A    
C112  N12   A    
C103  H168  S    
C107  H20   S    
C153  C171  A    
C101  C126  A    
N54   Ni4   S    
C99   H156  S    
C50   H102  S    
C115  H55   S    
C66   C203  A    
C53   C112  A    
C9    C17   A    
C77   C86   A    
C32   C208  A    
C50   N25   A    
C13   C101  A    
H157  N31   S    
C24   C91   A    
C68   C126  A    
C169  C178  A    
C44   N19   A    
C171  H131  S    
C97   N28   S    
N4    N13   A    
C120  N50   S    
C108  H25   S    
N45   Ni3   S    
C8    C14   A    
C102  H163  S    
C13   C89   A    
C96   H140  S    
C18   C27   A    
C109  H29   S    
C52   C156  S    
N14   Ni4   S    
C53   C157  S    
C112  H89   S    
N12   Ni2   S    
C56   C160  S    
C30   C206  A    
C106  H14   S    
C46   C93   A    
N19   Ni5   S    
C174  H132  S    
H12   N37   S    
C47   H98   S    
C191  C208  A    
C114  N43   S    
C22   H46   S    
N3    N11   A    
C31   N50   S    
C109  H28   S    
C67   C84   S    
C188  C196  A    
C90   C128  A    
N13   Ni2   S    
C77   C135  A    
N12   N21   A    
C148  H116  S    
C3    C166  A    
C6    C169  A    
