data_mof_unit_47402.cif
_audit_creation_date              2012-12-10T20:34:14-0500
_audit_creation_method            fapswitch 2.2
_symmetry_space_group_name_H-M    P1
_symmetry_Int_Tables_number       1
_space_group_crystal_system       triclinic
_cell_length_a                    9.947222
_cell_length_b                    10.652373
_cell_length_c                    13.59209
_cell_angle_alpha                 90.899064
_cell_angle_beta                  83.065625
_cell_angle_gamma                 89.752777
_cell_volume                      1429.49929861

loop_
_atom_site_label
_atom_site_type_symbol
_atom_type_description
_atom_site_fract_x
_atom_site_fract_y
_atom_site_fract_z
_atom_type_partial_charge
C1    C     C_R   0.500412 0.739261 0.495055 0.852576
C2    C     C_3   0.308649 0.927292 0.626039 -0.460091
C3    C     C_R   0.917637 0.571428 0.567231 0.208651
C4    C     C_R   0.475784 0.500861 0.685540 0.894858
C5    C     C_R   0.939588 0.439560 0.426854 -0.052145
C6    C     C_R   0.083625 0.436616 0.428101 -0.015551
C7    C     C_R   0.059254 0.569891 0.568207 0.095840
C8    C     C_3   0.043126 0.557146 0.678863 -0.249771
C9    C     C_3   0.890624 0.563021 0.677072 -0.553376
C10   C     C_R   0.500289 0.260383 0.499203 0.886915
C11   C     C_R   0.524344 0.499917 0.314460 0.874005
C12   C     C_1   0.457634 0.506154 0.789443 -0.140573
C13   C     C_1   0.543175 0.500262 0.210556 -0.157550
C14   C     C_2   0.559133 0.500829 0.018608 -0.173286
C15   C     C_2   0.443149 0.515926 0.981296 -0.185267
C16   C     C_1   0.446132 0.511248 0.877351 0.064830
C17   C     C_1   0.555455 0.500505 0.122614 0.032649
C18   C     C_R   0.164461 0.348139 0.359551 0.187118
C19   C     C_R   0.209096 0.382107 0.261547 -0.020413
C20   C     C_R   0.274137 0.293753 0.194677 -0.145530
C21   C     C_R   0.292562 0.170574 0.224433 -0.111950
C22   C     C_R   0.243965 0.134962 0.320593 -0.114847
C23   C     C_R   0.385296 0.936491 0.524783 0.137565
C24   C     C_R   0.178798 0.222999 0.387641 -0.134349
C25   C     C_2   0.088257 0.431662 0.713022 0.538886
C26   C     C_2   0.715353 0.868325 0.360090 0.427290
C27   C     C_2   0.877536 0.371495 0.348390 0.475334
C28   C     C_R   0.499065 0.870829 0.481629 -0.198311
C29   C     C_R   0.605842 0.934704 0.425194 -0.044426
C30   C     C_R   0.605914 0.065547 0.431603 -0.198268
C31   C     C_R   0.500064 0.128362 0.489825 -0.132480
C32   C     C_R   0.385617 0.063953 0.528539 0.107730
C33   C     C_3   0.309312 0.069763 0.630119 -0.470585
H1    H     H_    0.347338 0.529894 0.027963 0.167515
H2    H     H_    0.205920 0.887375 0.623920 0.205642
H3    H     H_    0.193452 0.476835 0.237206 0.140462
H4    H     H_    0.309374 0.320418 0.119561 0.148730
H5    H     H_    0.342797 0.102301 0.172570 0.143291
H6    H     H_    0.255774 0.038850 0.342892 0.146037
H7    H     H_    0.138925 0.193712 0.461340 0.119533
H8    H     H_    0.071794 0.346537 0.671187 0.028491
H9    H     H_    0.705090 0.770314 0.339823 0.090184
H10   H     H_    0.792852 0.310406 0.367101 0.094512
H11   H     H_    0.083332 0.639261 0.717355 0.181541
H12   H     H_    0.835807 0.475896 0.701399 0.212980
H13   H     H_    0.843987 0.650846 0.711126 0.206229
H14   H     H_    0.654844 0.486410 0.971901 0.174321
H15   H     H_    0.688091 0.117920 0.392533 0.183039
H16   H     H_    0.370412 0.109212 0.686475 0.207409
H17   H     H_    0.206978 0.112228 0.630457 0.200125
H18   H     H_    0.369176 0.883456 0.680178 0.198318
N1    N     N_R   0.857130 0.500860 0.500650 -0.149925
N2    N     N_R   0.142770 0.500820 0.500650 -0.144988
O1    O     O_R   0.385310 0.683210 0.499990 -0.603178
O2    O     O_2   0.817945 0.923245 0.326608 -0.570964
O3    O     O_2   0.918718 0.385682 0.261048 -0.580054
O4    O     O_R   0.614650 0.683240 0.500000 -0.623189
O5    O     O_R   0.368820 0.499950 0.640340 -0.591997
O6    O     O_R   0.598170 0.499990 0.640350 -0.617857
O7    O     O_R   0.385350 0.316760 0.500000 -0.614722
O8    O     O_R   0.614690 0.316790 0.500010 -0.650724
O9    O     O_R   0.401830 0.500010 0.359650 -0.618569
O10   O     O_R   0.631180 0.500050 0.359660 -0.619544
O11   O     O_2   0.141648 0.424574 0.788990 -0.576811
Zn1   Zn    Zn3+2 0.346870 0.499980 0.499990 0.951056
Zn2   Zn    Zn3+2 0.653130 0.500020 0.500010 0.937627

loop_
_geom_bond_atom_site_label_1
_geom_bond_atom_site_label_2
_ccdc_geom_bond_type
C2    H2    S    
C1    C28   S    
C10   O7    A    
C3    N1    A    
C5    N1    A    
C9    H12   S    
C29   C30   A    
C3    C9    S    
C1    O4    A    
C4    C12   S    
N2    Zn1   S    
O5    Zn1   S    
C11   O10   A    
C19   C20   A    
C14   C15   D    
C13   C17   T    
O4    Zn2   S    
C1    O1    A    
C11   O9    A    
C23   C32   A    
O10   Zn2   S    
C7    C8    S    
O1    Zn1   S    
C21   C22   A    
C26   O2    D    
C8    C25   S    
C11   C13   S    
C14   C17   S    
C26   H9    S    
C5    C6    A    
C12   C16   T    
C18   C24   A    
C22   H6    S    
C10   C31   S    
C2    C33   S    
C30   H15   S    
C28   C29   A    
C24   H7    S    
C14   H14   S    
O7    Zn1   S    
C3    C7    A    
C19   H3    S    
O6    Zn2   S    
C30   C31   A    
C6    C18   S    
C22   C24   A    
C10   O8    A    
C23   C28   A    
C2    H18   S    
C7    N2    A    
C6    N2    A    
C25   H8    S    
C15   C16   S    
C27   H10   S    
C9    H13   S    
N1    Zn2   S    
C20   C21   A    
C4    O6    A    
C26   C29   S    
C18   C19   A    
C4    O5    A    
C2    C23   S    
C27   O3    D    
C15   H1    S    
O9    Zn1   S    
C33   H17   S    
C5    C27   S    
C20   H4    S    
C33   H16   S    
O8    Zn2   S    
C31   C32   A    
C21   H5    S    
C8    H11   S    
C32   C33   S    
C8    C9    S    
C25   O11   D    
