data_mof_unit_31830.cif
_audit_creation_date              2012-10-26T19:52:29-0400
_audit_creation_method            fapswitch 2.2
_symmetry_space_group_name_H-M    P1
_symmetry_Int_Tables_number       1
_space_group_crystal_system       triclinic
_cell_length_a                    9.567803
_cell_length_b                    10.849027
_cell_length_c                    13.429937
_cell_angle_alpha                 89.988934
_cell_angle_beta                  72.40793
_cell_angle_gamma                 89.521917
_cell_volume                      1328.79938898

loop_
_atom_site_label
_atom_site_type_symbol
_atom_type_description
_atom_site_fract_x
_atom_site_fract_y
_atom_site_fract_z
_atom_type_partial_charge
C1    C     C_R   0.498713 0.737429 0.502217 0.554473
C2    C     C_R   0.373384 0.500066 0.815033 -0.000211
C3    C     C_R   0.366347 0.937833 0.529715 0.009435
C4    C     C_R   0.421258 0.496448 0.700151 0.532261
C5    C     C_R   0.495324 0.870018 0.514107 -0.019540
C6    C     C_R   0.622199 0.931543 0.517311 -0.151489
C7    C     C_R   0.625587 0.060022 0.520504 0.032923
C8    C     C_R   0.498748 0.128820 0.518327 -0.022392
C9    C     C_R   0.368495 0.064584 0.531249 0.001134
C10   C     C_3   0.255537 0.075133 0.475675 -0.260612
C11   C     C_3   0.253469 0.935099 0.473593 -0.247941
C12   C     C_R   0.435630 0.496262 0.979022 0.037001
C13   C     C_R   0.965274 0.500039 0.408326 0.155891
C14   C     C_R   0.887793 0.511189 0.590466 0.011109
C15   C     C_R   0.035967 0.511304 0.590434 -0.009817
C16   C     C_R   0.499757 0.262221 0.504007 0.544819
C17   C     C_R   0.112400 0.498103 0.408476 0.158295
C18   C     C_3   0.151962 0.399753 0.326971 -0.267252
C19   C     C_3   0.994910 0.405305 0.324168 -0.277364
C20   C     C_R   0.578490 0.496909 0.300115 0.542831
C21   C     C_R   0.768166 0.366243 0.034613 -0.131491
C22   C     C_R   0.622048 0.476799 0.187238 -0.000832
C23   C     C_R   0.466038 0.458901 0.873275 0.020047
C24   C     C_R   0.240047 0.559011 0.866306 -0.129810
C25   C     C_R   0.202631 0.584331 0.972397 -0.138766
C26   C     C_R   0.300127 0.556469 0.027958 -0.121981
C27   C     C_2   0.767703 0.115094 0.516879 0.581925
C28   C     C_R   0.540788 0.469873 0.031917 0.031150
C29   C     C_R   0.666115 0.396433 0.982193 0.045045
C30   C     C_R   0.685964 0.350428 0.882059 -0.145011
C31   C     C_R   0.586815 0.380020 0.828784 -0.132311
C32   C     C_R   0.525202 0.513660 0.133078 -0.136925
C33   C     C_R   0.744644 0.404248 0.137349 -0.136361
Cu1   Cu    Cu3+1 0.359330 0.500020 0.500010 0.937972
Cu2   Cu    Cu3+1 0.640670 0.499980 0.499990 0.971564
H1    H     H_    0.817466 0.371069 0.179261 0.120645
H2    H     H_    0.986546 0.445295 0.250109 0.118617
H3    H     H_    0.778504 0.290858 0.844689 0.128658
H4    H     H_    0.932809 0.319007 0.349420 0.177467
H5    H     H_    0.862915 0.308841 0.997612 0.113966
H6    H     H_    0.436554 0.574582 0.173127 0.108670
H7    H     H_    0.166457 0.589426 0.823608 0.123149
H8    H     H_    0.264335 0.580851 0.109524 0.095882
H9    H     H_    0.099303 0.629763 0.011235 0.123081
H10   H     H_    0.604359 0.337499 0.753192 0.178011
H11   H     H_    0.721511 0.880095 0.513145 0.160705
H12   H     H_    0.152461 0.116868 0.526922 0.157692
H13   H     H_    0.981643 0.132245 0.436944 0.318428
H14   H     H_    0.298873 0.116817 0.396788 0.136537
H15   H     H_    0.148038 0.895958 0.522505 0.155881
H16   H     H_    0.296262 0.895574 0.393598 0.145387
H17   H     H_    0.803175 0.519414 0.664369 0.130120
H18   H     H_    0.059253 0.519153 0.663986 0.115572
H19   H     H_    0.231816 0.431371 0.253212 0.130639
H20   H     H_    0.180994 0.311034 0.357406 0.141007
N1    N     N_R   0.852320 0.499070 0.499340 -0.221039
N2    N     N_R   0.148230 0.499110 0.499340 -0.232918
O1    O     O_R   0.381190 0.680360 0.500000 -0.495806
O2    O     O_R   0.891585 0.086599 0.433248 -0.723388
O3    O     O_R   0.618780 0.680320 0.499990 -0.504304
O4    O     O_R   0.323230 0.500000 0.650990 -0.514002
O5    O     O_R   0.560820 0.499960 0.650980 -0.515854
O6    O     O_R   0.381220 0.319680 0.500010 -0.501027
O7    O     O_R   0.618810 0.319640 0.500000 -0.466735
O8    O     O_R   0.439180 0.500040 0.349020 -0.507583
O9    O     O_R   0.676770 0.500000 0.349010 -0.504224
O10   O     O_2   0.777669 0.181375 0.588023 -0.530999

loop_
_geom_bond_atom_site_label_1
_geom_bond_atom_site_label_2
_ccdc_geom_bond_type
C8    C9    A    
Cu1   N2    S    
C2    C4    S    
C32   H6    S    
C6    C7    A    
C3    C9    A    
C16   O6    A    
C4    O5    A    
C29   C30   A    
C24   H7    S    
C9    C10   S    
C14   N1    A    
C27   O10   D    
C3    C11   S    
C13   C17   A    
C6    H11   S    
C13   N1    A    
C2    C23   A    
C17   C18   S    
C25   C26   A    
C7    C8    A    
C8    C16   S    
C11   H15   S    
C27   O2    S    
C1    O1    A    
C15   N2    A    
C12   C23   A    
C30   H3    S    
Cu2   O7    S    
C21   H5    S    
C22   C32   A    
C18   H20   S    
C12   C28   A    
C1    C5    S    
C5    C6    A    
C19   H4    S    
C25   H9    S    
C20   O9    A    
Cu1   O6    S    
C20   C22   S    
C26   H8    S    
Cu1   Cu2   S    
Cu2   O5    S    
C11   H16   S    
C2    C24   A    
C30   C31   A    
C19   H2    S    
C21   C33   A    
C10   C11   S    
C18   H19   S    
C15   H18   S    
C20   O8    A    
C28   C32   A    
C33   H1    S    
C7    C27   S    
C24   C25   A    
Cu1   O8    S    
H13   O2    S    
C18   C19   S    
C31   H10   S    
C1    O3    A    
C12   C26   A    
C10   H12   S    
Cu1   O1    S    
C22   C33   A    
C13   C19   S    
C14   C15   A    
C28   C29   A    
C16   O7    A    
Cu2   O9    S    
Cu2   N1    S    
C10   H14   S    
C21   C29   A    
C4    O4    A    
Cu1   O4    S    
C14   H17   S    
C17   N2    A    
Cu2   O3    S    
C3    C5    A    
C23   C31   A    
