data_mof_unit_22341.cif
_audit_creation_date              2013-03-05T15:48:37-0500
_audit_creation_method            fapswitch 2.2
_symmetry_space_group_name_H-M    P1
_symmetry_Int_Tables_number       1
_space_group_crystal_system       triclinic
_cell_length_a                    11.734712
_cell_length_b                    13.002412
_cell_length_c                    13.822682
_cell_angle_alpha                 88.004512
_cell_angle_beta                  93.288875
_cell_angle_gamma                 100.575211
_cell_volume                      2069.18720896

loop_
_atom_site_label
_atom_site_type_symbol
_atom_site_description
_atom_site_fract_x
_atom_site_fract_y
_atom_site_fract_z
_atom_type_partial_charge
O1    O     O_R   0.581500 0.354430 0.495010 -0.567790
O2    O     O_R   0.418500 0.645570 0.504990 -0.604933
O3    O     O_R   0.386890 0.341450 0.506880 -0.537576
O4    O     O_R   0.613110 0.658550 0.493120 -0.533608
C1    C     C_R   0.477844 0.298860 0.501825 0.829492
C2    C     C_R   0.522461 0.701126 0.499408 0.813238
O5    O     O_R   0.611060 0.507430 0.631070 -0.553998
O6    O     O_R   0.388940 0.492570 0.368930 -0.529988
O7    O     O_R   0.416450 0.494450 0.642940 -0.580352
O8    O     O_R   0.583550 0.505550 0.357060 -0.589881
C3    C     C_R   0.520507 0.502433 0.682195 0.828088
C4    C     C_R   0.479458 0.499144 0.317909 0.824360
Cu1   Cu    Cu3+1 0.615220 0.507680 0.492970 0.989309
Cu2   Cu    Cu3+1 0.384780 0.492320 0.507030 0.985780
C5    C     C_1   0.463685 0.498164 0.214795 -0.153090
C6    C     C_1   0.535277 0.509799 0.785337 -0.175919
C7    C     C_2   0.446284 0.494668 0.022640 0.372177
C8    C     C_2   0.545677 0.525080 0.976902 0.373999
C9    C     C_1   0.542695 0.517006 0.872138 -0.067928
C10   C     C_1   0.453094 0.496924 0.127847 -0.080864
C11   C     C_R   0.537753 0.815493 0.500138 -0.137189
C12   C     C_R   0.463860 0.184507 0.504629 -0.143752
C13   C     C_R   0.351489 0.010689 0.531869 -0.302129
C14   C     C_R   0.651351 0.989374 0.475738 -0.298584
C15   C     C_R   0.356232 0.119151 0.522932 0.446850
C16   C     C_R   0.645259 0.880545 0.480741 0.449133
C17   C     C_R   0.561198 0.140272 0.488708 -0.297927
C18   C     C_R   0.442213 0.860003 0.520814 -0.335387
C19   C     C_R   0.554253 0.032613 0.493347 0.114397
C20   C     C_R   0.449177 0.967610 0.516027 0.123480
H1    H     H_    0.271635 0.959889 0.550991 0.131256
H2    H     H_    0.730973 0.040233 0.456192 0.134175
N1    N     N_R   0.788370 0.519230 0.482390 -0.215978
N2    N     N_R   0.211630 0.480770 0.517610 -0.217499
C21   C     C_R   0.040531 0.420219 0.604958 -0.339018
C22   C     C_R   0.955128 0.564201 0.386006 -0.337344
C23   C     C_R   0.158955 0.425646 0.593166 0.008488
C24   C     C_R   0.837789 0.562431 0.400249 0.005827
C25   C     C_R   0.148083 0.529779 0.449031 0.605817
C26   C     C_R   0.854423 0.476688 0.553504 0.602545
C27   C     C_R   0.026188 0.523765 0.457712 -0.072195
C28   C     C_R   0.973661 0.473805 0.539864 -0.077460
H3    H     H_    0.786177 0.595572 0.344408 0.175676
H4    H     H_    0.208843 0.384942 0.644671 0.179296
H5    H     H_    0.002277 0.373817 0.665138 0.188581
H6    H     H_    0.988624 0.596727 0.318269 0.185614
O9    O     O_3   0.644652 0.573125 0.030206 -0.591480
C29   C     C_3   0.746478 0.548614 0.994853 0.065806
H7    H     H_    0.764903 0.588727 0.923513 0.153036
H8    H     H_    0.738491 0.462378 0.988539 0.144079
C30   C     C_3   0.848371 0.586358 0.065798 -0.790023
H9    H     H_    0.832990 0.547197 0.137811 0.248717
H10   H     H_    0.929241 0.567578 0.038653 0.192387
H11   H     H_    0.859387 0.672371 0.073758 0.252489
O10   O     O_3   0.344750 0.453282 0.968590 -0.596515
C31   C     C_3   0.243706 0.453706 0.019433 0.090965
H12   H     H_    0.242936 0.532880 0.047635 0.145854
H13   H     H_    0.237654 0.395001 0.080391 0.157421
C32   C     C_3   0.137399 0.424584 0.950778 -0.796667
H14   H     H_    0.134560 0.345377 0.921984 0.253123
H15   H     H_    0.057415 0.424411 0.990105 0.195550
H16   H     H_    0.140365 0.482207 0.889250 0.248417
H17   H     H_    0.361060 0.810804 0.539459 0.162047
H18   H     H_    0.643212 0.189662 0.472524 0.183827
O11   O     O_3   0.739677 0.836548 0.458544 -0.562489
C33   C     C_3   0.839480 0.878129 0.516882 0.080255
H19   H     H_    0.818396 0.888459 0.593252 0.132760
H20   H     H_    0.882501 0.954426 0.485760 0.137416
C34   C     C_3   0.925485 0.803553 0.518612 -0.800512
H21   H     H_    0.948641 0.791084 0.443669 0.247380
H22   H     H_    0.005710 0.837063 0.561658 0.183934
H23   H     H_    0.886885 0.727260 0.552277 0.246388
O12   O     O_3   0.259416 0.162484 0.539056 -0.563541
C35   C     C_3   0.164772 0.119735 0.475718 0.060990
H24   H     H_    0.121740 0.042020 0.503885 0.135526
H25   H     H_    0.192273 0.111854 0.400772 0.134389
C36   C     C_3   0.075571 0.191349 0.469941 -0.762776
H26   H     H_    0.114458 0.269265 0.439624 0.259490
H27   H     H_    0.999803 0.157148 0.422107 0.187412
H28   H     H_    0.045271 0.200525 0.543260 0.246650
O13   O     O_3   0.801782 0.429342 0.634787 -0.557141
C37   C     C_3   0.844718 0.487258 0.718619 0.053034
H29   H     H_    0.793409 0.549382 0.728757 0.161080
H30   H     H_    0.936978 0.527326 0.716551 0.117479
C38   C     C_3   0.834248 0.413353 0.806709 -0.829144
H31   H     H_    0.879965 0.454418 0.870718 0.193785
H32   H     H_    0.741374 0.385771 0.821176 0.247797
H33   H     H_    0.874644 0.344484 0.794357 0.252872
O14   O     O_3   0.200423 0.572472 0.365662 -0.565254
C39   C     C_3   0.210312 0.682847 0.360620 0.048257
H34   H     H_    0.293737 0.720183 0.395201 0.184628
H35   H     H_    0.140721 0.712929 0.396258 0.111688
C40   C     C_3   0.211036 0.719395 0.254755 -0.817712
H36   H     H_    0.128882 0.684486 0.215175 0.238262
H37   H     H_    0.220881 0.805981 0.250005 0.207592
H38   H     H_    0.284772 0.695739 0.219699 0.253282

loop_
_geom_bond_atom_site_label_1
_geom_bond_atom_site_label_2
_geom_bond_distance
_ccdc_geom_bond_type
C33   H20   1.111515 S    
C11   C16   1.417810 A    
C40   H36   1.109464 S    
C17   C19   1.386633 A    
N2    C23   1.358629 A    
C27   C28   1.404779 A    
O10   C31   1.413564 S    
C8    O9    1.396299 S    
O13   C37   1.420645 S    
C25   C27   1.429876 A    
C36   H26   1.110372 S    
O5    C3    1.300158 A    
C35   H25   1.116123 S    
O1    C1    1.302432 A    
C21   C23   1.397118 A    
C14   C16   1.403156 A    
C36   H28   1.110453 S    
C33   C34   1.521256 S    
C7    C10   1.452885 S    
C31   H12   1.115163 S    
C8    C9    1.453522 S    
O12   C35   1.415865 S    
O4    Cu1   1.966444 S    
C34   H22   1.110573 S    
C21   C28   1.409541 A    
C14   C19   1.396457 A    
C29   C30   1.521772 S    
C1    C12   1.465043 S    
C35   C36   1.520560 S    
C22   H6    1.078734 S    
C7    O10   1.399229 S    
C29   H8    1.113977 S    
C33   H19   1.116088 S    
C32   H14   1.111121 S    
C40   H37   1.110454 S    
Cu1   Cu2   2.692478 S    
C22   C27   1.408535 A    
O2    C2    1.303648 A    
C36   H27   1.110569 S    
C5    C10   1.201504 T    
C32   H15   1.110911 S    
N1    C26   1.380260 A    
C35   H24   1.111547 S    
C38   H32   1.110381 S    
N2    C25   1.382754 A    
C13   C20   1.396003 A    
O4    C2    1.294482 A    
C38   H31   1.108609 S    
C2    C11   1.465093 S    
C12   C15   1.417403 A    
C30   H9    1.110976 S    
C30   H10   1.110531 S    
C13   H1    1.083190 S    
C34   H23   1.110343 S    
O7    Cu2   1.894178 S    
C14   H2    1.083061 S    
Cu1   N1    2.023113 S    
C19   C20   1.405844 A    
C3    C6    1.430688 S    
C39   H35   1.113258 S    
O9    C29   1.409181 S    
C4    C5    1.426916 S    
O6    C4    1.296677 A    
C7    C8    1.346976 D    
O7    C3    1.295225 A    
O3    Cu2   1.966442 S    
O8    C4    1.296839 A    
C29   H7    1.112866 S    
C11   C18   1.400004 A    
C37   H29   1.109381 S    
C40   H38   1.110983 S    
C37   H30   1.113485 S    
C12   C17   1.400974 A    
O1    Cu1   1.958535 S    
C22   C24   1.397996 A    
C21   H5    1.079814 S    
C39   C40   1.522755 S    
C38   H33   1.109714 S    
C32   H16   1.111461 S    
O6    Cu2   1.912209 S    
C16   O11   1.390270 S    
C26   O13   1.383762 S    
O3    C1    1.295726 A    
O8    Cu1   1.894176 S    
Cu2   N2    2.023112 S    
C37   C38   1.521012 S    
N1    C24   1.361092 A    
C31   C32   1.521844 S    
C30   H11   1.110612 S    
C23   H4    1.081353 S    
C18   C20   1.385950 A    
C24   H3    1.080395 S    
C39   H34   1.100261 S    
C6    C9    1.203652 T    
C26   C28   1.429966 A    
C31   H13   1.113474 S    
C15   O12   1.389473 S    
C13   C15   1.402517 A    
C34   H21   1.110588 S    
O2    Cu2   1.958535 S    
C17   H18   1.084674 S    
C18   H17   1.084251 S    
O5    Cu1   1.912210 S    
O11   C33   1.415544 S    
O14   C39   1.418021 S    
C25   O14   1.387401 S    
