data_mof_unit_53323.cif
_audit_creation_date              2012-12-10T18:57:10-0500
_audit_creation_method            fapswitch 2.2
_symmetry_space_group_name_H-M    P1
_symmetry_Int_Tables_number       1
_space_group_crystal_system       triclinic
_cell_length_a                    8.741686
_cell_length_b                    10.850158
_cell_length_c                    9.609923
_cell_angle_alpha                 90.095533
_cell_angle_beta                  98.031244
_cell_angle_gamma                 91.577289
_cell_volume                      902.192637957

loop_
_atom_site_label
_atom_site_type_symbol
_atom_type_description
_atom_site_fract_x
_atom_site_fract_y
_atom_site_fract_z
_atom_type_partial_charge
C1    C     C_R   0.501759 0.262793 0.500095 0.843008
C2    C     C_R   0.446823 0.937752 0.367803 0.108913
C3    C     C_R   0.482139 0.870724 0.495155 -0.055312
C4    C     C_R   0.530791 0.936257 0.619529 -0.014445
C5    C     C_3   0.472342 0.934773 0.759459 0.304725
C6    C     C_3   0.491982 0.074652 0.761367 -0.457570
C7    C     C_R   0.601892 0.573586 0.086393 0.131601
C8    C     C_R   0.388989 0.434215 0.055793 0.482125
C9    C     C_R   0.393055 0.434640 0.908770 -0.102889
C10   C     C_R   0.600519 0.575045 0.939340 0.239576
C11   C     C_3   0.772111 0.572760 0.953689 -0.422273
C12   C     C_R   0.204308 0.500576 0.464241 0.923008
C13   C     C_3   0.773027 0.566987 0.110989 -0.425039
C14   C     C_R   0.489904 0.736991 0.498276 0.801435
C15   C     C_R   0.796064 0.500362 0.536356 0.869445
C16   C     C_2   0.038815 0.501513 0.445877 -0.339097
C17   C     C_2   0.962329 0.500260 0.556921 -0.352823
C18   C     C_R   0.544579 0.062963 0.620962 0.030944
C19   C     C_R   0.505507 0.129739 0.498260 -0.084665
C20   C     C_R   0.466311 0.066021 0.370826 -0.184540
Cu1   Cu    Cu3+1 0.499990 0.499980 0.640670 0.990932
Cu2   Cu    Cu3+1 0.500010 0.500020 0.359330 1.010157
H1    H     H_    0.979865 0.503266 0.339938 0.193391
H2    H     H_    0.307972 0.383240 0.837473 0.191813
H3    H     H_    0.815274 0.487428 0.910269 0.243377
H4    H     H_    0.823098 0.660292 0.918370 0.195086
H5    H     H_    0.809068 0.475672 0.153593 0.233712
H6    H     H_    0.829247 0.649124 0.168059 0.198717
H7    H     H_    0.021937 0.498718 0.664047 0.187586
H8    H     H_    0.440314 0.116161 0.273455 0.211680
H9    H     H_    0.552913 0.888712 0.841452 0.075340
H10   H     H_    0.382830 0.125785 0.756791 0.248629
H11   H     H_    0.586649 0.108832 0.842766 0.171989
N1    N     N_R   0.500980 0.500930 0.148050 -0.245588
N2    N     N_R   0.500990 0.500890 0.852140 -0.209249
O1    O     O_R   0.500000 0.319640 0.618810 -0.594464
O2    O     O_R   0.500020 0.319680 0.381230 -0.543315
O3    O     O_R   0.274830 0.499980 0.591380 -0.573943
O4    O     O_R   0.274850 0.500020 0.353800 -0.508369
O5    O     O_R   0.499980 0.680320 0.618770 -0.537568
O6    O     O_R   0.500000 0.680360 0.381190 -0.598907
O7    O     O_R   0.725150 0.499980 0.646200 -0.594158
O8    O     O_R   0.725170 0.500020 0.408620 -0.589205
C21   C     C_3   0.374157 0.880550 0.229510 -0.326413
C22   C     C_3   0.494971 0.863839 0.131562 -0.746034
H12   H     H_    0.597977 0.817729 0.186322 0.247985
H13   H     H_    0.532130 0.954909 0.093334 0.236401
H14   H     H_    0.444191 0.806349 0.040350 0.267789
H15   H     H_    0.311520 0.792329 0.244060 0.220535
H16   H     H_    0.283314 0.941499 0.177402 0.235330
S1    S     S_3+6 0.273238 0.885310 0.753845 -0.014022
O9    O     O_2   0.206915 0.947237 0.871132 -0.280860
O10   O     O_2   0.181567 0.919397 0.615747 -0.294356
O11   O     O_3   0.261945 0.731799 0.775330 -0.529111
H17   H     H_    0.150868 0.712488 0.777323 0.364495
S2    S     S_3+6 0.217543 0.358524 0.099236 -0.007999
O12   O     O_2   0.099742 0.455859 0.104589 -0.342571
O13   O     O_2   0.155286 0.268899 0.984181 -0.311549
O14   O     O_3   0.235501 0.278826 0.249476 -0.534647
H18   H     H_    0.128853 0.252024 0.261301 0.361257

loop_
_geom_bond_atom_site_label_1
_geom_bond_atom_site_label_2
_ccdc_geom_bond_type
C21   H15   S    
C7    C10   A    
C6    H10   S    
C6    H11   S    
C13   H6    S    
C10   N2    A    
Cu1   N2    S    
C17   H7    S    
C19   C20   A    
S2    O14   S    
C1    O2    A    
S1    O11   S    
C4    C18   A    
C8    S2    S    
C12   O4    A    
C2    C3    A    
C15   O8    A    
O14   H18   S    
C9    H2    S    
Cu1   O1    S    
C8    N1    A    
C22   H12   S    
C21   C22   S    
C4    C5    S    
C11   C13   S    
C16   C17   D    
C3    C14   S    
C14   O6    A    
C6    C18   S    
Cu2   O4    S    
S2    O13   D    
C16   H1    S    
C22   H13   S    
C12   O3    A    
C5    C6    S    
Cu2   N1    S    
C7    N1    A    
C1    C19   S    
Cu2   O6    S    
C10   C11   S    
C11   H3    S    
C2    C20   A    
S1    O9    D    
C12   C16   S    
C7    C13   S    
S2    O12   D    
C1    O1    A    
C15   C17   S    
C18   C19   A    
C22   H14   S    
C21   H16   S    
C9    N2    A    
O11   H17   S    
C5    S1    S    
C20   H8    S    
Cu1   O7    S    
C11   H4    S    
C5    H9    S    
Cu1   Cu2   S    
Cu2   O2    S    
C14   O5    A    
Cu2   O8    S    
C13   H5    S    
Cu1   O3    S    
C3    C4    A    
C15   O7    A    
C2    C21   S    
C8    C9    A    
S1    O10   D    
Cu1   O5    S    
