data_mof_unit_18425.cif
_audit_creation_date              2012-12-11T15:55:48-0500
_audit_creation_method            fapswitch 2.2
_symmetry_space_group_name_H-M    P1
_symmetry_Int_Tables_number       1
_space_group_crystal_system       triclinic
_cell_length_a                    6.938726
_cell_length_b                    14.529119
_cell_length_c                    16.115725
_cell_angle_alpha                 89.968511
_cell_angle_beta                  89.744525
_cell_angle_gamma                 89.93644
_cell_volume                      1624.66647197

loop_
_atom_site_label
_atom_site_type_symbol
_atom_type_description
_atom_site_fract_x
_atom_site_fract_y
_atom_site_fract_z
_atom_type_partial_charge
O1    O     O_R   0.505680 0.583900 0.413320 -0.540548
O2    O     O_R   0.176010 0.594950 0.586080 -0.543059
O3    O     O_R   0.005680 0.416100 0.586680 -0.536949
C1    C     C_R   0.344812 0.617154 0.615062 0.686190
O4    O     O_R   0.175960 0.594930 0.413930 -0.542750
O5    O     O_R   0.005640 0.416080 0.413300 -0.540129
C2    C     C_R   0.345161 0.617144 0.384992 0.687835
O6    O     O_R   0.505720 0.583920 0.586700 -0.540083
O7    O     O_3   0.339190 0.441320 0.500000 -0.370175
V1    V     V_3+5 0.064350 0.510890 0.500000 1.396765
O8    O     O_R   0.675920 0.405050 0.413920 -0.543665
C3    C     C_R   0.845424 0.382727 0.385339 0.691813
O9    O     O_R   0.675960 0.405070 0.586070 -0.543863
C4    C     C_R   0.844607 0.382800 0.614722 0.695519
V2    V     V_3+5 0.564340 0.489110 0.500000 1.392573
O10   O     O_3   0.839370 0.558680 0.500000 -0.369897
C5    C     C_R   0.011630 0.314224 0.738390 0.108397
C6    C     C_R   0.852717 0.317085 0.685159 -0.113555
C7    C     C_R   0.699691 0.256319 0.702064 -0.183931
H1    H     H_    0.576010 0.254855 0.661727 0.138890
C8    C     C_R   0.711020 0.192186 0.767501 -0.176693
H2    H     H_    0.594421 0.143812 0.776200 0.131981
C9    C     C_R   0.876639 0.186184 0.817529 -0.110915
C10   C     C_R   0.024049 0.249802 0.802566 0.106283
C11   C     C_3   0.230987 0.231279 0.784151 -0.424195
C12   C     C_3   0.218196 0.302531 0.715695 -0.400107
H3    H     H_    0.254803 0.160231 0.760580 0.168225
H4    H     H_    0.326839 0.252309 0.835490 0.179894
H5    H     H_    0.237232 0.273123 0.652485 0.170571
H6    H     H_    0.303665 0.365608 0.728442 0.170835
C13   C     C_R   0.032460 0.203163 0.233282 -0.190801
H7    H     H_    0.163236 0.163594 0.224337 0.120879
C14   C     C_R   0.024674 0.265540 0.299395 -0.163062
H8    H     H_    0.150020 0.273236 0.338595 0.124668
C15   C     C_R   0.856090 0.315845 0.315791 -0.065537
C16   C     C_R   0.697681 0.304457 0.263435 -0.176901
H9    H     H_    0.569573 0.345486 0.274533 0.115577
C17   C     C_R   0.704084 0.244469 0.194887 0.084514
C18   C     C_R   0.873704 0.190473 0.180313 -0.062740
C19   C     C_R   0.188043 0.724691 0.718025 -0.158412
H10   H     H_    0.047356 0.706355 0.694442 0.116349
C20   C     C_R   0.199420 0.788228 0.783190 -0.151746
H11   H     H_    0.066805 0.817012 0.807590 0.119105
C21   C     C_R   0.378991 0.814307 0.816219 -0.048211
C22   C     C_R   0.546849 0.775016 0.782156 -0.158830
H12   H     H_    0.687536 0.793351 0.805739 0.116499
C23   C     C_R   0.535472 0.711479 0.716991 -0.151409
H13   H     H_    0.668087 0.682696 0.692591 0.118936
C24   C     C_R   0.355906 0.685436 0.683934 -0.047523
C25   C     C_R   0.188296 0.724549 0.282638 -0.156979
H14   H     H_    0.047641 0.706078 0.306726 0.116912
C26   C     C_R   0.199295 0.788121 0.217435 -0.152711
H15   H     H_    0.066616 0.816809 0.193487 0.119516
C27   C     C_R   0.378715 0.814352 0.183811 -0.046901
C28   C     C_R   0.546828 0.775207 0.217272 -0.156612
H16   H     H_    0.687476 0.793676 0.193176 0.117306
C29   C     C_R   0.535827 0.711630 0.282476 -0.153216
H17   H     H_    0.668498 0.682930 0.306421 0.118675
C30   C     C_R   0.356407 0.685437 0.316128 -0.047156
O11   O     O_R   0.229200 0.915950 0.913350 -0.539331
O12   O     O_R   0.559090 0.905000 0.086080 -0.542040
O13   O     O_R   0.729280 0.083880 0.086680 -0.540849
C31   C     C_R   0.389917 0.882723 0.115010 0.687840
O14   O     O_R   0.558920 0.904980 0.913920 -0.542811
O15   O     O_R   0.729110 0.083860 0.913300 -0.539223
C32   C     C_R   0.390102 0.882686 0.885012 0.687076
O16   O     O_R   0.229360 0.915970 0.086730 -0.539484
O17   O     O_3   0.395680 0.058580 0.000030 -0.372874
V3    V     V_3+5 0.670570 0.989070 0.999990 1.390197
O18   O     O_R   0.058820 0.094950 0.913870 -0.541429
C33   C     C_R   0.889958 0.116541 0.884695 0.687718
O19   O     O_R   0.058990 0.094970 0.086020 -0.544911
C34   C     C_R   0.888399 0.119631 0.113066 0.680443
V4    V     V_3+5 0.170560 0.010930 0.999930 1.381525
O20   O     O_3   0.895590 0.941310 0.999960 -0.367007
C35   C     C_3   0.530917 0.246096 0.137543 -0.358418
C36   C     C_3   0.580430 0.292788 0.054740 -0.284621
C37   C     C_3   0.399608 0.310504 0.003671 -0.759926
H18   H     H_    0.326397 0.244609 0.989062 0.243653
H19   H     H_    0.440321 0.345563 0.944963 0.207365
H20   H     H_    0.298146 0.355773 0.038213 0.220756
H21   H     H_    0.651987 0.359907 0.066744 0.188098
H22   H     H_    0.681049 0.249271 0.018070 0.188699
H23   H     H_    0.470663 0.176373 0.128334 0.199817
H24   H     H_    0.411100 0.285594 0.166747 0.164289

loop_
_geom_bond_atom_site_label_1
_geom_bond_atom_site_label_2
_ccdc_geom_bond_type
C28   H16   S    
C4    C6    S    
C21   C32   S    
C15   C16   A    
C1    O6    A    
C35   H23   S    
C23   C24   A    
C17   C35   S    
C22   H12   S    
C21   C22   A    
C11   H4    S    
C25   C30   A    
C16   H9    S    
C7    C8    A    
O5    C3    A    
C17   C18   A    
C37   H19   S    
C29   C30   A    
C27   C31   S    
C36   H22   S    
O17   V4    S    
C19   C24   A    
C6    C7    A    
O11   V4    S    
O12   C31   A    
O8    V2    S    
C13   H7    S    
O17   V3    S    
O18   V4    S    
C25   C26   A    
C9    C10   A    
C13   C14   A    
O13   C34   A    
O18   C33   A    
O1    V2    S    
O7    V1    S    
C19   C20   A    
O11   C32   A    
C8    H2    S    
C20   C21   A    
C2    C30   S    
C26   C27   A    
C14   H8    S    
C22   C23   A    
C8    C9    A    
C31   O16   A    
C5    C10   A    
V4    O20   S    
C9    C33   S    
C10   C11   S    
O19   V4    S    
O4    C2    A    
C37   H18   S    
C25   H14   S    
C11   C12   S    
C36   C37   S    
O13   V3    S    
O14   C32   A    
O2    C1    A    
C23   H13   S    
C5    C6    A    
O16   V4    S    
O14   V3    S    
C35   C36   S    
C3    C15   S    
O3    C4    A    
C19   H10   S    
C12   H6    S    
O6    V2    S    
C28   C29   A    
C20   H11   S    
C5    C12   S    
O2    V1    S    
C26   H15   S    
O12   V3    S    
C27   C28   A    
O1    C2    A    
O19   C34   A    
O5    V1    S    
O8    C3    A    
C11   H3    S    
C1    C24   S    
C7    H1    S    
O9    V2    S    
O7    V2    S    
O4    V1    S    
O3    V1    S    
O15   C33   A    
C37   H20   S    
C29   H17   S    
C36   H21   S    
O15   V3    S    
C16   C17   A    
C14   C15   A    
C13   C18   A    
V3    O20   S    
C18   C34   S    
C12   H5    S    
V1    O10   S    
O9    C4    A    
C35   H24   S    
V2    O10   S    
