data_mof_unit_44069.cif
_audit_creation_date              2012-12-11T14:38:08-0500
_audit_creation_method            fapswitch 2.2
_symmetry_space_group_name_H-M    P1
_symmetry_Int_Tables_number       1
_space_group_crystal_system       triclinic
_cell_length_a                    19.47642
_cell_length_b                    11.144086
_cell_length_c                    19.66804
_cell_angle_alpha                 89.836099
_cell_angle_beta                  96.679012
_cell_angle_gamma                 89.642515
_cell_volume                      4239.80536473

loop_
_atom_site_label
_atom_site_type_symbol
_atom_type_description
_atom_site_fract_x
_atom_site_fract_y
_atom_site_fract_z
_atom_type_partial_charge
C1    C     C_R   0.723721 0.957488 0.361540 0.555337
C2    C     C_R   0.275816 0.955598 0.639264 0.551040
C3    C     C_R   0.225323 0.452123 0.359777 0.549553
C4    C     C_R   0.791091 0.493397 0.633273 0.548972
C5    C     C_3   0.683342 0.447396 0.458098 0.069662
C6    C     C_3   0.322502 0.433121 0.540347 0.075920
C7    C     C_3   0.169684 0.910161 0.464812 0.068481
C8    C     C_3   0.820796 0.944453 0.542686 0.074970
C9    C     C_3   0.829519 0.517216 0.518620 -0.229941
C10   C     C_3   0.176861 0.481230 0.467252 -0.199508
C11   C     C_3   0.317269 0.979488 0.526941 -0.216513
C12   C     C_3   0.676853 0.000599 0.469584 -0.206717
C13   C     C_3   0.785545 0.320582 0.553667 -0.240908
C14   C     C_3   0.234938 0.287623 0.445422 -0.286631
C15   C     C_3   0.266753 0.787313 0.560864 -0.264015
C16   C     C_3   0.731990 0.802214 0.448793 -0.277203
C17   C     C_3   0.775766 0.457041 0.561331 -0.007295
C18   C     C_3   0.237841 0.422585 0.432195 0.005185
C19   C     C_3   0.260890 0.922539 0.568054 -0.006231
C20   C     C_3   0.735794 0.935600 0.434762 -0.002648
C21   C     C_3   0.751252 0.400990 0.432564 0.102208
C22   C     C_3   0.253189 0.388097 0.563897 0.104531
C23   C     C_3   0.238949 0.867961 0.439013 0.095192
C24   C     C_3   0.751051 0.901672 0.566540 0.109023
C25   C     C_3   0.807753 0.498562 0.441427 0.107913
C26   C     C_3   0.195190 0.481793 0.545444 0.086486
C27   C     C_3   0.292195 0.972660 0.449751 0.116421
C28   C     C_3   0.695279 0.000507 0.548452 0.095010
C29   C     C_3   0.776796 0.290838 0.477908 -0.284612
C30   C     C_3   0.232127 0.271286 0.522684 -0.282749
C31   C     C_3   0.267950 0.760952 0.484686 -0.294070
C32   C     C_3   0.727465 0.787178 0.524783 -0.276196
C33   C     C_3   0.555049 0.229929 0.953148 -0.244809
C34   C     C_3   0.571915 0.230516 0.030994 -0.221871
C35   C     C_3   0.055026 0.730102 0.953143 -0.244909
C36   C     C_3   0.071891 0.730675 0.030990 -0.221826
C37   C     C_3   0.427718 0.241656 0.969085 -0.220555
C38   C     C_3   0.503884 0.040630 0.040374 -0.234330
C39   C     C_3   0.927679 0.741495 0.969083 -0.220450
C40   C     C_3   0.004013 0.540616 0.040352 -0.234165
C41   C     C_3   0.486614 0.040513 0.962017 -0.234323
C42   C     C_3   0.444630 0.241134 0.047069 -0.246645
C43   C     C_3   0.986745 0.540492 0.961995 -0.234288
C44   C     C_3   0.944597 0.740973 0.047068 -0.246585
C45   C     C_R   0.536135 0.180425 0.338588 0.540671
C46   C     C_R   0.463661 0.180315 0.661278 0.540691
C47   C     C_R   0.036240 0.680428 0.338672 0.537805
C48   C     C_R   0.963932 0.680312 0.661445 0.534255
C49   C     C_3   0.484036 0.171663 0.934381 0.050866
C50   C     C_3   0.512809 0.171948 0.066518 0.053868
C51   C     C_3   0.984057 0.671660 0.934373 0.050886
C52   C     C_3   0.012830 0.671945 0.066509 0.053662
C53   C     C_1   0.757655 0.413731 0.900815 -0.014182
C54   C     C_1   0.237766 0.428352 0.095325 -0.012238
C55   C     C_1   0.257653 0.913725 0.900814 -0.013256
C56   C     C_1   0.737769 0.928344 0.095328 -0.012422
C57   C     C_1   0.736219 0.365022 0.026918 -0.051166
C58   C     C_1   0.251713 0.406894 0.965268 -0.052891
C59   C     C_1   0.236218 0.865017 0.026917 -0.051324
C60   C     C_1   0.751717 0.906882 0.965272 -0.052753
C61   C     C_1   0.745941 0.389135 0.958106 -0.047302
C62   C     C_1   0.245778 0.416961 0.035850 -0.050962
C63   C     C_1   0.245939 0.889129 0.958105 -0.047076
C64   C     C_1   0.745782 0.916950 0.035854 -0.050981
C65   C     C_1   0.729756 0.343719 0.086026 -0.020213
C66   C     C_1   0.256345 0.392094 0.905306 -0.014406
C67   C     C_1   0.229756 0.843715 0.086025 -0.021397
C68   C     C_1   0.756348 0.892083 0.905309 -0.013801
C69   C     C_R   0.739147 0.360464 0.361605 0.624111
C70   C     C_R   0.261513 0.358180 0.637269 0.619122
C71   C     C_R   0.227935 0.823454 0.368223 0.592749
C72   C     C_R   0.759919 0.864609 0.639266 0.611596
C73   C     C_R   0.722198 0.954610 0.163156 0.541327
C74   C     C_R   0.277241 0.952560 0.836146 0.544173
C75   C     C_R   0.222196 0.454614 0.163154 0.541349
C76   C     C_R   0.777241 0.452560 0.836145 0.552966
C77   C     C_R   0.533425 0.179168 0.140404 0.533923
C78   C     C_R   0.464819 0.178896 0.860305 0.541290
C79   C     C_R   0.033439 0.679168 0.140398 0.534027
C80   C     C_R   0.964832 0.678894 0.860299 0.541293
C81   C     C_R   0.722946 0.312603 0.155866 0.549598
C82   C     C_R   0.263921 0.357929 0.836393 0.549841
C83   C     C_R   0.222945 0.812601 0.155866 0.551718
C84   C     C_R   0.763923 0.857923 0.836396 0.550656
C85   C     C_1   0.484797 0.172907 0.594056 0.007771
C86   C     C_1   0.514434 0.172928 0.405584 -0.002287
C87   C     C_1   0.985722 0.672998 0.594470 -0.001020
C88   C     C_1   0.014973 0.672938 0.405864 0.005592
C89   C     C_1   0.503894 0.169769 0.464704 -0.036942
C90   C     C_1   0.495010 0.169775 0.534848 -0.028729
C91   C     C_1   0.004833 0.669844 0.465108 -0.034758
C92   C     C_1   0.996192 0.669937 0.535322 -0.035909
C93   C     C_3   0.698297 0.482047 0.533629 -0.210487
C94   C     C_3   0.311483 0.461684 0.463422 -0.220778
C95   C     C_3   0.185580 0.957068 0.538525 -0.221514
C96   C     C_3   0.809310 0.975300 0.465869 -0.224376
Cr1   Cr    Cr6+3 0.765780 0.160710 0.267420 1.025930
Cr2   Cr    Cr6+3 0.234220 0.160710 0.732580 1.025805
Cr3   Cr    Cr6+3 0.265780 0.660710 0.267420 1.022209
Cr4   Cr    Cr6+3 0.734220 0.660710 0.732580 1.025591
Cr5   Cr    Cr6+3 0.612200 0.009560 0.248850 1.027522
Cr6   Cr    Cr6+3 0.387800 0.009560 0.751150 1.028112
Cr7   Cr    Cr6+3 0.112200 0.509560 0.248850 1.025488
Cr8   Cr    Cr6+3 0.887800 0.509560 0.751150 1.027644
Cr9   Cr    Cr6+3 0.616030 0.323720 0.248510 1.044164
Cr10  Cr    Cr6+3 0.383970 0.323720 0.751490 1.041575
Cr11  Cr    Cr6+3 0.116030 0.823720 0.248510 1.052793
Cr12  Cr    Cr6+3 0.883970 0.823720 0.751490 1.039441
H1    H     H_    0.681532 0.574063 0.542027 0.148392
H2    H     H_    0.321784 0.556098 0.453314 0.154092
H3    H     H_    0.178136 0.054689 0.539838 0.154474
H4    H     H_    0.816861 0.070936 0.457313 0.156938
H5    H     H_    0.827730 0.259733 0.464589 0.140129
H6    H     H_    0.178483 0.246575 0.530133 0.137857
H7    H     H_    0.322336 0.743159 0.475913 0.138049
H8    H     H_    0.672896 0.766599 0.531210 0.137393
H9    H     H_    0.880620 0.473371 0.533479 0.139333
H10   H     H_    0.129712 0.425868 0.454395 0.151601
H11   H     H_    0.365845 0.926008 0.538018 0.141715
H12   H     H_    0.627709 0.950977 0.456134 0.147776
H13   H     H_    0.554985 0.323758 0.933526 0.143013
H14   H     H_    0.621141 0.180386 0.045275 0.105604
H15   H     H_    0.054883 0.823960 0.933534 0.142808
H16   H     H_    0.121150 0.680639 0.045263 0.105384
H17   H     H_    0.595603 0.179158 0.929594 0.121175
H18   H     H_    0.580161 0.325100 0.047919 0.146393
H19   H     H_    0.095628 0.679451 0.929577 0.120412
H20   H     H_    0.080071 0.825269 0.047927 0.146230
H21   H     H_    0.423921 0.336632 0.951255 0.150627
H22   H     H_    0.552345 0.988084 0.054150 0.150551
H23   H     H_    0.923800 0.836482 0.951257 0.150762
H24   H     H_    0.052519 0.488190 0.054126 0.150623
H25   H     H_    0.449007 0.335318 0.065727 0.144268
H26   H     H_    0.526296 0.987574 0.938461 0.131829
H27   H     H_    0.948901 0.835157 0.065736 0.144366
H28   H     H_    0.026478 0.487668 0.938431 0.131827
H29   H     H_    0.435805 0.996123 0.948588 0.148287
H30   H     H_    0.401951 0.198152 0.071119 0.123430
H31   H     H_    0.935971 0.495968 0.948561 0.147981
H32   H     H_    0.901956 0.697868 0.071117 0.123312
H33   H     H_    0.461907 0.995770 0.064568 0.132176
H34   H     H_    0.376119 0.200288 0.955038 0.118007
H35   H     H_    0.962074 0.495633 0.064541 0.132329
H36   H     H_    0.876109 0.699997 0.955034 0.117611
H37   H     H_    0.664423 0.427120 0.563260 0.111566
H38   H     H_    0.351231 0.412397 0.437829 0.097809
H39   H     H_    0.147718 0.918203 0.570621 0.105356
H40   H     H_    0.849609 0.929114 0.439497 0.099719
H41   H     H_    0.644775 0.373077 0.453400 0.125087
H42   H     H_    0.361721 0.359430 0.549361 0.130107
H43   H     H_    0.134476 0.831419 0.464535 0.113390
H44   H     H_    0.859203 0.869323 0.550604 0.129417
H45   H     H_    0.335819 0.068978 0.543075 0.095877
H46   H     H_    0.664401 0.091505 0.449222 0.091313
H47   H     H_    0.841585 0.611933 0.529815 0.074741
H48   H     H_    0.158793 0.569737 0.446537 0.090483
H49   H     H_    0.264396 0.055804 0.433616 0.201261
H50   H     H_    0.717763 0.087976 0.563944 0.194734
H51   H     H_    0.784047 0.580209 0.418125 0.198319
H52   H     H_    0.216398 0.568174 0.561488 0.195239
H53   H     H_    0.837860 0.289258 0.575757 0.188845
H54   H     H_    0.188884 0.245492 0.416361 0.184659
H55   H     H_    0.314411 0.750271 0.590218 0.206142
H56   H     H_    0.686614 0.759986 0.419011 0.205954
H57   H     H_    0.747299 0.272696 0.581169 0.149587
H58   H     H_    0.281980 0.244340 0.429450 0.130853
H59   H     H_    0.221504 0.747687 0.581603 0.126237
H60   H     H_    0.779906 0.760604 0.434771 0.118836
H61   H     H_    0.739846 0.218084 0.468936 0.099197
H62   H     H_    0.265103 0.198172 0.542821 0.106530
H63   H     H_    0.238559 0.681601 0.471268 0.098353
H64   H     H_    0.758612 0.711425 0.545019 0.112005
O1    O     O_R   0.783100 0.287550 0.345460 -0.515028
O2    O     O_R   0.216900 0.287550 0.654540 -0.518090
O3    O     O_R   0.283100 0.787550 0.345460 -0.493434
O4    O     O_R   0.716900 0.787550 0.654540 -0.530227
O5    O     O_R   0.554710 0.081900 0.170950 -0.507339
O6    O     O_R   0.445290 0.081900 0.829050 -0.506711
O7    O     O_R   0.054710 0.581900 0.170950 -0.506114
O8    O     O_R   0.945290 0.581900 0.829050 -0.506842
O9    O     O_R   0.545650 0.284910 0.163740 -0.530025
O10   O     O_R   0.454350 0.284910 0.836260 -0.523378
O11   O     O_R   0.045650 0.784910 0.163740 -0.530582
O12   O     O_R   0.954350 0.784910 0.836260 -0.522850
O13   O     O_R   0.677950 0.374280 0.185410 -0.486486
O14   O     O_R   0.322050 0.374280 0.814590 -0.498988
O15   O     O_R   0.177950 0.874280 0.185410 -0.482204
O16   O     O_R   0.822050 0.874280 0.814590 -0.497222
O17   O     O_3   0.664670 0.164660 0.254930 -0.295699
O18   O     O_3   0.335330 0.164660 0.745070 -0.276390
O19   O     O_3   0.164670 0.664660 0.254930 -0.309876
O20   O     O_3   0.835330 0.664660 0.745070 -0.287928
O21   O     O_R   0.760020 0.037400 0.337700 -0.516852
O22   O     O_R   0.239980 0.037400 0.662300 -0.518751
O23   O     O_R   0.260020 0.537400 0.337700 -0.529369
O24   O     O_R   0.739980 0.537400 0.662300 -0.511116
O25   O     O_R   0.666600 0.921990 0.332020 -0.512568
O26   O     O_R   0.333400 0.921990 0.667980 -0.518218
O27   O     O_R   0.166600 0.421990 0.332020 -0.512037
O28   O     O_R   0.833400 0.421990 0.667980 -0.509975
O29   O     O_R   0.557260 0.082670 0.312540 -0.490892
O30   O     O_R   0.442740 0.082670 0.687460 -0.491774
O31   O     O_R   0.057260 0.582670 0.312540 -0.489387
O32   O     O_R   0.942740 0.582670 0.687460 -0.503386
O33   O     O_R   0.548410 0.285740 0.316480 -0.510559
O34   O     O_R   0.451590 0.285740 0.683520 -0.511186
O35   O     O_R   0.048410 0.785740 0.316480 -0.509505
O36   O     O_R   0.951590 0.785740 0.683520 -0.510642
O37   O     O_R   0.680500 0.375040 0.327000 -0.461881
O38   O     O_R   0.319500 0.375040 0.673000 -0.465243
O39   O     O_R   0.180500 0.875040 0.327000 -0.426388
O40   O     O_R   0.819500 0.875040 0.673000 -0.467408
O41   O     O_R   0.780350 0.286720 0.192720 -0.491114
O42   O     O_R   0.219650 0.286720 0.807280 -0.502482
O43   O     O_R   0.280350 0.786720 0.192720 -0.487015
O44   O     O_R   0.719650 0.786720 0.807280 -0.503103
O45   O     O_R   0.757470 0.036630 0.196110 -0.510951
O46   O     O_R   0.242530 0.036630 0.803890 -0.495736
O47   O     O_R   0.257470 0.536630 0.196110 -0.511813
O48   O     O_R   0.742530 0.536630 0.803890 -0.491117
O49   O     O_R   0.663840 0.921160 0.179280 -0.505219
O50   O     O_R   0.336160 0.921160 0.820720 -0.510613
O51   O     O_R   0.163840 0.421160 0.179280 -0.504799
O52   O     O_R   0.836160 0.421160 0.820720 -0.506363
O53   O     O_3   0.865149 0.473649 0.405989 -0.700100
H65   H     H_    0.891167 0.404612 0.428205 0.330649
O54   O     O_3   0.136516 0.465450 0.580214 -0.707134
H66   H     H_    0.112812 0.390848 0.563739 0.331519
O55   O     O_3   0.348253 0.963709 0.410686 -0.683177
H67   H     H_    0.377119 0.893586 0.427188 0.332859
O56   O     O_3   0.636532 0.987119 0.583365 -0.708559
H68   H     H_    0.611009 0.914765 0.566040 0.330071
O57   O     O_3   0.655967 0.545781 0.418903 -0.731180
H69   H     H_    0.607487 0.556397 0.428894 0.322150
O58   O     O_3   0.346845 0.534875 0.577390 -0.732892
H70   H     H_    0.395828 0.545289 0.569257 0.322389
O59   O     O_3   0.137260 0.001638 0.423031 -0.707123
H71   H     H_    0.088914 0.007482 0.434151 0.323317
O60   O     O_3   0.846427 0.044827 0.580439 -0.724624
H72   H     H_    0.895346 0.054191 0.571847 0.321520

loop_
_geom_bond_atom_site_label_1
_geom_bond_atom_site_label_2
_ccdc_geom_bond_type
C94   H38   S    
C39   C51   S    
C6    O58   S    
C79   O11   A    
C67   C83   S    
C8    C24   S    
C9    H47   S    
Cr11  O15   S    
C42   H30   S    
C9    H9    S    
C14   C18   S    
C35   C36   S    
C8    C96   S    
Cr12  O36   S    
C83   O15   A    
Cr3   O43   S    
Cr7   O19   S    
C9    C25   S    
C36   H20   S    
C16   H56   S    
C15   C19   S    
C96   H4    S    
C11   C19   S    
C28   H50   S    
C31   H63   S    
C48   O36   A    
C82   O14   A    
C42   H25   S    
Cr8   O32   S    
C13   C29   S    
C16   C20   S    
C8    H44   S    
C10   C18   S    
C75   O47   A    
C72   O40   A    
Cr5   O17   S    
C74   O46   A    
Cr6   O26   S    
Cr2   O2    S    
Cr5   O25   S    
C30   H62   S    
C2    O26   A    
Cr11  O39   S    
C33   C49   S    
C6    C22   S    
Cr3   O23   S    
Cr9   O37   S    
C49   C78   S    
Cr2   O22   S    
C3    C18   S    
C46   O34   A    
C48   O32   A    
Cr1   O21   S    
C37   C42   S    
C51   C80   S    
Cr10  O10   S    
C21   C25   S    
Cr9   O9    S    
Cr7   O51   S    
C43   C51   S    
C82   O42   A    
C55   C74   S    
C13   H57   S    
C58   C66   T    
C40   C43   S    
C81   O41   A    
O60   H72   S    
C71   O3    A    
C6    C94   S    
Cr8   O20   S    
C55   C63   T    
Cr11  O11   S    
C25   H51   S    
C3    O27   A    
O58   H70   S    
C56   C64   T    
C93   H37   S    
C73   O49   A    
C23   C27   S    
C14   H58   S    
C52   C79   S    
O57   H69   S    
Cr11  O35   S    
C36   C52   S    
Cr2   O18   S    
Cr5   O29   S    
C46   C85   S    
C59   C67   T    
C5    C93   S    
C44   C52   S    
C44   H27   S    
Cr1   O17   S    
C20   C96   S    
C46   O30   A    
C75   O51   A    
C34   H14   S    
C45   O29   A    
C12   H12   S    
O59   H71   S    
C33   H13   S    
Cr8   O28   S    
Cr6   O6    S    
C15   H59   S    
Cr4   O20   S    
C69   O1    A    
C14   C30   S    
C31   H7    S    
C41   H26   S    
Cr12  O40   S    
C27   O55   S    
O53   H65   S    
Cr7   O31   S    
Cr4   O24   S    
Cr3   O3    S    
C96   H40   S    
C34   C50   S    
Cr1   O1    S    
C37   H34   S    
Cr12  O12   S    
C73   O45   A    
C68   C84   S    
Cr9   O17   S    
C95   H39   S    
Cr10  O14   S    
C38   C41   S    
C11   H11   S    
C10   H48   S    
C77   O9    A    
C81   O13   A    
C27   H49   S    
Cr2   O42   S    
C54   C62   T    
C40   C52   S    
C21   C29   S    
C15   C31   S    
C94   H2    S    
C3    O23   A    
C21   C69   S    
C2    O22   A    
C23   C31   S    
C14   H54   S    
C1    O21   A    
C24   C32   S    
Cr4   O4    S    
O55   H67   S    
C10   H10   S    
C23   C71   S    
C66   C82   S    
C37   C49   S    
Cr8   O52   S    
C65   C81   S    
O54   H66   S    
C88   C91   T    
C11   C27   S    
C26   O54   S    
C34   H18   S    
C57   C65   T    
C12   C20   S    
C33   H17   S    
C33   C34   S    
C48   C87   S    
C47   O31   A    
Cr7   O27   S    
C32   H8    S    
C35   H19   S    
C70   O2    A    
C28   O56   S    
C60   C68   T    
Cr12  O20   S    
C58   C62   S    
C42   C50   S    
C7    H43   S    
C4    C17   S    
C9    C17   S    
Cr3   O47   S    
C71   O39   A    
Cr2   O46   S    
C35   C51   S    
C18   C94   S    
C38   H33   S    
Cr1   O45   S    
C59   C63   S    
C84   O16   A    
C53   C76   S    
C17   C93   S    
Cr10  O18   S    
C53   C61   T    
C13   H53   S    
C50   C77   S    
C38   H22   S    
C91   C92   S    
C19   C95   S    
C24   C72   S    
C12   C28   S    
C30   H6    S    
C8    O60   S    
Cr5   O49   S    
C4    O24   A    
C7    O59   S    
C29   H5    S    
Cr4   O44   S    
C1    C20   S    
C45   O33   A    
C56   C73   S    
C22   C30   S    
C36   H16   S    
C2    C19   S    
C78   O6    A    
C41   H29   S    
Cr12  O16   S    
C1    O25   A    
C24   C28   S    
C12   H46   S    
C5    O57   S    
C86   C89   T    
Cr10  O34   S    
C83   O43   A    
C85   C90   T    
C57   C61   S    
C39   C44   S    
C38   C50   S    
Cr9   O33   S    
C47   O35   A    
C43   H31   S    
C16   C32   S    
C41   C49   S    
C7    C95   S    
C74   O50   A    
Cr9   O13   S    
C13   C17   S    
C60   C64   S    
C29   H61   S    
C47   C88   S    
C35   H15   S    
C45   C86   S    
Cr6   O30   S    
C80   O8    A    
C95   H3    S    
Cr3   O19   S    
C10   C26   S    
Cr8   O8    S    
C26   H52   S    
C39   H23   S    
C16   H60   S    
C7    C23   S    
C5    H41   S    
C25   O53   S    
Cr6   O18   S    
C37   H21   S    
C69   O37   A    
Cr7   O7    S    
C80   O12   A    
C40   H24   S    
C43   H28   S    
C72   O4    A    
C77   O5    A    
C32   H64   S    
Cr5   O5    S    
C11   H45   S    
C54   C75   S    
C6    H42   S    
C76   O52   A    
C4    O28   A    
C79   O7    A    
C5    C21   S    
C39   H36   S    
Cr4   O48   S    
C44   H32   S    
C22   C26   S    
C40   H35   S    
Cr11  O19   S    
O56   H68   S    
C76   O48   A    
Cr1   O41   S    
C70   O38   A    
C78   O10   A    
C89   C90   S    
C87   C92   T    
Cr6   O50   S    
C22   C70   S    
C15   H55   S    
C84   O44   A    
C93   H1    S    
Cr10  O38   S    
