data_mof_unit_50483.cif
_audit_creation_date              2012-12-10T16:48:46-0500
_audit_creation_method            fapswitch 2.2
_symmetry_space_group_name_H-M    P1
_symmetry_Int_Tables_number       1
_space_group_crystal_system       triclinic
_cell_length_a                    17.141456
_cell_length_b                    8.692049
_cell_length_c                    7.450116
_cell_angle_alpha                 103.090958
_cell_angle_beta                  89.128563
_cell_angle_gamma                 92.834561
_cell_volume                      1079.84573666

loop_
_atom_site_label
_atom_site_type_symbol
_atom_type_description
_atom_site_fract_x
_atom_site_fract_y
_atom_site_fract_z
_atom_type_partial_charge
C1    C     C_R   0.497655 0.199805 0.453614 0.875248
C2    C     C_R   0.502328 0.800194 0.546391 0.875910
C3    C     C_2   0.496519 0.031830 0.427639 -0.370528
C4    C     C_2   0.503438 0.968166 0.572374 -0.373166
C5    C     C_R   0.351335 0.502196 0.528074 0.781133
C6    C     C_R   0.648704 0.498271 0.472001 0.771326
C7    C     C_R   0.267603 0.506791 0.552926 -0.003500
C8    C     C_R   0.732650 0.500435 0.448308 -0.001341
C9    C     C_R   0.220865 0.368272 0.496636 -0.174267
C10   C     C_R   0.777234 0.638559 0.522665 -0.200954
C11   C     C_R   0.140108 0.373981 0.514209 -0.108453
C12   C     C_R   0.858095 0.639902 0.505329 -0.139385
C13   C     C_R   0.106036 0.519236 0.582792 0.234637
C14   C     C_R   0.894758 0.501056 0.420292 0.071584
C15   C     C_R   0.153161 0.656981 0.643887 -0.044843
C16   C     C_R   0.849707 0.364326 0.340568 -0.176635
C17   C     C_R   0.234046 0.650462 0.630209 -0.195423
C18   C     C_R   0.768578 0.364498 0.353175 -0.173849
C19   C     C_2   0.020680 0.527997 0.582015 -0.086188
C20   C     C_2   0.980451 0.497476 0.419884 -0.162359
Cu1   Cu    Cu3+1 0.508700 0.517250 0.683000 0.956617
Cu2   Cu    Cu3+1 0.491300 0.482750 0.317000 0.961292
H1    H     H_    0.246870 0.256705 0.438249 0.128108
H2    H     H_    0.749422 0.744659 0.594055 0.128584
H3    H     H_    0.734011 0.257713 0.294314 0.128450
H4    H     H_    0.270318 0.757718 0.674525 0.130301
H5    H     H_    0.127233 0.769478 0.697339 0.144120
H6    H     H_    0.877406 0.256902 0.273216 0.124098
H7    H     H_    0.892372 0.747124 0.563941 0.139434
H8    H     H_    0.103937 0.266851 0.468216 0.123678
H9    H     H_    0.439163 0.379571 0.959105 0.230006
H10   H     H_    0.560837 0.620428 0.040894 0.226679
N1    N     N_2   0.478180 0.456750 0.041980 -0.213254
N2    N     N_2   0.521820 0.543250 0.958020 -0.215682
O1    O     O_R   0.505650 0.286040 0.618880 -0.583782
O2    O     O_R   0.494350 0.713960 0.381120 -0.582379
O3    O     O_R   0.490960 0.256910 0.309800 -0.587150
O4    O     O_R   0.509040 0.743090 0.690200 -0.587086
O5    O     O_R   0.394600 0.516230 0.672450 -0.583876
O6    O     O_R   0.605400 0.483770 0.327550 -0.586691
O7    O     O_R   0.379910 0.487100 0.363380 -0.565759
O8    O     O_R   0.620090 0.512900 0.636620 -0.575745
C21   C     C_2   0.018234 0.462187 0.234213 0.446840
H11   H     H_    0.983627 0.404894 0.114767 0.077780
O9    O     O_2   0.086181 0.502126 0.210310 -0.503495
C22   C     C_2   0.980680 0.561868 0.764827 0.311945
H12   H     H_    0.919138 0.530870 0.777882 0.094163
O10   O     O_2   0.016724 0.625099 0.904194 -0.527944
H13   H     H_    0.489990 0.960195 0.288201 0.181416
H14   H     H_    0.509965 0.039800 0.711812 0.180385

loop_
_geom_bond_atom_site_label_1
_geom_bond_atom_site_label_2
_ccdc_geom_bond_type
C16   H6    S    
C2    C4    S    
C21   H11   S    
H9    N1    S    
C15   C17   A    
Cu1   O1    S    
C14   C20   S    
C12   H7    S    
C9    C11   A    
C2    O4    A    
C15   H5    S    
C19   C20   D    
Cu1   O5    S    
C1    O3    A    
Cu2   O6    S    
C5    O5    A    
N1    N2    D    
C3    H13   S    
C19   C22   S    
Cu1   Cu2   S    
C21   O9    D    
C18   H3    S    
C10   C12   A    
C17   H4    S    
C16   C18   A    
C12   C14   A    
C14   C16   A    
C13   C15   A    
C6    O6    A    
Cu2   O7    S    
C13   C19   S    
Cu1   O8    S    
C22   O10   D    
C7    C9    A    
C11   C13   A    
C20   C21   S    
Cu2   O2    S    
C1    O1    A    
C8    C10   A    
C6    O8    A    
C2    O2    A    
C1    C3    S    
C5    C7    S    
Cu2   N1    S    
C5    O7    A    
C22   H12   S    
C9    H1    S    
C6    C8    S    
Cu1   N2    S    
C10   H2    S    
Cu2   O3    S    
C8    C18   A    
Cu1   O4    S    
C3    C4    D    
C11   H8    S    
C4    H14   S    
C7    C17   A    
H10   N2    S    
