data_mof_unit_12552.cif
_audit_creation_date              2012-12-10T19:08:07-0500
_audit_creation_method            fapswitch 2.2
_symmetry_space_group_name_H-M    P1
_symmetry_Int_Tables_number       1
_space_group_crystal_system       triclinic
_cell_length_a                    9.070315
_cell_length_b                    10.827096
_cell_length_c                    9.564073
_cell_angle_alpha                 90.384689
_cell_angle_beta                  89.521059
_cell_angle_gamma                 90.612824
_cell_volume                      939.134278488

loop_
_atom_site_label
_atom_site_type_symbol
_atom_type_description
_atom_site_fract_x
_atom_site_fract_y
_atom_site_fract_z
_atom_type_partial_charge
C1    C     C_R   0.496017 0.262391 0.499584 0.792666
C2    C     C_R   0.464444 0.934478 0.373031 -0.229403
C3    C     C_R   0.481280 0.870810 0.499686 -0.092961
C4    C     C_R   0.475413 0.937480 0.624922 0.134693
C5    C     C_3   0.575435 0.934654 0.747980 -0.487719
C6    C     C_3   0.571810 0.074605 0.748693 -0.453399
C7    C     C_R   0.562851 0.595613 0.072970 0.175294
C8    C     C_R   0.425871 0.411707 0.074360 -0.061588
C9    C     C_R   0.426248 0.411473 0.925570 -0.055169
C10   C     C_R   0.559875 0.596852 0.926228 0.183697
C11   C     C_3   0.713744 0.644374 0.915667 -0.535952
C12   C     C_R   0.220732 0.499800 0.500455 0.844189
C13   C     C_3   0.719074 0.642601 0.074546 0.274928
C14   C     C_R   0.497077 0.737712 0.500177 0.785539
C15   C     C_R   0.779248 0.499927 0.499809 0.850347
C16   C     C_1   0.065560 0.499573 0.501245 -0.216411
C17   C     C_1   0.934396 0.499596 0.500323 -0.210837
C18   C     C_R   0.473734 0.064654 0.624517 0.117542
C19   C     C_R   0.479282 0.129287 0.498855 -0.093358
C20   C     C_R   0.463635 0.063339 0.372605 -0.217430
Cu1   Cu    Cu3+1 0.499990 0.499980 0.640670 0.944741
Cu2   Cu    Cu3+1 0.500010 0.500020 0.359330 0.953834
H1    H     H_    0.458559 0.110629 0.273350 0.160987
H2    H     H_    0.720526 0.738988 0.873329 0.142084
H3    H     H_    0.726698 0.735837 0.124606 0.053791
H4    H     H_    0.459514 0.885587 0.273952 0.161906
H5    H     H_    0.521102 0.892946 0.841273 0.192971
H6    H     H_    0.685982 0.898005 0.720290 0.192888
H7    H     H_    0.513674 0.113685 0.841461 0.192499
H8    H     H_    0.680379 0.118319 0.723942 0.203319
H9    H     H_    0.367925 0.339025 0.129875 0.129577
H10   H     H_    0.368819 0.338436 0.869988 0.130863
H11   H     H_    0.789282 0.577520 0.864230 0.239753
N1    N     N_R   0.500920 0.500930 0.147930 -0.171649
N2    N     N_R   0.500930 0.500890 0.852020 -0.167167
O1    O     O_R   0.500000 0.319640 0.618810 -0.585784
O2    O     O_R   0.500020 0.319680 0.381230 -0.585385
O3    O     O_R   0.288380 0.499980 0.618770 -0.575642
O4    O     O_R   0.288400 0.500020 0.381190 -0.599121
O5    O     O_R   0.499980 0.680320 0.618770 -0.575568
O6    O     O_R   0.500000 0.680360 0.381190 -0.601865
O7    O     O_R   0.711600 0.499980 0.618810 -0.581766
O8    O     O_R   0.711620 0.500020 0.381230 -0.530405
O9    O     O_3   0.819775 0.553030 0.120743 -0.560080
C21   C     C_3   0.953135 0.610097 0.164449 0.105847
H12   H     H_    0.018209 0.538444 0.217604 0.183462
H13   H     H_    0.932764 0.684541 0.243082 0.121780
C22   C     C_3   0.046903 0.658324 0.041313 -0.399013
H14   H     H_    0.069909 0.581117 0.967362 0.232874
H15   H     H_    0.987274 0.731445 0.984761 0.214982
C23   C     C_3   0.192452 0.713645 0.092141 -0.907053
H16   H     H_    0.171795 0.795329 0.160163 0.250401
H17   H     H_    0.260624 0.743149 0.001072 0.247021
H18   H     H_    0.254360 0.644373 0.152152 0.280245

loop_
_geom_bond_atom_site_label_1
_geom_bond_atom_site_label_2
_ccdc_geom_bond_type
C7    C10   A    
C10   N2    A    
Cu1   N2    S    
C5    H6    S    
C19   C20   A    
C20   H1    S    
C1    O2    A    
C23   H18   S    
C4    C18   A    
C12   O4    A    
C22   H15   S    
C2    C3    A    
C3    C4    A    
C15   O8    A    
C2    H4    S    
Cu1   O1    S    
C8    N1    A    
Cu1   Cu2   S    
C13   O9    S    
C4    C5    S    
C11   C13   S    
C13   H3    S    
Cu1   O7    S    
C3    C14   S    
C14   O6    A    
Cu2   N1    S    
Cu2   O4    S    
C22   H14   S    
C6    H8    S    
C21   H13   S    
C12   O3    A    
C5    C6    S    
C6    C18   S    
C7    N1    A    
C1    C19   S    
Cu2   O6    S    
C10   C11   S    
C2    C20   A    
C23   H16   S    
C12   C16   S    
C11   H2    S    
C11   H11   S    
C6    H7    S    
Cu2   O2    S    
O9    C21   S    
C15   O7    A    
C15   C17   S    
C18   C19   A    
C21   C22   S    
C9    N2    A    
C16   C17   T    
C7    C13   S    
C9    H10   S    
C21   H12   S    
C5    H5    S    
C8    H9    S    
C14   O5    A    
C22   C23   S    
Cu1   O3    S    
Cu2   O8    S    
C1    O1    A    
C8    C9    A    
C23   H17   S    
Cu1   O5    S    
