data_mof_unit_20363.cif
_audit_creation_date              2012-12-11T15:39:14-0500
_audit_creation_method            fapswitch 2.2
_symmetry_space_group_name_H-M    P1
_symmetry_Int_Tables_number       1
_space_group_crystal_system       triclinic
_cell_length_a                    17.419968
_cell_length_b                    24.283327
_cell_length_c                    14.913699
_cell_angle_alpha                 90.077555
_cell_angle_beta                  124.928058
_cell_angle_gamma                 90.071799
_cell_volume                      5172.31574089

loop_
_atom_site_label
_atom_site_type_symbol
_atom_type_description
_atom_site_fract_x
_atom_site_fract_y
_atom_site_fract_z
_atom_type_partial_charge
C1    C     C_R   0.310630 0.376920 0.909957 -0.167588
C2    C     C_R   0.687668 0.374397 0.091987 -0.072945
C3    C     C_R   0.811634 0.875193 0.908348 -0.170828
C4    C     C_R   0.188835 0.876274 0.090306 -0.070790
C5    C     C_R   0.385318 0.684978 0.002118 -0.186114
C6    C     C_R   0.610984 0.685481 0.998041 -0.186428
C7    C     C_R   0.889531 0.185511 0.002540 -0.179706
C8    C     C_R   0.115183 0.184939 0.998425 -0.190440
C9    C     C_R   0.566373 0.500678 0.367396 0.005183
C10   C     C_R   0.540209 0.501207 0.713646 0.010197
C11   C     C_R   0.960090 0.001130 0.286750 0.011461
C12   C     C_R   0.933051 0.000435 0.632328 0.012910
C13   C     C_R   0.191607 0.500011 0.642002 -0.088861
C14   C     C_R   0.802970 0.501790 0.363801 -0.299090
C15   C     C_R   0.694403 0.000065 0.638947 -0.086624
C16   C     C_R   0.306055 0.001689 0.360570 -0.294746
C17   C     C_R   0.049165 0.523943 0.469799 -0.136901
C18   C     C_R   0.953504 0.525860 0.403984 -0.125286
C19   C     C_R   0.552304 0.022269 0.464902 -0.132322
C20   C     C_R   0.456533 0.023937 0.398569 -0.127065
C21   C     C_R   0.093106 0.498995 0.570923 0.102321
C22   C     C_R   0.901223 0.503884 0.439448 0.135605
C23   C     C_R   0.596013 0.999142 0.567620 0.102528
C24   C     C_R   0.404297 0.003465 0.435299 0.131919
C25   C     C_R   0.041888 0.482467 0.612617 -0.153396
C26   C     C_R   0.944892 0.484908 0.546150 -0.199209
C27   C     C_R   0.544647 0.984353 0.610040 -0.155788
C28   C     C_R   0.447756 0.986488 0.543136 -0.196637
C29   C     C_3   0.948992 0.515487 0.301532 0.702027
C30   C     C_3   0.056519 0.512853 0.375839 0.751329
C31   C     C_3   0.452602 0.010869 0.297311 0.708739
C32   C     C_3   0.560164 0.008562 0.372192 0.746027
C33   C     C_R   0.295738 0.769692 0.903702 -0.146238
C34   C     C_R   0.698939 0.771021 0.092684 -0.134826
C35   C     C_R   0.801186 0.270629 0.907911 -0.145433
C36   C     C_R   0.204357 0.270084 0.096832 -0.135882
C37   C     C_R   0.747716 0.313275 0.906927 -0.161656
C38   C     C_R   0.253909 0.315403 0.098322 -0.156770
C39   C     C_R   0.245789 0.814723 0.902080 -0.160036
C40   C     C_R   0.751907 0.814042 0.093508 -0.161346
C41   C     C_R   0.757186 0.327445 0.003942 0.145016
C42   C     C_R   0.239488 0.333514 0.000553 0.137856
C43   C     C_R   0.260205 0.833051 0.999804 0.142617
C44   C     C_R   0.742328 0.828092 0.996439 0.141177
C45   C     C_R   0.447650 0.652660 0.092204 0.523262
C46   C     C_R   0.549375 0.653080 0.908228 0.494925
C47   C     C_R   0.950825 0.153116 0.092148 0.490899
C48   C     C_R   0.052542 0.152613 0.908135 0.527563
C49   C     C_R   0.830978 0.305835 0.103578 -0.150774
C50   C     C_R   0.163784 0.312634 0.900855 -0.168282
C51   C     C_R   0.336277 0.812735 0.099563 -0.157993
C52   C     C_R   0.668972 0.805892 0.896902 -0.167989
C53   C     C_R   0.381991 0.766223 0.100955 -0.175016
C54   C     C_R   0.619453 0.762016 0.896597 -0.181703
C55   C     C_R   0.881011 0.262256 0.104052 -0.181554
C56   C     C_R   0.118515 0.265905 0.899624 -0.175861
C57   C     C_R   0.358218 0.742113 0.002651 0.155821
C58   C     C_R   0.638385 0.741775 0.995249 0.154823
C59   C     C_R   0.862086 0.241772 0.005428 0.154370
C60   C     C_R   0.142233 0.242099 0.997966 0.155249
C61   C     C_R   0.597296 0.551663 0.618894 -0.151005
C62   C     C_R   0.604996 0.551472 0.531806 -0.157184
C63   C     C_R   0.894184 0.051110 0.467969 -0.126389
C64   C     C_R   0.902450 0.051361 0.381278 -0.166075
C65   C     C_R   0.599804 0.501341 0.481919 0.139829
C66   C     C_R   0.584829 0.501713 0.655854 0.144003
C67   C     C_R   0.915267 0.001474 0.344365 0.137068
C68   C     C_R   0.899433 0.000990 0.517699 0.160658
C69   C     C_R   0.609356 0.451732 0.535288 -0.160751
C70   C     C_R   0.602265 0.451963 0.622957 -0.157384
C71   C     C_R   0.897672 0.951651 0.376872 -0.173555
C72   C     C_R   0.890146 0.951368 0.464238 -0.112348
C73   C     C_R   0.550082 0.454640 0.304174 -0.128414
C74   C     C_R   0.507064 0.455070 0.736312 -0.099020
C75   C     C_R   0.993321 0.955078 0.264072 -0.115820
C76   C     C_R   0.949650 0.954492 0.695640 -0.130539
C77   C     C_R   0.241506 0.545737 0.702695 0.458164
C78   C     C_R   0.754089 0.546473 0.300424 0.537687
C79   C     C_R   0.743111 0.045684 0.700935 0.441374
C80   C     C_R   0.256213 0.046503 0.298529 0.541433
C81   C     C_R   0.548368 0.546172 0.302821 -0.089061
C82   C     C_R   0.515651 0.546844 0.747445 -0.067566
C83   C     C_R   0.984427 0.046798 0.252736 -0.096816
C84   C     C_R   0.951289 0.046013 0.697070 -0.075877
C85   C     C_R   0.242931 0.454707 0.699348 0.400642
C86   C     C_R   0.754824 0.455482 0.303390 0.541508
C87   C     C_R   0.744557 0.954784 0.697798 0.399950
C88   C     C_R   0.256468 0.955379 0.301823 0.538480
C89   C     C_R   0.352517 0.652298 0.910500 -0.119826
C90   C     C_R   0.646192 0.652770 0.089688 -0.093000
C91   C     C_R   0.854297 0.152765 0.910684 -0.124248
C92   C     C_R   0.147982 0.152297 0.089860 -0.092662
C93   C     C_R   0.402214 0.375961 0.092863 -0.096649
C94   C     C_R   0.594349 0.368511 0.909841 -0.122738
C95   C     C_R   0.905508 0.868738 0.090215 -0.102240
C96   C     C_R   0.097799 0.875825 0.907254 -0.115797
C97   C     C_R   0.312812 0.363684 0.001866 0.044804
C98   C     C_R   0.683701 0.357320 0.001200 0.015263
C99   C     C_R   0.815801 0.858027 0.999128 0.046709
C100  C     C_R   0.186889 0.863162 0.998436 0.017767
H1    H     H_    0.252386 0.373066 0.826056 0.133944
H2    H     H_    0.745448 0.371534 0.176266 0.171560
H3    H     H_    0.752790 0.873228 0.824389 0.133080
H4    H     H_    0.246099 0.871543 0.174370 0.172441
H5    H     H_    0.694539 0.331818 0.829534 0.108397
H6    H     H_    0.308622 0.332714 0.176496 0.116487
H7    H     H_    0.190847 0.831631 0.823845 0.114196
H8    H     H_    0.804914 0.832950 0.170826 0.108357
H9    H     H_    0.591229 0.590989 0.648268 0.118342
H10   H     H_    0.604320 0.590703 0.497318 0.122942
H11   H     H_    0.894521 0.090336 0.502424 0.123744
H12   H     H_    0.908635 0.090706 0.352170 0.120334
H13   H     H_    0.612229 0.412376 0.503452 0.115705
H14   H     H_    0.601057 0.412856 0.656737 0.105922
H15   H     H_    0.899078 0.912554 0.343047 0.107909
H16   H     H_    0.887265 0.912003 0.495905 0.116083
H17   H     H_    0.564958 0.588579 0.328806 0.162271
H18   H     H_    0.527778 0.589703 0.740627 0.137037
H19   H     H_    0.972148 0.089627 0.259506 0.141940
H20   H     H_    0.934654 0.088359 0.671197 0.160622
H21   H     H_    0.313082 0.666100 0.826869 0.196943
H22   H     H_    0.687158 0.666531 0.173596 0.185907
H23   H     H_    0.813793 0.166510 0.826912 0.192490
H24   H     H_    0.187935 0.166105 0.173646 0.190503
H25   H     H_    0.429117 0.370466 0.177843 0.094821
H26   H     H_    0.564617 0.353895 0.828157 0.093398
H27   H     H_    0.935340 0.853978 0.171719 0.091037
H28   H     H_    0.071142 0.870501 0.822266 0.098321
H29   H     H_    0.076923 0.466883 0.695247 0.121192
H30   H     H_    0.904506 0.470300 0.575851 0.133913
H31   H     H_    0.579529 0.970259 0.693642 0.121746
H32   H     H_    0.407262 0.973205 0.573554 0.136971
N1    N     N_R   0.394180 0.396910 0.943210 -0.050671
N2    N     N_R   0.605820 0.396910 0.056790 -0.042137
N3    N     N_R   0.894180 0.896910 0.943210 -0.049783
N4    N     N_R   0.105820 0.896910 0.056790 -0.042789
N5    N     N_R   0.450950 0.603070 0.056740 -0.082372
N6    N     N_R   0.549050 0.603070 0.943260 -0.078259
N7    N     N_R   0.950950 0.103070 0.056740 -0.081301
N8    N     N_R   0.049050 0.103070 0.943260 -0.077570
N9    N     N_R   0.525650 0.471570 0.206150 -0.055456
N10   N     N_R   0.474350 0.471570 0.793850 -0.053321
N11   N     N_R   0.025650 0.971570 0.206150 -0.052535
N12   N     N_R   0.974350 0.971570 0.793850 -0.053262
N13   N     N_R   0.319480 0.528420 0.793810 -0.097534
N14   N     N_R   0.680520 0.528420 0.206190 -0.094961
N15   N     N_R   0.819480 0.028420 0.793810 -0.096640
N16   N     N_R   0.180520 0.028420 0.206190 -0.097169
N17   N     N_R   0.525640 0.528390 0.206120 -0.052053
N18   N     N_R   0.474360 0.528390 0.793880 -0.037367
N19   N     N_R   0.025640 0.028390 0.206120 -0.046022
N20   N     N_R   0.974360 0.028390 0.793880 -0.043561
N21   N     N_R   0.319490 0.471590 0.793840 -0.144013
N22   N     N_R   0.680510 0.471590 0.206160 -0.104602
N23   N     N_R   0.819490 0.971590 0.793840 -0.141381
N24   N     N_R   0.180510 0.971590 0.206160 -0.107774
N25   N     N_R   0.394130 0.603080 0.943110 -0.066338
N26   N     N_R   0.605870 0.603080 0.056890 -0.061953
N27   N     N_R   0.894130 0.103080 0.943110 -0.065638
N28   N     N_R   0.105870 0.103080 0.056890 -0.062192
N29   N     N_R   0.450990 0.396900 0.056840 -0.039875
N30   N     N_R   0.549010 0.396900 0.943160 -0.047503
N31   N     N_R   0.950990 0.896900 0.056840 -0.038322
N32   N     N_R   0.049010 0.896900 0.943160 -0.049265
Ni1   Ni    Ni4+2 0.434860 0.434850 0.869700 0.207777
Ni2   Ni    Ni4+2 0.565140 0.434850 0.130300 0.248098
Ni3   Ni    Ni4+2 0.934860 0.934850 0.869700 0.199268
Ni4   Ni    Ni4+2 0.065140 0.934850 0.130300 0.257376
Ni5   Ni    Ni4+2 0.565130 0.565140 0.130240 0.270041
Ni6   Ni    Ni4+2 0.434870 0.565140 0.869760 0.286588
Ni7   Ni    Ni4+2 0.065130 0.065140 0.130240 0.282983
Ni8   Ni    Ni4+2 0.934870 0.065140 0.869760 0.270671
O1    O     O_3   0.905281 0.465306 0.251160 -0.772427
H33   H     H_    0.913804 0.459996 0.191400 0.338888
O2    O     O_3   0.101314 0.556191 0.360853 -0.735989
H34   H     H_    0.094335 0.548263 0.291246 0.341279
O3    O     O_3   0.409270 0.960069 0.250678 -0.775118
H35   H     H_    0.418192 0.952959 0.191683 0.337392
O4    O     O_3   0.604901 0.050770 0.354338 -0.745835
H36   H     H_    0.599049 0.040855 0.286100 0.340643
O5    O     O_3   0.911294 0.559804 0.227202 -0.744230
H37   H     H_    0.933844 0.594823 0.269270 0.324687
O6    O     O_3   0.095813 0.461236 0.380501 -0.724746
H38   H     H_    0.067953 0.432887 0.401780 0.337371
O7    O     O_3   0.414814 0.053714 0.219640 -0.743790
H39   H     H_    0.437172 0.089477 0.259018 0.323913
O8    O     O_3   0.599934 0.956519 0.381008 -0.731174
H40   H     H_    0.571981 0.929171 0.403973 0.337384
H41   H     H_    0.278485 0.753922 0.826418 0.119807
H42   H     H_    0.712212 0.757719 0.169543 0.116398
H43   H     H_    0.787988 0.257252 0.831056 0.116653
H44   H     H_    0.221579 0.254455 0.174100 0.119659
H45   H     H_    0.843676 0.317139 0.180998 0.132896
H46   H     H_    0.146266 0.327309 0.822992 0.123902
H47   H     H_    0.353934 0.827780 0.177371 0.139911
H48   H     H_    0.656491 0.816869 0.819512 0.125435
H49   H     H_    0.428106 0.746961 0.179406 0.164868
H50   H     H_    0.575507 0.740734 0.819650 0.160560
H51   H     H_    0.925432 0.241371 0.181126 0.161315
H52   H     H_    0.072873 0.246242 0.821271 0.162897
O9    O     O_3   0.521099 0.671301 0.192744 -0.784834
H53   H     H_    0.541418 0.707123 0.180999 0.304962
O10   O     O_3   0.473762 0.671271 0.808763 -0.772096
H54   H     H_    0.457140 0.708474 0.819938 0.307373
O11   O     O_3   0.026352 0.171371 0.191896 -0.773831
H55   H     H_    0.043348 0.208552 0.181082 0.309389
O12   O     O_3   0.978954 0.171193 0.807898 -0.786051
H56   H     H_    0.959034 0.207039 0.820054 0.303389
H57   H     H_    0.568679 0.412600 0.331861 0.114048
H58   H     H_    0.502619 0.413882 0.707387 0.093752
H59   H     H_    0.998003 0.913947 0.293146 0.097152
H60   H     H_    0.931114 0.912373 0.667909 0.104216
O13   O     O_3   0.222417 0.600250 0.673274 -0.750081
H61   H     H_    0.163222 0.602301 0.599469 0.336390
O14   O     O_3   0.768594 0.600927 0.331619 -0.769764
H62   H     H_    0.823448 0.602999 0.408889 0.317579
O15   O     O_3   0.725208 0.100142 0.670684 -0.757217
H63   H     H_    0.667956 0.102012 0.595180 0.335101
O16   O     O_3   0.272355 0.100980 0.329517 -0.762223
H64   H     H_    0.329353 0.103036 0.405410 0.319574
O17   O     O_3   0.230540 0.403365 0.653866 -0.730301
H65   H     H_    0.289340 0.382618 0.703016 0.313566
O18   O     O_3   0.766728 0.402510 0.341919 -0.780406
H66   H     H_    0.822653 0.402011 0.418516 0.322113
O19   O     O_3   0.733747 0.903513 0.652667 -0.736304
H67   H     H_    0.792100 0.882741 0.703552 0.309827
O20   O     O_3   0.269713 0.902403 0.340709 -0.772117
H68   H     H_    0.327639 0.901859 0.415907 0.324424

loop_
_geom_bond_atom_site_label_1
_geom_bond_atom_site_label_2
_ccdc_geom_bond_type
C51   C53   A    
O10   H54   S    
C38   H6    S    
C55   C59   A    
N6    Ni6   S    
C27   H31   S    
C30   O6    S    
C6    C58   S    
C19   C20   A    
C52   H48   S    
O14   H62   S    
C61   H9    S    
C46   N6    A    
C80   O16   S    
C77   O13   S    
C95   H27   S    
C73   N9    A    
O13   H61   S    
C70   H14   S    
C39   H7    S    
C12   C68   S    
C12   C84   A    
N9    Ni2   S    
C2    N2    A    
C10   C66   S    
C29   O5    S    
C31   O3    S    
C34   C40   A    
C88   N24   A    
C33   H41   S    
C86   N22   A    
C35   C37   A    
C38   C42   A    
C95   N31   A    
C92   H24   S    
C54   C58   A    
N20   Ni8   S    
C44   C99   S    
C95   C99   A    
C79   O15   S    
C88   O20   S    
C61   C62   A    
C94   C98   A    
N30   Ni1   S    
C81   H17   S    
C65   C69   A    
N16   Ni7   S    
N19   Ni7   S    
C96   H28   S    
C35   C59   A    
O9    H53   S    
C83   H19   S    
C63   C68   A    
C61   C66   A    
C41   C49   A    
C15   C79   A    
O20   H68   S    
N23   Ni3   S    
C87   O19   S    
C62   H10   S    
C30   O2    S    
C8    C60   S    
C35   H43   S    
N2    Ni2   S    
C32   O4    S    
N7    Ni7   S    
C8    C92   A    
C23   C27   A    
N15   N23   A    
C94   N30   A    
N5    Ni5   S    
N29   Ni2   S    
C26   H30   S    
C84   H20   S    
C4    N4    A    
N13   N21   A    
C76   H60   S    
C15   C23   S    
C74   N10   A    
C25   H29   S    
C16   C24   S    
C91   H23   S    
C89   H21   S    
C37   C41   A    
C17   C30   S    
C90   H22   S    
C85   N21   A    
C9    C73   A    
C11   C75   A    
C1    N1    A    
C19   C32   S    
C7    C59   S    
C11   C67   S    
C4    H4    S    
C17   C18   A    
C83   N19   A    
C94   H26   S    
C36   H44   S    
C13   C77   A    
C3    N3    A    
N27   Ni8   S    
C47   O11   S    
N12   Ni3   S    
N9    N17   A    
O12   H56   S    
C64   C67   A    
C20   C24   A    
C55   H51   S    
C34   H42   S    
C50   H46   S    
C43   C100  S    
C14   C86   A    
O18   H66   S    
C42   C97   S    
C1    C97   A    
O16   H64   S    
C53   C57   A    
N3    Ni3   S    
C79   N15   A    
N4    Ni4   S    
C11   C83   A    
C25   C26   A    
O5    H37   S    
C5    C45   A    
C10   C82   A    
C50   C56   A    
C96   N32   A    
C16   C80   A    
C7    C47   A    
C90   N26   A    
C19   C23   A    
O6    H38   S    
C8    C48   A    
C37   H5    S    
C29   C30   S    
N1    Ni1   S    
N25   Ni6   S    
O17   H65   S    
N6    N26   A    
O2    H34   S    
N14   N22   A    
C80   N16   A    
C68   C72   A    
C48   N8    A    
C75   H59   S    
C31   O7    S    
C9    C65   S    
C45   N5    A    
O19   H67   S    
C71   H15   S    
C18   C29   S    
C33   C39   A    
C34   C58   A    
C84   N20   A    
C2    C98   A    
C82   N18   A    
C75   N11   A    
C42   C50   A    
C14   C78   A    
C76   N12   A    
O11   H55   S    
C45   O9    S    
C46   O10   S    
C74   H58   S    
C93   N29   A    
O3    H35   S    
C1    H1    S    
C12   C76   A    
C14   C22   S    
N17   Ni5   S    
C86   O18   S    
C82   H18   S    
C47   N7    A    
C93   C97   A    
C7    C91   A    
N15   Ni8   S    
C15   C87   A    
N3    N31   A    
N4    N32   A    
C3    H3    S    
C62   C65   A    
C21   C25   A    
N13   Ni6   S    
C33   C57   A    
N11   N19   A    
C6    C46   A    
C32   O8    S    
N21   Ni1   S    
C18   C22   A    
C91   N27   A    
C31   C32   S    
C24   C28   A    
C29   O1    S    
C36   C60   A    
C49   C55   A    
N1    N29   A    
C78   O14   S    
C39   C43   A    
N26   Ni5   S    
C89   N25   A    
C87   N23   A    
C5    C57   S    
O4    H36   S    
C72   H16   S    
C54   H50   S    
N5    N25   A    
C92   N28   A    
C53   H49   S    
N10   N18   A    
C4    C100  A    
N31   Ni4   S    
O15   H63   S    
C71   C72   A    
N12   N20   A    
C6    C90   A    
C13   C21   S    
N10   Ni1   S    
C10   C74   A    
C44   C52   A    
O7    H39   S    
N18   Ni6   S    
C77   N13   A    
C49   H45   S    
C43   C51   A    
C81   N17   A    
C96   C100  A    
C48   O12   S    
C36   C38   A    
N28   Ni7   S    
C52   C54   A    
C73   H57   S    
C67   C71   A    
N32   Ni3   S    
C63   H11   S    
C69   C70   A    
C93   H25   S    
N11   Ni4   S    
C64   H12   S    
C78   N14   A    
N7    N27   A    
C63   C64   A    
N2    N30   A    
N24   Ni4   S    
C3    C99   A    
C40   H8    S    
C40   C44   A    
C56   C60   A    
C66   C70   A    
O8    H40   S    
N8    Ni8   S    
C69   H13   S    
C22   C26   A    
N14   Ni5   S    
C13   C85   A    
C27   C28   A    
C16   C88   A    
C2    H2    S    
C41   C98   S    
N22   Ni2   S    
C51   H47   S    
N16   N24   A    
C28   H32   S    
N8    N28   A    
O1    H33   S    
C85   O17   S    
C5    C89   A    
C9    C81   A    
C56   H52   S    
C20   C31   S    
C17   C21   A    
