data_mof_unit_23526.cif
_audit_creation_date              2012-12-10T18:11:36-0500
_audit_creation_method            fapswitch 2.2
_symmetry_space_group_name_H-M    P1
_symmetry_Int_Tables_number       1
_space_group_crystal_system       triclinic
_cell_length_a                    10.495458
_cell_length_b                    12.632103
_cell_length_c                    13.132079
_cell_angle_alpha                 82.966448
_cell_angle_beta                  90.632289
_cell_angle_gamma                 101.415218
_cell_volume                      1693.60811048

loop_
_atom_site_label
_atom_site_type_symbol
_atom_type_description
_atom_site_fract_x
_atom_site_fract_y
_atom_site_fract_z
_atom_type_partial_charge
C1    C     C_R   0.474736 0.440214 0.690707 0.864481
C2    C     C_3   0.056336 0.566712 0.416219 0.183377
C3    C     C_3   0.983745 0.603636 0.502517 -0.165008
C4    C     C_3   0.877864 0.501810 0.498259 -0.010496
C5    C     C_R   0.507596 0.731703 0.050087 -0.212539
C6    C     C_R   0.492030 0.596943 0.200357 -0.205691
C7    C     C_R   0.451726 0.298471 0.840139 -0.288479
C8    C     C_R   0.459618 0.271201 0.945229 -0.222212
C9    C     C_R   0.466123 0.350712 0.011097 0.532578
C10   C     C_R   0.439778 0.454979 0.972846 -0.029338
C11   C     C_R   0.424436 0.480634 0.866327 0.034307
C12   C     C_R   0.742158 0.500474 0.499298 0.876679
C13   C     C_R   0.442907 0.539071 0.035060 0.008895
C14   C     C_R   0.460887 0.648194 0.990407 0.099050
C15   C     C_R   0.429266 0.670155 0.888098 -0.201365
C16   C     C_R   0.398282 0.584535 0.829378 -0.157056
C17   C     C_R   0.428036 0.518768 0.140371 0.181925
C18   C     C_R   0.535432 0.705578 0.153516 0.166127
C19   C     C_R   0.444185 0.404940 0.799758 -0.119261
C20   C     C_R   0.284136 0.079939 0.378955 -0.280140
C21   C     C_R   0.654829 0.800133 0.629196 0.026676
C22   C     C_R   0.682274 0.903539 0.660092 -0.292159
C23   C     C_R   0.508258 0.560662 0.308822 0.911606
C24   C     C_R   0.620684 0.983899 0.612267 -0.180733
C25   C     C_R   0.533405 0.961376 0.531597 0.027778
C26   C     C_R   0.503323 0.853491 0.506932 0.222011
C27   C     C_R   0.469816 0.040394 0.478439 -0.113530
C28   C     C_R   0.360746 0.006232 0.417940 0.101737
C29   C     C_R   0.331734 0.899692 0.395123 -0.209613
C30   C     C_R   0.406812 0.825830 0.434847 -0.148520
C31   C     C_R   0.512973 0.153244 0.478795 0.543993
C32   C     C_R   0.318139 0.186981 0.399310 -0.038315
C33   C     C_R   0.258063 0.500258 0.498905 0.877491
C34   C     C_3   0.943844 0.435107 0.579971 -0.156851
C35   C     C_3   0.052385 0.536670 0.584419 -0.219007
C36   C     C_3   0.122823 0.500449 0.497467 -0.009751
C37   C     C_3   0.016734 0.399032 0.492989 -0.159742
C38   C     C_3   0.948104 0.465874 0.411410 -0.183667
H1    H     H_    0.099442 0.565349 0.654905 0.148331
H2    H     H_    0.461628 0.238237 0.790269 0.187094
H3    H     H_    0.473642 0.190513 0.974849 0.168767
H4    H     H_    0.361238 0.602578 0.753468 0.170599
H5    H     H_    0.253969 0.242485 0.377590 0.185972
H6    H     H_    0.253145 0.874869 0.343904 0.191739
H7    H     H_    0.197648 0.054303 0.335524 0.168165
H8    H     H_    0.701794 0.737050 0.666254 0.143296
H9    H     H_    0.893142 0.381357 0.646657 0.146877
H10   H     H_    0.639720 0.062012 0.640945 0.194852
H11   H     H_    0.749907 0.921028 0.721484 0.161168
H12   H     H_    0.386572 0.747464 0.408884 0.230426
H13   H     H_    0.035786 0.316295 0.489572 0.158435
H14   H     H_    0.903527 0.441275 0.338966 0.132359
H15   H     H_    0.967238 0.687260 0.506105 0.165100
H16   H     H_    0.426853 0.752369 0.854168 0.148641
H17   H     H_    0.529615 0.815652 0.015199 0.164281
N1    N     N_R   0.432930 0.222190 0.444670 -0.138429
N2    N     N_R   0.566370 0.776980 0.554790 -0.130315
O1    O     O_R   0.467970 0.366730 0.627150 -0.604487
O2    O     O_R   0.510820 0.544830 0.662520 -0.631886
O3    O     O_R   0.664630 0.410960 0.482340 -0.583170
O4    O     O_R   0.707470 0.589060 0.517710 -0.620085
O5    O     O_R   0.489180 0.455170 0.337480 -0.589579
O6    O     O_R   0.532030 0.633270 0.372850 -0.598460
O7    O     O_R   0.292530 0.410940 0.482290 -0.624795
O8    O     O_R   0.335370 0.589040 0.517660 -0.652820
Zn1   Zn    Zn3+2 0.471390 0.381080 0.476380 0.982079
Zn2   Zn    Zn3+2 0.528610 0.618920 0.523620 0.941025
I1    I     I_    0.259833 0.400610 0.196087 -0.347026
O9    O     O_3   0.504297 0.325883 0.111094 -0.626309
C39   C     C_3   0.638689 0.369128 0.120842 0.078641
H18   H     H_    0.655518 0.384117 0.201995 0.174350
H19   H     H_    0.671601 0.449300 0.073289 0.123888
C40   C     C_3   0.721540 0.288034 0.096015 -0.407295
H20   H     H_    0.691103 0.209966 0.146566 0.237332
H21   H     H_    0.707428 0.271931 0.015033 0.223971
C41   C     C_3   0.865760 0.332267 0.110997 -0.891296
H22   H     H_    0.923134 0.271406 0.093863 0.279837
H23   H     H_    0.898905 0.408588 0.058604 0.277223
H24   H     H_    0.883816 0.348936 0.191343 0.260151
O10   O     O_3   0.641564 0.195463 0.497013 -0.647475
C42   C     C_3   0.716206 0.197605 0.406732 0.113265
H25   H     H_    0.762634 0.282951 0.381619 0.171401
H26   H     H_    0.659109 0.168402 0.339582 0.121667
C43   C     C_3   0.821759 0.130360 0.429468 -0.369807
H27   H     H_    0.873348 0.151955 0.500630 0.229096
H28   H     H_    0.776447 0.042610 0.441221 0.246385
C44   C     C_3   0.919542 0.148567 0.340943 -0.935403
H29   H     H_    0.869408 0.127434 0.269078 0.286999
H30   H     H_    0.991242 0.095535 0.358937 0.266770
H31   H     H_    0.972180 0.234560 0.329462 0.268078
I2    I     I_    0.138052 0.661086 0.278006 -0.417475
I3    I     I_    0.640772 0.835727 0.227888 -0.387388

loop_
_geom_bond_atom_site_label_1
_geom_bond_atom_site_label_2
_ccdc_geom_bond_type
C44   H29   S    
C34   C37   S    
C40   H20   S    
C35   C36   S    
C41   H24   S    
C42   H25   S    
C33   O8    A    
C7    C8    A    
C11   C19   A    
C29   C30   A    
C36   C37   S    
C9    O9    S    
C1    O2    A    
C37   H13   S    
C38   H14   S    
C15   C16   A    
C33   C36   S    
C34   C35   S    
C2    C38   S    
O2    Zn2   S    
C43   H27   S    
O1    Zn1   S    
C23   O5    A    
C8    C9    A    
O8    Zn2   S    
C7    H2    S    
C43   C44   S    
C39   H18   S    
C31   N1    A    
C4    C12   S    
C9    C10   A    
C20   H7    S    
C23   O6    A    
C30   H12   S    
O3    Zn1   S    
C21   C22   A    
C40   H21   S    
O9    C39   S    
N2    Zn2   S    
C42   H26   S    
O6    Zn2   S    
C41   H22   S    
C6    C18   A    
C4    C34   S    
C1    C19   S    
O5    Zn1   S    
C27   C31   A    
C24   H10   S    
C15   H16   S    
C31   O10   S    
C24   C25   A    
C5    C18   A    
C20   C28   A    
C25   C26   A    
O7    Zn1   S    
C35   H1    S    
C21   N2    A    
C37   C38   S    
C11   C16   A    
O4    Zn2   S    
C3    C35   S    
C39   C40   S    
C8    H3    S    
C5    C14   A    
C22   H11   S    
C4    C38   S    
C26   C30   A    
C7    C19   A    
C44   H30   S    
C29   H6    S    
C40   C41   S    
C22   C24   A    
C3    C4    S    
C16   H4    S    
C42   C43   S    
C21   H8    S    
C20   C32   A    
C2    C36   S    
C6    C17   A    
C28   C29   A    
C17   I1    S    
C5    H17   S    
C41   H23   S    
O10   C42   S    
C10   C13   A    
C25   C27   A    
C13   C17   A    
C18   I3    S    
C2    C3    S    
C1    O1    A    
C12   O4    A    
C3    H15   S    
C33   O7    A    
N1    Zn1   S    
C6    C23   S    
C32   H5    S    
C2    I2    S    
C26   N2    A    
C10   C11   A    
C12   O3    A    
C44   H31   S    
C27   C28   A    
C14   C15   A    
C43   H28   S    
C39   H19   S    
C34   H9    S    
C13   C14   A    
C32   N1    A    
