data_mof_unit_23407.cif
_audit_creation_date              2012-12-11T15:37:14-0500
_audit_creation_method            fapswitch 2.2
_symmetry_space_group_name_H-M    P1
_symmetry_Int_Tables_number       1
_space_group_crystal_system       triclinic
_cell_length_a                    17.476986
_cell_length_b                    24.588871
_cell_length_c                    14.851358
_cell_angle_alpha                 90.28726
_cell_angle_beta                  126.163119
_cell_angle_gamma                 89.899416
_cell_volume                      5152.54737034

loop_
_atom_site_label
_atom_site_type_symbol
_atom_type_description
_atom_site_fract_x
_atom_site_fract_y
_atom_site_fract_z
_atom_type_partial_charge
C1    C     C_R   0.808552 0.622120 0.908661 -0.153200
C2    C     C_R   0.158619 0.351032 0.091541 -0.145839
C3    C     C_R   0.159971 0.648529 0.091137 -0.182014
C4    C     C_R   0.809783 0.375681 0.907202 -0.141795
C5    C     C_R   0.308553 0.122123 0.908659 -0.153200
C6    C     C_R   0.658628 0.851035 0.091541 -0.145823
C7    C     C_R   0.659969 0.148530 0.091136 -0.182017
C8    C     C_R   0.309783 0.875682 0.907202 -0.141800
C9    C     C_3   0.423516 0.500450 0.349980 0.069678
C10   C     C_3   0.590255 0.498076 0.544189 0.065783
C11   C     C_3   0.923517 0.000452 0.349971 0.069673
C12   C     C_3   0.090262 0.998076 0.544173 0.065781
C13   C     C_R   0.759417 0.270392 0.935665 -0.299597
C14   C     C_R   0.182184 0.766974 0.054292 -0.285698
C15   C     C_R   0.177091 0.230809 0.053233 -0.311591
C16   C     C_R   0.765151 0.727380 0.947079 -0.293760
C17   C     C_R   0.259415 0.770393 0.935661 -0.299587
C18   C     C_R   0.682176 0.266977 0.054284 -0.285707
C19   C     C_R   0.677110 0.730817 0.053244 -0.311579
C20   C     C_R   0.265143 0.227382 0.947078 -0.293756
C21   C     C_R   0.212919 0.723945 0.928490 0.212918
C22   C     C_R   0.726792 0.314343 0.058305 0.231743
C23   C     C_R   0.722402 0.683047 0.058851 0.218239
C24   C     C_R   0.220800 0.274555 0.941321 0.234319
C25   C     C_R   0.712918 0.223945 0.928492 0.212918
C26   C     C_R   0.226800 0.814341 0.058313 0.231738
C27   C     C_R   0.222391 0.183042 0.058840 0.218249
C28   C     C_R   0.720804 0.774553 0.941309 0.234277
C29   C     C_R   0.175885 0.722614 0.990839 0.028026
C30   C     C_R   0.765418 0.315140 0.998175 0.042228
C31   C     C_R   0.764353 0.681841 0.002220 0.044053
C32   C     C_R   0.175751 0.275605 0.994277 0.031733
C33   C     C_R   0.675880 0.222615 0.990836 0.028019
C34   C     C_R   0.265419 0.815140 0.998176 0.042223
C35   C     C_R   0.264346 0.181841 0.002214 0.044050
C36   C     C_R   0.675765 0.775610 0.994277 0.031734
C37   C     C_R   0.100481 0.450869 0.623657 -0.180893
C38   C     C_R   0.113029 0.549217 0.540948 -0.169108
C39   C     C_R   0.108852 0.450777 0.537053 -0.176939
C40   C     C_R   0.105846 0.549189 0.628837 -0.187774
C41   C     C_R   0.600470 0.950866 0.623646 -0.180881
C42   C     C_R   0.613037 0.049215 0.540953 -0.169112
C43   C     C_R   0.608848 0.950775 0.537048 -0.176943
C44   C     C_R   0.605849 0.049187 0.628839 -0.187773
C45   C     C_R   0.104020 0.500072 0.487189 0.143199
C46   C     C_R   0.089367 0.500059 0.662323 0.151243
C47   C     C_R   0.604024 0.000071 0.487190 0.143199
C48   C     C_R   0.589362 0.000056 0.662317 0.151240
C49   C     C_R   0.907146 0.373878 0.094725 -0.125746
C50   C     C_R   0.061722 0.647066 0.904526 -0.130950
C51   C     C_R   0.062790 0.352470 0.904936 -0.158791
C52   C     C_R   0.906087 0.623935 0.095715 -0.133393
C53   C     C_R   0.407147 0.873878 0.094725 -0.125746
C54   C     C_R   0.561720 0.147067 0.904525 -0.130947
C55   C     C_R   0.562800 0.852474 0.904936 -0.158808
C56   C     C_R   0.406087 0.123937 0.095714 -0.133403
C57   C     C_R   0.052424 0.545656 0.306799 -0.138604
C58   C     C_R   0.016072 0.454136 0.747399 -0.135923
C59   C     C_R   0.015212 0.545874 0.746593 -0.122813
C60   C     C_R   0.052210 0.454562 0.306287 -0.132556
C61   C     C_R   0.552425 0.045656 0.306800 -0.138602
C62   C     C_R   0.516068 0.954136 0.747395 -0.135917
C63   C     C_R   0.515210 0.045874 0.746589 -0.122815
C64   C     C_R   0.552211 0.954562 0.306287 -0.132556
C65   C     C_R   0.736807 0.454290 0.703843 -0.128957
C66   C     C_R   0.267479 0.545447 0.244983 -0.144106
C67   C     C_R   0.267141 0.455317 0.241970 -0.111657
C68   C     C_R   0.735779 0.544583 0.703375 -0.145540
C69   C     C_R   0.236812 0.954290 0.703836 -0.128965
C70   C     C_R   0.767478 0.045447 0.244983 -0.144112
C71   C     C_R   0.767142 0.955318 0.241970 -0.111650
C72   C     C_R   0.235783 0.044583 0.703368 -0.145531
C73   C     C_R   0.815799 0.636429 0.003614 0.084645
C74   C     C_R   0.134085 0.324570 0.996712 0.077090
C75   C     C_R   0.134655 0.674379 0.995432 0.100048
C76   C     C_R   0.817907 0.360038 0.001354 0.058685
C77   C     C_R   0.315800 0.136432 0.003611 0.084650
C78   C     C_R   0.634103 0.824577 0.996711 0.077095
C79   C     C_R   0.634651 0.174381 0.995431 0.100049
C80   C     C_R   0.317908 0.860039 0.001354 0.058684
C81   C     C_R   0.070273 0.500173 0.371070 0.046367
C82   C     C_R   0.045070 0.500047 0.720238 0.043264
C83   C     C_R   0.570276 0.000173 0.371071 0.046368
C84   C     C_R   0.545065 0.000046 0.720232 0.043261
C85   C     C_R   0.682272 0.498937 0.650142 0.056372
C86   C     C_R   0.322293 0.500592 0.263789 0.047599
C87   C     C_R   0.182279 0.998936 0.650129 0.056368
C88   C     C_R   0.822292 0.000593 0.263786 0.047602
C89   C     C_3   0.513344 0.454838 0.504595 0.010369
C90   C     C_3   0.501518 0.543541 0.390872 0.015689
C91   C     C_3   0.494966 0.453623 0.389360 0.019104
C92   C     C_3   0.518566 0.544324 0.505209 0.014471
C93   C     C_3   0.013352 0.954837 0.504577 0.010374
C94   C     C_3   0.001516 0.043545 0.390863 0.015692
C95   C     C_3   0.994968 0.953628 0.389339 0.019104
C96   C     C_3   0.018572 0.044322 0.505204 0.014475
C97   C     C_3   0.441329 0.501278 0.465613 -0.259318
C98   C     C_3   0.574664 0.496676 0.430825 -0.273329
C99   C     C_3   0.941337 0.001275 0.465607 -0.259322
C100  C     C_3   0.074664 0.996682 0.430806 -0.273336
H1    H     H_    0.750686 0.631382 0.823619 0.124767
H2    H     H_    0.203166 0.336123 0.176223 0.093474
H3    H     H_    0.206028 0.663610 0.175854 0.105734
H4    H     H_    0.752325 0.366684 0.821689 0.122349
H5    H     H_    0.250687 0.131383 0.823616 0.124769
H6    H     H_    0.703174 0.836125 0.176222 0.093466
H7    H     H_    0.706025 0.163612 0.175853 0.105737
H8    H     H_    0.252323 0.866686 0.821688 0.122355
H9    H     H_    0.938549 0.363551 0.180499 0.104497
H10   H     H_    0.015426 0.661779 0.819876 0.077296
H11   H     H_    0.019519 0.338039 0.819612 0.100125
H12   H     H_    0.937618 0.634132 0.181805 0.088965
H13   H     H_    0.438549 0.863550 0.180499 0.104499
H14   H     H_    0.515423 0.161778 0.819875 0.077297
H15   H     H_    0.519529 0.838041 0.819612 0.100130
H16   H     H_    0.437618 0.134135 0.181804 0.088966
H17   H     H_    0.071056 0.587233 0.335498 0.084305
H18   H     H_    0.025317 0.412203 0.735080 0.097851
H19   H     H_    0.022825 0.587713 0.732467 0.091260
H20   H     H_    0.070799 0.413005 0.334135 0.082373
H21   H     H_    0.571055 0.087233 0.335498 0.084306
H22   H     H_    0.525311 0.912203 0.735072 0.097835
H23   H     H_    0.522822 0.087712 0.732464 0.091261
H24   H     H_    0.570801 0.913005 0.334135 0.082372
H25   H     H_    0.724076 0.413203 0.672706 0.098609
H26   H     H_    0.291121 0.586998 0.268036 0.103179
H27   H     H_    0.289848 0.413791 0.259407 0.105461
H28   H     H_    0.719939 0.585750 0.672232 0.098835
H29   H     H_    0.224084 0.913203 0.672702 0.098616
H30   H     H_    0.791118 0.086999 0.268035 0.103181
H31   H     H_    0.789851 0.913792 0.259410 0.105456
H32   H     H_    0.219946 0.085750 0.672227 0.098832
H33   H     H_    0.384838 0.504029 0.478424 0.136593
H34   H     H_    0.633204 0.494616 0.421584 0.132031
H35   H     H_    0.884849 0.004023 0.478424 0.136591
H36   H     H_    0.133201 0.994626 0.421558 0.132033
H37   H     H_    0.792449 0.271573 0.892665 0.139987
H38   H     H_    0.151387 0.764657 0.099724 0.142834
H39   H     H_    0.143588 0.233587 0.095569 0.138510
H40   H     H_    0.803873 0.726780 0.910787 0.148873
H41   H     H_    0.292443 0.771575 0.892656 0.139987
H42   H     H_    0.651374 0.264662 0.099712 0.142833
H43   H     H_    0.643613 0.733599 0.095586 0.138506
H44   H     H_    0.303864 0.226786 0.910786 0.148864
H45   H     H_    0.091601 0.412307 0.650107 0.121456
H46   H     H_    0.115450 0.588034 0.508937 0.105704
H47   H     H_    0.107593 0.411865 0.502153 0.108823
H48   H     H_    0.103429 0.587982 0.661434 0.112067
H49   H     H_    0.591583 0.912302 0.650087 0.121457
H50   H     H_    0.615465 0.088032 0.508947 0.105706
H51   H     H_    0.607585 0.911864 0.502145 0.108819
H52   H     H_    0.603436 0.087979 0.661439 0.112068
N1    N     N_R   0.892620 0.603790 0.941800 -0.044263
N2    N     N_R   0.107380 0.396210 0.058200 -0.038577
N3    N     N_R   0.107380 0.603790 0.058200 -0.037123
N4    N     N_R   0.892620 0.396210 0.941800 -0.042857
N5    N     N_R   0.392620 0.103790 0.941800 -0.044262
N6    N     N_R   0.607380 0.896210 0.058200 -0.038577
N7    N     N_R   0.607380 0.103790 0.058200 -0.037123
N8    N     N_R   0.392620 0.896210 0.941800 -0.042857
N9    N     N_R   0.952210 0.397600 0.057910 -0.041984
N10   N     N_R   0.047790 0.602400 0.942090 -0.036983
N11   N     N_R   0.047790 0.397600 0.942090 -0.037122
N12   N     N_R   0.952210 0.602400 0.057910 -0.039673
N13   N     N_R   0.452210 0.897600 0.057910 -0.041985
N14   N     N_R   0.547790 0.102400 0.942090 -0.036983
N15   N     N_R   0.547790 0.897600 0.942090 -0.037119
N16   N     N_R   0.452210 0.102400 0.057910 -0.039671
N17   N     N_R   0.026300 0.529110 0.206760 -0.035597
N18   N     N_R   0.973700 0.470890 0.793240 -0.040072
N19   N     N_R   0.973700 0.529110 0.793240 -0.040480
N20   N     N_R   0.026300 0.470890 0.206760 -0.037590
N21   N     N_R   0.526300 0.029110 0.206760 -0.035597
N22   N     N_R   0.473700 0.970890 0.793240 -0.040070
N23   N     N_R   0.473700 0.029110 0.793240 -0.040479
N24   N     N_R   0.526300 0.970890 0.206760 -0.037590
N25   N     N_R   0.818530 0.472270 0.792960 -0.039249
N26   N     N_R   0.181470 0.527730 0.207040 -0.038898
N27   N     N_R   0.181470 0.472270 0.207040 -0.044874
N28   N     N_R   0.818530 0.527730 0.792960 -0.037405
N29   N     N_R   0.318530 0.972270 0.792960 -0.039250
N30   N     N_R   0.681470 0.027730 0.207040 -0.038898
N31   N     N_R   0.681470 0.972270 0.207040 -0.044874
N32   N     N_R   0.318530 0.027730 0.792960 -0.037406
Ni1   Ni    Ni4+2 0.934150 0.565840 0.869060 0.206404
Ni2   Ni    Ni4+2 0.065850 0.434160 0.130940 0.205773
Ni3   Ni    Ni4+2 0.065850 0.565840 0.130940 0.209127
Ni4   Ni    Ni4+2 0.934150 0.434160 0.869060 0.207990
Ni5   Ni    Ni4+2 0.434150 0.065840 0.869060 0.206404
Ni6   Ni    Ni4+2 0.565850 0.934160 0.130940 0.205773
Ni7   Ni    Ni4+2 0.565850 0.065840 0.130940 0.209127
Ni8   Ni    Ni4+2 0.434150 0.934160 0.869060 0.207991
C101  C     C_R   0.520838 0.408048 0.575330 0.130918
C102  C     C_R   0.486119 0.413481 0.639608 -0.148367
C103  C     C_R   0.494092 0.370559 0.706087 -0.114349
C104  C     C_R   0.536943 0.321896 0.709416 -0.081951
C105  C     C_R   0.572941 0.316288 0.647290 -0.130785
C106  C     C_R   0.565540 0.359229 0.581167 -0.201375
H53   H     H_    0.453560 0.450943 0.639495 0.103477
H54   H     H_    0.467122 0.375073 0.755211 0.107322
H55   H     H_    0.542717 0.288689 0.760640 0.104402
H56   H     H_    0.607265 0.278803 0.651048 0.104820
H57   H     H_    0.595342 0.354457 0.535160 0.122009
C107  C     C_R   0.512297 0.592460 0.338116 0.117724
C108  C     C_R   0.600446 0.619319 0.396718 -0.150925
C109  C     C_R   0.611215 0.667663 0.356212 -0.122903
C110  C     C_R   0.533825 0.690167 0.257716 -0.093908
C111  C     C_R   0.446357 0.663608 0.198465 -0.114720
C112  C     C_R   0.436084 0.614078 0.236399 -0.178215
H58   H     H_    0.660476 0.603364 0.475102 0.107966
H59   H     H_    0.679113 0.688191 0.402327 0.103664
H60   H     H_    0.541480 0.728245 0.227455 0.099980
H61   H     H_    0.386354 0.681932 0.123806 0.142712
H62   H     H_    0.368572 0.593624 0.187079 0.121243
C113  C     C_R   0.481007 0.406257 0.315413 0.125358
C114  C     C_R   0.507743 0.411294 0.243148 -0.131014
C115  C     C_R   0.494590 0.368013 0.173806 -0.121603
C116  C     C_R   0.453698 0.319520 0.174901 -0.101831
C117  C     C_R   0.424909 0.314437 0.244402 -0.094962
C118  C     C_R   0.438333 0.357540 0.314195 -0.199110
H63   H     H_    0.538521 0.448719 0.239906 0.109282
H64   H     H_    0.515878 0.372136 0.118942 0.103464
H65   H     H_    0.443774 0.286033 0.121380 0.104949
H66   H     H_    0.391912 0.277120 0.243976 0.109275
H67   H     H_    0.414226 0.352882 0.366069 0.118454
C119  C     C_R   0.523876 0.591597 0.574596 0.118142
C120  C     C_R   0.502608 0.645181 0.533836 -0.163480
C121  C     C_R   0.508186 0.687899 0.600009 -0.131565
C122  C     C_R   0.532778 0.677530 0.706343 -0.077900
C123  C     C_R   0.550885 0.624328 0.746141 -0.122479
C124  C     C_R   0.546318 0.581537 0.680801 -0.160274
H68   H     H_    0.479973 0.654541 0.450736 0.131170
H69   H     H_    0.492479 0.729040 0.568296 0.115401
H70   H     H_    0.536781 0.710601 0.757372 0.120182
H71   H     H_    0.568454 0.616282 0.827653 0.128911
H72   H     H_    0.560705 0.540543 0.713259 0.119740
C125  C     C_R   0.020848 0.908042 0.575299 0.130920
C126  C     C_R   0.986124 0.913465 0.639572 -0.148375
C127  C     C_R   0.994099 0.870537 0.706039 -0.114349
C128  C     C_R   0.036957 0.821877 0.709360 -0.081952
C129  C     C_R   0.072961 0.816281 0.647237 -0.130801
C130  C     C_R   0.065558 0.859228 0.581126 -0.201376
H73   H     H_    0.953560 0.950923 0.639464 0.103476
H74   H     H_    0.967123 0.875042 0.755159 0.107321
H75   H     H_    0.042731 0.788666 0.760573 0.104398
H76   H     H_    0.107289 0.778800 0.650987 0.104821
H77   H     H_    0.095363 0.854465 0.535121 0.122011
C131  C     C_R   0.012288 0.092465 0.338107 0.117727
C132  C     C_R   0.100434 0.119326 0.396703 -0.150932
C133  C     C_R   0.111198 0.167670 0.356193 -0.122910
C134  C     C_R   0.033804 0.190171 0.257698 -0.093909
C135  C     C_R   0.946338 0.163611 0.198456 -0.114722
C136  C     C_R   0.936069 0.114081 0.236393 -0.178221
H78   H     H_    0.160466 0.103371 0.475085 0.107968
H79   H     H_    0.179094 0.188199 0.402301 0.103666
H80   H     H_    0.041455 0.228249 0.227432 0.099983
H81   H     H_    0.886333 0.181934 0.123798 0.142722
H82   H     H_    0.868561 0.093625 0.187078 0.121246
C137  C     C_R   0.981002 0.906268 0.315379 0.125363
C138  C     C_R   0.007720 0.911315 0.243098 -0.131015
C139  C     C_R   0.994559 0.868040 0.173743 -0.121598
C140  C     C_R   0.953680 0.819543 0.174842 -0.101827
C141  C     C_R   0.924907 0.814450 0.244356 -0.094959
C142  C     C_R   0.938336 0.857548 0.314160 -0.199108
H83   H     H_    0.038489 0.948744 0.239857 0.109284
H84   H     H_    0.015834 0.872171 0.118866 0.103457
H85   H     H_    0.943753 0.786059 0.121313 0.104945
H86   H     H_    0.891917 0.777130 0.243931 0.109281
H87   H     H_    0.914239 0.852883 0.366043 0.118458
C143  C     C_R   0.023882 0.091590 0.574599 0.118152
C144  C     C_R   0.002618 0.145177 0.533849 -0.163501
C145  C     C_R   0.008189 0.187890 0.600024 -0.131556
C146  C     C_R   0.032773 0.177514 0.706353 -0.077878
C147  C     C_R   0.050879 0.124310 0.746143 -0.122485
C148  C     C_R   0.046318 0.081523 0.680799 -0.160272
H88   H     H_    0.979990 0.154541 0.450753 0.131176
H89   H     H_    0.992483 0.229032 0.568317 0.115398
H90   H     H_    0.036771 0.210582 0.757384 0.120170
H91   H     H_    0.068442 0.116258 0.827649 0.128908
H92   H     H_    0.060705 0.040527 0.713249 0.119741
C149  C     C_3   0.203824 0.678263 0.852734 -0.380601
C150  C     C_3   0.264819 0.628703 0.916541 -0.882212
H93   H     H_    0.340870 0.638872 0.960600 0.253139
H94   H     H_    0.252346 0.613786 0.977135 0.264047
H95   H     H_    0.247625 0.595223 0.856974 0.251494
H96   H     H_    0.128903 0.666283 0.792101 0.168782
H97   H     H_    0.225489 0.692678 0.799949 0.180434
C151  C     C_3   0.729437 0.362766 0.123602 -0.379947
C152  C     C_3   0.794330 0.352303 0.249027 -0.900510
H98   H     H_    0.767084 0.317989 0.271027 0.254818
H99   H     H_    0.867212 0.342643 0.276448 0.252816
H100  H     H_    0.797244 0.389197 0.294395 0.253775
H101  H     H_    0.753771 0.400210 0.106019 0.197277
H102  H     H_    0.656536 0.371181 0.097676 0.180615
C153  C     C_3   0.728523 0.636087 0.128578 -0.370240
C154  C     C_3   0.665066 0.588624 0.056764 -0.894688
H103  H     H_    0.589979 0.601989 0.001801 0.253757
H104  H     H_    0.686793 0.571943 0.005436 0.256915
H105  H     H_    0.670987 0.555689 0.111441 0.252972
H106  H     H_    0.802902 0.621999 0.186120 0.183316
H107  H     H_    0.706706 0.649454 0.182011 0.189645
C155  C     C_3   0.230377 0.322743 0.885064 -0.347530
C156  C     C_3   0.174914 0.313107 0.759483 -0.962587
H108  H     H_    0.189713 0.272321 0.740656 0.266905
H109  H     H_    0.097651 0.316588 0.718775 0.250234
H110  H     H_    0.196784 0.343553 0.723930 0.255599
H111  H     H_    0.207775 0.361739 0.900095 0.199495
H112  H     H_    0.306528 0.328226 0.920916 0.183965
C157  C     C_3   0.703824 0.178262 0.852737 -0.380602
C158  C     C_3   0.764816 0.128702 0.916545 -0.882215
H113  H     H_    0.840868 0.138869 0.960605 0.253141
H114  H     H_    0.752342 0.113786 0.977139 0.264048
H115  H     H_    0.747621 0.095221 0.856980 0.251493
H116  H     H_    0.628903 0.166283 0.792102 0.168784
H117  H     H_    0.725492 0.192676 0.799955 0.180434
C159  C     C_3   0.229452 0.862761 0.123619 -0.379943
C160  C     C_3   0.294349 0.852294 0.249043 -0.900508
H118  H     H_    0.267104 0.817979 0.271042 0.254818
H119  H     H_    0.367230 0.842634 0.276459 0.252812
H120  H     H_    0.297268 0.889187 0.294417 0.253775
H121  H     H_    0.253786 0.900206 0.106039 0.197275
H122  H     H_    0.156553 0.871177 0.097700 0.180619
C161  C     C_3   0.228513 0.136080 0.128562 -0.370246
C162  C     C_3   0.165065 0.088615 0.056744 -0.894707
H123  H     H_    0.089976 0.101977 0.001779 0.253757
H124  H     H_    0.186798 0.071939 0.005417 0.256920
H125  H     H_    0.170989 0.055677 0.111417 0.252973
H126  H     H_    0.302894 0.121995 0.186107 0.183320
H127  H     H_    0.206688 0.149443 0.181990 0.189649
C163  C     C_3   0.730369 0.822735 0.885025 -0.347483
C164  C     C_3   0.674908 0.813087 0.759444 -0.962523
H128  H     H_    0.689674 0.772290 0.740622 0.266902
H129  H     H_    0.597644 0.816591 0.718723 0.250200
H130  H     H_    0.696798 0.843517 0.723885 0.255587
H131  H     H_    0.707759 0.861733 0.900038 0.199476
H132  H     H_    0.806520 0.828220 0.920880 0.183947

loop_
_geom_bond_atom_site_label_1
_geom_bond_atom_site_label_2
_ccdc_geom_bond_type
C10   C85   S    
C142  H87   S    
C20   H44   S    
C15   C32   A    
C156  H109  S    
C5    H5    S    
C16   C31   A    
C40   C46   A    
C150  H93   S    
C125  C130  A    
C58   C82   A    
C7    N7    A    
C144  C145  A    
C96   C99   S    
C155  H112  S    
C50   H10   S    
C147  C148  A    
C122  H70   S    
C21   C149  S    
N30   N31   A    
C38   C45   A    
C91   C113  S    
C126  C127  A    
C136  H82   S    
C162  H123  S    
C59   H19   S    
C124  H72   S    
C161  H127  S    
C151  H102  S    
C68   H28   S    
C159  H122  S    
C41   C43   A    
C42   C44   A    
C59   N19   A    
N5    N16   A    
C121  C122  A    
C53   H13   S    
N6    N15   A    
C72   H32   S    
C15   H39   S    
N3    N10   A    
C158  H114  S    
C163  C164  S    
N19   Ni1   S    
C161  C162  S    
C71   N31   A    
C13   C30   A    
C134  C135  A    
N17   Ni3   S    
C109  C110  A    
C27   C35   A    
C64   H24   S    
C21   C29   A    
N21   Ni7   S    
C17   C21   A    
C159  C160  S    
C23   C31   A    
C160  H120  S    
C19   C23   A    
C113  C114  A    
C24   C32   A    
C122  C123  A    
C30   C76   S    
C15   C27   A    
C120  C121  A    
C89   C101  S    
N13   Ni6   S    
C6    H6    S    
C14   C26   A    
C94   C96   S    
C154  H103  S    
C128  H75   S    
C12   C93   S    
C17   C34   A    
C5    C77   A    
C1    H1    S    
C7    C79   A    
C54   C79   A    
C3    H3    S    
C149  H96   S    
C45   C81   S    
C104  C105  A    
C9    C90   S    
C146  H90   S    
C63   C84   A    
C148  H92   S    
C139  H84   S    
N3    Ni3   S    
C113  C118  A    
C134  H80   S    
C162  H125  S    
C54   H14   S    
C91   C98   S    
C103  C104  A    
C41   H49   S    
C71   H31   S    
C69   H29   S    
C101  C102  A    
C65   H25   S    
C43   C47   A    
C44   C48   A    
C69   N29   A    
C135  C136  A    
C111  H61   S    
C50   N10   A    
C59   C82   A    
C97   H33   S    
N26   N27   A    
C157  H117  S    
C116  H65   S    
N27   Ni2   S    
N2    Ni2   S    
C132  C133  A    
C44   H52   S    
N25   Ni4   S    
N6    Ni6   S    
C32   C74   S    
C139  C140  A    
N29   Ni8   S    
C6    C78   A    
N18   N19   A    
C52   H12   S    
C4    H4    S    
C11   C99   S    
C129  C130  A    
N22   N23   A    
C38   H46   S    
C117  H66   S    
C46   C82   S    
C20   C35   A    
C154  H105  S    
C10   C89   S    
C93   C125  S    
C64   N24   A    
C3    C75   A    
C49   N9    A    
C39   C45   A    
C2    N2    A    
C125  C126  A    
C68   C85   A    
C16   H40   S    
C6    N6    A    
C92   C97   S    
C144  H88   S    
C147  H91   S    
C53   C80   A    
C140  H85   S    
C55   C78   A    
C131  C136  A    
C145  C146  A    
C115  C116  A    
C126  H73   S    
C66   H26   S    
N11   Ni4   S    
C60   C81   A    
C63   N23   A    
C94   C100  S    
C152  H98   S    
C105  H56   S    
C121  H69   S    
C25   C157  S    
N4    N9    A    
C47   C83   S    
C163  H131  S    
C7    H7    S    
C14   C29   A    
C62   H22   S    
C72   C87   A    
C62   C84   A    
C22   C30   A    
C18   C22   A    
C143  C148  A    
C138  C139  A    
C66   C86   A    
N10   Ni1   S    
C140  C141  A    
C150  H94   S    
N14   Ni5   S    
C37   C46   A    
C65   N25   A    
C108  H58   S    
C128  C129  A    
C105  C106  A    
C18   C33   A    
C92   C119  S    
C107  C108  A    
C150  H95   S    
C162  H124  S    
C119  C120  A    
N18   Ni4   S    
C104  H55   S    
C94   C131  S    
C100  H36   S    
C25   C33   A    
C16   C28   A    
C127  C128  A    
C51   C74   A    
C55   N15   A    
C141  C142  A    
C101  C106  A    
C70   H30   S    
C152  H100  S    
C17   H41   S    
C160  H119  S    
C114  H63   S    
C70   N30   A    
C14   H38   S    
C111  C112  A    
C107  C112  A    
C19   H43   S    
C51   N11   A    
C93   C99   S    
C90   C107  S    
C69   C87   A    
C153  H107  S    
C24   C155  S    
C154  H104  S    
C102  C103  A    
C10   C92   S    
C132  H78   S    
C54   N14   A    
C23   C153  S    
C135  H81   S    
C156  H110  S    
N4    Ni4   S    
C141  H86   S    
C40   H48   S    
C129  H76   S    
N7    Ni7   S    
N8    Ni8   S    
C137  C142  A    
C61   C83   A    
C117  C118  A    
C95   C100  S    
C33   C79   S    
C133  C134  A    
C157  C158  S    
C155  H111  S    
C35   C77   S    
C110  C111  A    
C164  H128  S    
C64   C83   A    
N24   Ni6   S    
C3    N3    A    
C99   H35   S    
C123  H71   S    
C151  H101  S    
C1    N1    A    
C72   N32   A    
C52   N12   A    
N26   Ni3   S    
C11   C94   S    
C53   N13   A    
C4    N4    A    
C159  H121  S    
C5    N5    A    
N30   Ni7   S    
C8    N8    A    
N31   Ni6   S    
C153  C154  S    
C43   H51   S    
C131  C132  A    
C57   H17   S    
N29   N32   A    
C115  H64   S    
C158  H113  S    
C67   C86   A    
C9    C97   S    
C63   H23   S    
C157  H116  S    
C153  H106  S    
C112  H62   S    
C1    C73   A    
C37   C39   A    
C67   N27   A    
C50   C75   A    
C38   C40   A    
C55   H15   S    
C60   H20   S    
C123  C124  A    
C12   C100  S    
C28   C36   A    
C106  H57   S    
C2    H2    S    
C143  C144  A    
C12   C96   S    
C138  H83   S    
C158  H115  S    
C149  H97   S    
C145  H89   S    
N12   Ni3   S    
C70   C88   A    
C9    C91   S    
C108  C109  A    
C95   C137  S    
N15   Ni8   S    
C66   N26   A    
N9    Ni2   S    
N16   Ni7   S    
C61   H21   S    
C58   N18   A    
C19   C36   A    
C31   C73   S    
C96   C143  S    
C119  C124  A    
C62   N22   A    
C58   H18   S    
C161  H126  S    
C10   C98   S    
C34   C80   S    
C90   C92   S    
C109  H59   S    
C26   C34   A    
C156  H108  S    
N20   Ni2   S    
C127  H74   S    
C2    C74   A    
C120  H68   S    
C163  H132  S    
C13   C25   A    
C8    H8    S    
C164  H130  S    
C57   N17   A    
C56   H16   S    
C27   C161  S    
N1    N12   A    
C60   N20   A    
C20   C24   A    
N2    N11   A    
C18   H42   S    
C61   N21   A    
C114  C115  A    
C52   C73   A    
C149  C150  S    
N8    N13   A    
C26   C159  S    
C68   N28   A    
C56   C77   A    
C48   C84   S    
C89   C97   S    
C13   H37   S    
C67   H27   S    
C9    C86   S    
C102  H53   S    
C11   C88   S    
N25   N28   A    
C28   C163  S    
C56   N16   A    
C146  C147  A    
C49   C76   A    
C71   C88   A    
C164  H129  S    
C22   C151  S    
C110  H60   S    
N17   N20   A    
C57   C81   A    
C89   C91   S    
C39   H47   S    
C137  C138  A    
C49   H9    S    
C103  H54   S    
N21   N24   A    
C11   C95   S    
C133  H79   S    
C155  C156  S    
C51   H11   S    
C12   C87   S    
N23   Ni5   S    
C65   C85   A    
C29   C75   S    
C98   H34   S    
C130  H77   S    
N7    N14   A    
C151  C152  S    
C36   C78   S    
C116  C117  A    
N1    Ni1   S    
C152  H99   S    
C41   C48   A    
C118  H67   S    
C42   C47   A    
C160  H118  S    
C42   H50   S    
N5    Ni5   S    
C4    C76   A    
N28   Ni1   S    
C93   C95   S    
N22   Ni8   S    
C8    C80   A    
N32   Ni5   S    
C37   H45   S    
C90   C98   S    
