data_mof_unit_15005.cif
_audit_creation_date              2012-12-10T16:38:06-0500
_audit_creation_method            fapswitch 2.2
_symmetry_space_group_name_H-M    P1
_symmetry_Int_Tables_number       1
_space_group_crystal_system       triclinic
_cell_length_a                    28.187406
_cell_length_b                    18.418931
_cell_length_c                    16.955182
_cell_angle_alpha                 89.683488
_cell_angle_beta                  60.706778
_cell_angle_gamma                 89.9434
_cell_volume                      7677.04935846

loop_
_atom_site_label
_atom_site_type_symbol
_atom_type_description
_atom_site_fract_x
_atom_site_fract_y
_atom_site_fract_z
_atom_type_partial_charge
C1    C     C_R   0.700156 0.264614 0.677571 0.855915
C2    C     C_R   0.092876 0.498512 0.521091 0.074069
C3    C     C_R   0.192889 0.208080 0.906874 0.078883
C4    C     C_R   0.618024 0.330816 0.048580 -0.125301
C5    C     C_R   0.380685 0.667359 0.952253 -0.117451
C6    C     C_R   0.389772 0.306652 0.950991 -0.130229
C7    C     C_R   0.610366 0.693179 0.048842 -0.154781
C8    C     C_R   0.118023 0.830816 0.048580 -0.125296
C9    C     C_R   0.880686 0.167362 0.952252 -0.117440
C10   C     C_R   0.889772 0.806652 0.950991 -0.130229
C11   C     C_R   0.110366 0.193178 0.048842 -0.154776
C12   C     C_R   0.649577 0.320124 0.090075 -0.085823
C13   C     C_R   0.406986 0.001414 0.479258 0.074519
C14   C     C_R   0.348758 0.677267 0.911342 -0.077684
C15   C     C_R   0.363047 0.279781 0.906403 -0.097072
C16   C     C_R   0.637042 0.720148 0.093447 -0.111245
C17   C     C_R   0.149576 0.820124 0.090075 -0.085808
C18   C     C_R   0.848760 0.177271 0.911340 -0.077690
C19   C     C_R   0.863047 0.779781 0.906404 -0.097069
C20   C     C_R   0.137042 0.220147 0.093448 -0.111246
C21   C     C_R   0.741430 0.190632 0.796002 -0.177900
C22   C     C_R   0.257791 0.808435 0.204394 -0.194172
C23   C     C_R   0.225919 0.276802 0.235425 -0.221100
C24   C     C_R   0.592876 0.998512 0.521090 0.074068
C25   C     C_R   0.774262 0.723462 0.764517 -0.203698
C26   C     C_R   0.241429 0.690630 0.796003 -0.177903
C27   C     C_R   0.757792 0.308436 0.204394 -0.194172
C28   C     C_R   0.725919 0.776802 0.235425 -0.221101
C29   C     C_R   0.274262 0.223461 0.764517 -0.203699
C30   C     C_R   0.767992 0.169515 0.844355 0.388965
C31   C     C_R   0.230704 0.828875 0.156623 0.407973
C32   C     C_R   0.199085 0.244537 0.193826 0.391778
C33   C     C_R   0.800947 0.755783 0.806344 0.308072
C34   C     C_R   0.267990 0.669512 0.844357 0.388923
C35   C     C_R   0.072669 0.375371 0.578464 -0.110948
C36   C     C_R   0.730704 0.328876 0.156623 0.407972
C37   C     C_R   0.699084 0.744537 0.193826 0.391783
C38   C     C_R   0.300947 0.255783 0.806344 0.308066
C39   C     C_R   0.070761 0.104465 0.937506 0.925471
C40   C     C_R   0.929315 0.895466 0.062423 0.925224
C41   C     C_R   0.928434 0.103375 0.063019 0.889541
C42   C     C_R   0.071360 0.896442 0.937135 0.887467
C43   C     C_R   0.570760 0.604465 0.937506 0.925442
C44   C     C_R   0.429315 0.395465 0.062423 0.925223
C45   C     C_R   0.428434 0.603375 0.063019 0.889524
C46   C     C_R   0.927180 0.624708 0.422190 -0.114267
C47   C     C_R   0.571360 0.396442 0.937135 0.887466
C48   C     C_R   0.564995 0.124407 0.457510 -0.101371
C49   C     C_R   0.434306 0.875656 0.544277 -0.106965
C50   C     C_R   0.473519 0.126281 0.433307 -0.090705
C51   C     C_R   0.526060 0.873848 0.568010 -0.093901
C52   C     C_R   0.064994 0.624407 0.457511 -0.101371
C53   C     C_R   0.934306 0.375655 0.544277 -0.106966
C54   C     C_R   0.973519 0.626281 0.433308 -0.090704
C55   C     C_R   0.026060 0.373847 0.568009 -0.093901
C56   C     C_R   0.548151 0.190550 0.436778 0.316359
C57   C     C_R   0.885206 0.380783 0.543739 -0.105528
C58   C     C_R   0.450556 0.809774 0.566954 0.333788
C59   C     C_R   0.506534 0.189583 0.413243 0.341293
C60   C     C_R   0.492532 0.810923 0.589721 0.353480
C61   C     C_R   0.048151 0.690550 0.436779 0.316358
C62   C     C_R   0.950556 0.309773 0.566953 0.333778
C63   C     C_R   0.006534 0.689583 0.413244 0.341292
C64   C     C_R   0.992533 0.310922 0.589719 0.353486
C65   C     C_R   0.485989 0.063611 0.468554 -0.022446
C66   C     C_R   0.513689 0.936287 0.532299 -0.020704
C67   C     C_R   0.532387 0.062254 0.478772 -0.016488
C68   C     C_R   0.114226 0.619428 0.457444 -0.109126
C69   C     C_R   0.467235 0.937622 0.522174 -0.016858
C70   C     C_R   0.985988 0.563611 0.468556 -0.022446
C71   C     C_R   0.013689 0.436287 0.532300 -0.020704
C72   C     C_R   0.032387 0.562254 0.478773 -0.016488
C73   C     C_R   0.967235 0.437622 0.522174 -0.016856
C74   C     C_R   0.953356 0.501058 0.490249 0.055793
C75   C     C_R   0.046416 0.498785 0.510311 0.056142
C76   C     C_R   0.453356 0.001059 0.490248 0.055794
C77   C     C_R   0.546416 0.998785 0.510310 0.056142
C78   C     C_R   0.874061 0.439427 0.501661 0.021741
C79   C     C_R   0.572669 0.875372 0.578465 -0.110945
C80   C     C_R   0.125735 0.560595 0.498774 0.025078
C81   C     C_R   0.107869 0.435629 0.550988 0.017586
C82   C     C_R   0.892077 0.564340 0.449225 0.017261
C83   C     C_R   0.374062 0.939427 0.501660 0.021739
C84   C     C_R   0.625735 0.060595 0.498773 0.025078
C85   C     C_R   0.607869 0.935630 0.550988 0.017589
C86   C     C_R   0.392077 0.064340 0.449224 0.017262
C87   C     C_R   0.831477 0.438040 0.479795 -0.114678
C88   C     C_R   0.168465 0.561968 0.520299 -0.112839
C89   C     C_R   0.158482 0.435343 0.550960 -0.107199
C90   C     C_R   0.427180 0.124708 0.422189 -0.114268
C91   C     C_R   0.841533 0.564645 0.449020 -0.107559
C92   C     C_R   0.331477 0.938040 0.479794 -0.114679
C93   C     C_R   0.668465 0.061968 0.520298 -0.112840
C94   C     C_R   0.658482 0.935344 0.550960 -0.107196
C95   C     C_R   0.341533 0.064645 0.449020 -0.107558
C96   C     C_R   0.815763 0.500340 0.454023 -0.255322
C97   C     C_R   0.184299 0.499642 0.545797 -0.258276
C98   C     C_R   0.315763 0.000340 0.454022 -0.255323
C99   C     C_R   0.684299 0.999642 0.545797 -0.258272
C100  C     C_2   0.585581 0.302387 0.789434 0.965574
C101  C     C_R   0.385206 0.880784 0.543738 -0.105524
C102  C     C_2   0.414359 0.697993 0.210030 0.960363
C103  C     C_2   0.411620 0.270381 0.197662 1.012753
C104  C     C_2   0.588656 0.729796 0.802435 1.014065
C105  C     C_2   0.085581 0.802387 0.789434 0.965575
C106  C     C_2   0.914359 0.197993 0.210031 0.960368
C107  C     C_2   0.911620 0.770381 0.197662 1.012752
C108  C     C_2   0.088653 0.229803 0.802443 1.014075
C109  C     C_R   0.299780 0.735299 0.322432 0.859393
C110  C     C_R   0.614226 0.119428 0.457444 -0.109127
C111  C     C_R   0.717723 0.260693 0.957017 -0.018482
C112  C     C_R   0.281047 0.737636 0.044058 -0.021102
C113  C     C_R   0.278034 0.271493 0.046884 0.000558
C114  C     C_R   0.722089 0.728302 0.953114 0.006681
C115  C     C_R   0.217722 0.760691 0.957018 -0.018482
C116  C     C_R   0.781048 0.237638 0.044057 -0.021100
C117  C     C_R   0.778034 0.771493 0.046884 0.000557
C118  C     C_R   0.222089 0.228302 0.953114 0.006682
C119  C     C_R   0.762358 0.212632 0.918137 -0.080969
C120  C     C_R   0.294960 0.275954 0.325767 0.909940
C121  C     C_R   0.236265 0.785511 0.083097 -0.079609
C122  C     C_R   0.222600 0.248420 0.097327 -0.083520
C123  C     C_R   0.777463 0.751534 0.902748 -0.092484
C124  C     C_R   0.262356 0.712630 0.918139 -0.080950
C125  C     C_R   0.736266 0.285513 0.083096 -0.079608
C126  C     C_R   0.722600 0.748420 0.097327 -0.083519
C127  C     C_R   0.277463 0.251533 0.902748 -0.092483
C128  C     C_R   0.796298 0.206031 0.958756 0.089422
C129  C     C_R   0.202245 0.791911 0.042583 0.109680
C130  C     C_R   0.194067 0.230204 0.049325 0.082002
C131  C     C_R   0.705138 0.723899 0.674155 0.909625
C132  C     C_R   0.806022 0.769650 0.950682 0.062455
C133  C     C_R   0.296296 0.706028 0.958758 0.089422
C134  C     C_R   0.702246 0.291912 0.042582 0.109686
C135  C     C_R   0.694067 0.730204 0.049325 0.082005
C136  C     C_R   0.306022 0.269650 0.950682 0.062454
C137  C     C_R   0.638575 0.316466 0.955582 0.080774
C138  C     C_R   0.360571 0.682426 0.044982 0.076236
C139  C     C_R   0.362068 0.314426 0.044831 0.072927
C140  C     C_R   0.638119 0.685303 0.955026 0.075663
C141  C     C_R   0.138574 0.816466 0.955583 0.080771
C142  C     C_R   0.200155 0.764614 0.677571 0.855916
C143  C     C_R   0.860572 0.182427 0.044982 0.076237
C144  C     C_R   0.862068 0.814426 0.044831 0.072927
C145  C     C_R   0.138120 0.185303 0.955026 0.075649
C146  C     C_R   0.610723 0.336617 0.906822 -0.200152
C147  C     C_R   0.388818 0.662916 0.093370 -0.199671
C148  C     C_R   0.389197 0.336078 0.093306 -0.223872
C149  C     C_R   0.610998 0.663691 0.906536 -0.221747
C150  C     C_R   0.110723 0.836616 0.906822 -0.200151
C151  C     C_R   0.888818 0.162917 0.093370 -0.199662
C152  C     C_R   0.889197 0.836078 0.093306 -0.223871
C153  C     C_R   0.799780 0.235299 0.322432 0.859391
C154  C     C_R   0.110999 0.163692 0.906536 -0.221721
C155  C     C_R   0.625335 0.305637 0.823256 -0.124456
C156  C     C_R   0.374408 0.694266 0.176646 -0.121022
C157  C     C_R   0.371324 0.307161 0.178159 -0.154905
C158  C     C_R   0.628889 0.692606 0.821703 -0.155256
C159  C     C_R   0.125335 0.805637 0.823256 -0.124457
C160  C     C_R   0.874409 0.194266 0.176646 -0.121026
C161  C     C_R   0.871324 0.807161 0.178159 -0.154906
C162  C     C_R   0.128888 0.192609 0.821705 -0.155284
C163  C     C_R   0.674864 0.269701 0.777306 -0.163671
C164  C     C_R   0.794960 0.775954 0.325767 0.909942
C165  C     C_R   0.324834 0.730024 0.222751 -0.161335
C166  C     C_R   0.315785 0.293131 0.230249 -0.142326
C167  C     C_R   0.684412 0.706656 0.769628 -0.146514
C168  C     C_R   0.174864 0.769701 0.777306 -0.163675
C169  C     C_R   0.824834 0.230025 0.222751 -0.161336
C170  C     C_R   0.815785 0.793131 0.230249 -0.142326
C171  C     C_R   0.184412 0.206657 0.769629 -0.146522
C172  C     C_R   0.702810 0.247241 0.825614 -0.001915
C173  C     C_R   0.296560 0.751997 0.174759 0.001437
C174  C     C_R   0.282173 0.289835 0.187801 -0.011928
C175  C     C_R   0.205138 0.223900 0.674155 0.909656
C176  C     C_R   0.718033 0.710046 0.812079 -0.008281
C177  C     C_R   0.202809 0.747239 0.825614 -0.001902
C178  C     C_R   0.796561 0.251998 0.174759 0.001438
C179  C     C_R   0.782173 0.789835 0.187801 -0.011927
C180  C     C_R   0.218033 0.210046 0.812079 -0.008284
C181  C     C_R   0.696157 0.127776 0.519181 0.884587
C182  C     C_R   0.303823 0.872224 0.480855 0.884085
C183  C     C_R   0.308978 0.129719 0.463894 0.895922
C184  C     C_R   0.691024 0.870274 0.536108 0.896062
C185  C     C_R   0.196157 0.627776 0.519181 0.884587
C186  C     C_R   0.906985 0.501413 0.479260 0.074520
C187  C     C_R   0.803823 0.372224 0.480855 0.884085
C188  C     C_R   0.808978 0.629719 0.463894 0.895924
C189  C     C_R   0.191024 0.370275 0.536108 0.896077
C190  C     C_R   0.686590 0.275226 0.912362 0.063405
C191  C     C_R   0.312497 0.723582 0.088319 0.062809
C192  C     C_R   0.307294 0.291674 0.093030 0.080304
C193  C     C_R   0.692889 0.708079 0.906874 0.078885
C194  C     C_R   0.186589 0.775225 0.912363 0.063404
C195  C     C_R   0.812499 0.223583 0.088319 0.062806
C196  C     C_R   0.807294 0.791674 0.093030 0.080304
H1    H     H_    0.780577 0.499789 0.444025 0.209956
H2    H     H_    0.418284 0.170250 0.391844 0.230943
H3    H     H_    0.355121 0.839532 0.580193 0.205933
H4    H     H_    0.643937 0.161166 0.421274 0.204165
H5    H     H_    0.576480 0.346917 0.092662 0.208292
H6    H     H_    0.422167 0.651294 0.907753 0.207458
H7    H     H_    0.433333 0.315151 0.912508 0.170637
H8    H     H_    0.566788 0.684810 0.087260 0.170245
H9    H     H_    0.076479 0.846916 0.092662 0.208291
H10   H     H_    0.922169 0.151297 0.907752 0.207462
H11   H     H_    0.933333 0.815152 0.912508 0.170637
H12   H     H_    0.219570 0.500188 0.555559 0.207811
H13   H     H_    0.066788 0.184809 0.087261 0.170246
H14   H     H_    0.631338 0.330897 0.161214 0.222893
H15   H     H_    0.366511 0.665333 0.840574 0.233922
H16   H     H_    0.388486 0.264584 0.837248 0.213141
H17   H     H_    0.611536 0.735727 0.162405 0.213024
H18   H     H_    0.131337 0.830896 0.161215 0.222890
H19   H     H_    0.866514 0.165339 0.840571 0.233928
H20   H     H_    0.888486 0.764584 0.837248 0.213141
H21   H     H_    0.111536 0.235726 0.162405 0.213022
H22   H     H_    0.746159 0.155730 0.741666 0.208378
H23   H     H_    0.280577 0.999789 0.444024 0.209956
H24   H     H_    0.253214 0.843627 0.258387 0.207221
H25   H     H_    0.202553 0.284379 0.307542 0.205494
H26   H     H_    0.797684 0.716379 0.692330 0.203080
H27   H     H_    0.246158 0.655729 0.741667 0.208370
H28   H     H_    0.753214 0.343627 0.258387 0.207220
H29   H     H_    0.702553 0.784378 0.307542 0.205495
H30   H     H_    0.297684 0.216378 0.692330 0.203079
H31   H     H_    0.961538 0.136504 0.715445 0.391121
H32   H     H_    0.037857 0.865194 0.290073 0.385383
H33   H     H_    0.954168 0.115031 0.517104 0.394224
H34   H     H_    0.719570 0.000188 0.555559 0.207811
H35   H     H_    0.144468 0.835931 0.397402 0.382737
H36   H     H_    0.461534 0.636507 0.715450 0.391126
H37   H     H_    0.537856 0.365195 0.290076 0.385385
H38   H     H_    0.454172 0.615035 0.517077 0.394211
H39   H     H_    0.644469 0.335931 0.397402 0.382737
H40   H     H_    0.525034 0.246467 0.786519 0.355404
H41   H     H_    0.475013 0.754333 0.212061 0.350057
H42   H     H_    0.430597 0.177876 0.240897 0.366975
H43   H     H_    0.569848 0.822880 0.759958 0.367616
H44   H     H_    0.025034 0.746468 0.786518 0.355405
H45   H     H_    0.081671 0.329975 0.608865 0.229849
H46   H     H_    0.975013 0.254332 0.212062 0.350057
H47   H     H_    0.930596 0.677877 0.240897 0.366976
H48   H     H_    0.069853 0.322884 0.759947 0.367610
H49   H     H_    0.852537 0.064637 0.686564 0.398939
H50   H     H_    0.189301 0.000690 0.097483 0.409181
H51   H     H_    0.059270 0.188761 0.349578 0.421179
H52   H     H_    0.820843 0.908250 0.828223 0.398537
H53   H     H_    0.352532 0.564668 0.686565 0.398939
H54   H     H_    0.689289 0.500683 0.097490 0.409177
H55   H     H_    0.559270 0.688762 0.349584 0.421174
H56   H     H_    0.918284 0.670250 0.391845 0.230943
H57   H     H_    0.320844 0.408249 0.828222 0.398541
H58   H     H_    0.855121 0.339531 0.580193 0.205931
H59   H     H_    0.143936 0.661166 0.421275 0.204165
H60   H     H_    0.581671 0.829976 0.608867 0.229839
O1    O     O_R   0.746490 0.236330 0.638080 -0.630512
O2    O     O_R   0.325830 0.813840 0.483730 -0.589360
O3    O     O_3   0.858132 0.888484 0.793262 -0.476821
O4    O     O_2   0.290811 0.548533 0.911333 -0.277778
O5    O     O_2   0.256398 0.531430 0.806080 -0.301936
O6    O     O_3   0.356250 0.573991 0.740765 -0.484701
O7    O     O_2   0.648114 0.421638 0.251216 -0.237604
O8    O     O_2   0.740271 0.466998 0.197034 -0.254684
O9    O     O_3   0.707329 0.452748 0.079862 -0.555634
O10   O     O_2   0.642290 0.620015 0.214382 -0.283933
O11   O     O_2   0.659669 0.653685 0.336773 -0.223898
O12   O     O_3   0.587042 0.727305 0.320207 -0.572858
O13   O     O_R   0.325830 0.186160 0.483730 -0.629442
O14   O     O_2   0.406019 0.280406 0.684104 -0.256083
O15   O     O_2   0.338259 0.349607 0.666367 -0.240425
O16   O     O_3   0.358133 0.388483 0.793261 -0.476806
O17   O     O_R   0.674170 0.813840 0.516270 -0.628636
O18   O     O_R   0.174170 0.686160 0.516270 -0.597632
O19   O     O_R   0.825830 0.313840 0.483730 -0.589361
O20   O     O_R   0.825830 0.686160 0.483730 -0.629441
O21   O     O_R   0.174170 0.313840 0.516270 -0.628630
O22   O     O_R   0.739960 0.127620 0.525000 -0.626821
O23   O     O_R   0.260040 0.872380 0.475000 -0.628869
O24   O     O_R   0.260040 0.127620 0.475000 -0.612700
O25   O     O_R   0.253510 0.763670 0.361920 -0.648844
O26   O     O_R   0.739960 0.872380 0.525000 -0.615253
O27   O     O_R   0.239960 0.627620 0.525000 -0.626822
O28   O     O_R   0.760040 0.372380 0.475000 -0.628869
O29   O     O_R   0.760040 0.627620 0.475000 -0.612698
O30   O     O_R   0.239960 0.372380 0.525000 -0.615255
O31   O     O_R   0.680700 0.294870 0.629350 -0.571078
O32   O     O_R   0.319300 0.705130 0.370650 -0.569596
O33   O     O_R   0.319300 0.294870 0.370650 -0.597034
O34   O     O_R   0.680700 0.705130 0.629350 -0.596028
O35   O     O_R   0.180700 0.794870 0.629350 -0.571079
O36   O     O_R   0.253510 0.236330 0.361920 -0.606366
O37   O     O_R   0.819300 0.205130 0.370650 -0.569596
O38   O     O_R   0.819300 0.794870 0.370650 -0.597034
O39   O     O_R   0.180700 0.205130 0.629350 -0.596013
O40   O     O_R   0.062020 0.072840 0.007170 -0.622510
O41   O     O_R   0.937980 0.927160 0.992830 -0.614951
O42   O     O_R   0.937980 0.072840 0.992830 -0.617884
O43   O     O_R   0.062020 0.927160 0.007170 -0.621367
O44   O     O_R   0.562020 0.572840 0.007170 -0.622507
O45   O     O_R   0.437980 0.427160 0.992830 -0.614950
O46   O     O_R   0.437980 0.572840 0.992830 -0.617884
O47   O     O_R   0.746490 0.763670 0.638080 -0.608663
O48   O     O_R   0.562020 0.427160 0.007170 -0.621369
O49   O     O_R   0.947860 0.073950 0.109290 -0.590287
O50   O     O_R   0.052140 0.926050 0.890710 -0.588698
O51   O     O_R   0.052140 0.073950 0.890710 -0.567964
O52   O     O_R   0.947860 0.926050 0.109290 -0.569947
O53   O     O_R   0.447860 0.573950 0.109290 -0.590286
O54   O     O_R   0.552140 0.426050 0.890710 -0.588695
O55   O     O_R   0.552140 0.573950 0.890710 -0.567946
O56   O     O_R   0.447860 0.426050 0.109290 -0.569947
O57   O     O_2   0.053038 0.202458 0.600600 -0.261095
O58   O     O_R   0.246490 0.736330 0.638080 -0.630511
O59   O     O_2   0.996034 0.272079 0.737970 -0.331504
O60   O     O_3   0.949456 0.176436 0.690065 -0.461757
O61   O     O_2   0.003160 0.731384 0.265687 -0.333206
O62   O     O_2   0.945572 0.798555 0.404913 -0.265210
O63   O     O_3   0.049136 0.825507 0.316987 -0.456839
O64   O     O_2   0.874258 0.205471 0.628667 -0.314118
O65   O     O_2   0.916434 0.235237 0.467516 -0.289025
O66   O     O_3   0.972787 0.159690 0.520016 -0.464582
O67   O     O_2   0.027887 0.831959 0.487534 -0.143911
O68   O     O_2   0.078995 0.761763 0.542546 -0.288603
O69   O     O_R   0.753510 0.263670 0.361920 -0.648845
O70   O     O_3   0.128835 0.799860 0.373357 -0.531101
O71   O     O_2   0.553035 0.702462 0.600614 -0.261093
O72   O     O_2   0.496027 0.772087 0.737978 -0.331506
O73   O     O_3   0.449453 0.676440 0.690072 -0.461749
O74   O     O_2   0.503160 0.231384 0.265686 -0.333203
O75   O     O_2   0.445573 0.298556 0.404912 -0.265212
O76   O     O_3   0.549137 0.325507 0.316985 -0.456843
O77   O     O_2   0.374255 0.705475 0.628669 -0.314142
O78   O     O_2   0.416434 0.735237 0.467516 -0.289042
O79   O     O_3   0.472785 0.659690 0.520024 -0.464576
O80   O     O_R   0.753510 0.736330 0.361920 -0.606365
O81   O     O_2   0.527888 0.331959 0.487533 -0.143910
O82   O     O_2   0.578996 0.261763 0.542545 -0.288602
O83   O     O_3   0.628836 0.299859 0.373356 -0.531100
O84   O     O_2   0.583962 0.350737 0.741036 -0.549498
O85   O     O_R   0.550165 0.243183 0.813377 -0.797122
O86   O     O_2   0.416212 0.649915 0.258530 -0.563922
O87   O     O_R   0.449712 0.757307 0.185507 -0.796569
O88   O     O_2   0.457214 0.295511 0.169639 -0.587170
O89   O     O_R   0.398492 0.202708 0.241213 -0.801721
O90   O     O_2   0.543081 0.704725 0.830058 -0.584155
O91   O     O_R   0.246490 0.263670 0.638080 -0.608668
O92   O     O_R   0.601876 0.797721 0.759496 -0.802517
O93   O     O_2   0.083962 0.850738 0.741036 -0.549501
O94   O     O_R   0.050165 0.743183 0.813377 -0.797123
O95   O     O_2   0.916211 0.149914 0.258530 -0.563920
O96   O     O_R   0.949713 0.257307 0.185508 -0.796564
O97   O     O_2   0.957214 0.795511 0.169639 -0.587171
O98   O     O_R   0.898492 0.702708 0.241213 -0.801720
O99   O     O_2   0.043067 0.204752 0.830109 -0.584191
O100  O     O_R   0.101883 0.297716 0.759471 -0.802517
O101  O     O_2   0.790817 0.048536 0.911326 -0.277784
O102  O     O_R   0.674170 0.186160 0.516270 -0.597632
O103  O     O_2   0.756403 0.031433 0.806074 -0.301954
O104  O     O_3   0.856254 0.074000 0.740759 -0.484707
O105  O     O_2   0.148114 0.921638 0.251215 -0.237592
O106  O     O_2   0.240272 0.966997 0.197033 -0.254698
O107  O     O_3   0.207329 0.952747 0.079862 -0.555638
O108  O     O_2   0.142291 0.120015 0.214382 -0.283936
O109  O     O_2   0.159670 0.153685 0.336773 -0.223892
O110  O     O_3   0.087043 0.227304 0.320208 -0.572850
O111  O     O_2   0.906019 0.780407 0.684105 -0.256082
O112  O     O_2   0.838258 0.849608 0.666368 -0.240437
S1    S     S_3+6 0.998914 0.239084 0.655058 0.066072
S2    S     S_3+6 0.205444 0.919525 0.174012 0.050014
S3    S     S_3+6 0.146721 0.182976 0.266494 0.044526
S4    S     S_3+6 0.852365 0.818881 0.734667 0.060456
S5    S     S_3+6 0.292239 0.578352 0.827494 0.028594
S6    S     S_3+6 0.705444 0.419526 0.174013 0.050016
S7    S     S_3+6 0.646721 0.682976 0.266493 0.044523
S8    S     S_3+6 0.352365 0.318880 0.734667 0.060467
S9    S     S_3+6 0.999904 0.762645 0.349701 0.062322
S10   S     S_3+6 0.926621 0.226235 0.546137 0.064532
S11   S     S_3+6 0.069985 0.773508 0.463025 0.109124
S12   S     S_3+6 0.498910 0.739088 0.655066 0.066085
S13   S     S_3+6 0.499905 0.262645 0.349700 0.062322
S14   S     S_3+6 0.426620 0.726236 0.546140 0.064520
S15   S     S_3+6 0.569985 0.273508 0.463024 0.109125
S16   S     S_3+6 0.792243 0.078356 0.827489 0.028593
Zn1   Zn    Zn3+2 0.792340 0.208750 0.507670 1.123101
Zn2   Zn    Zn3+2 0.494040 0.500000 0.919480 1.093590
Zn3   Zn    Zn3+2 0.005960 0.000000 0.080520 1.069401
Zn4   Zn    Zn3+2 0.994040 1.000000 0.919480 1.093576
Zn5   Zn    Zn3+2 0.207660 0.791250 0.492330 1.093063
Zn6   Zn    Zn3+2 0.207660 0.208750 0.492330 1.140463
Zn7   Zn    Zn3+2 0.792340 0.791250 0.507670 1.133133
Zn8   Zn    Zn3+2 0.292340 0.708750 0.507670 1.123094
Zn9   Zn    Zn3+2 0.707660 0.291250 0.492330 1.093065
Zn10  Zn    Zn3+2 0.707660 0.708750 0.492330 1.140460
Zn11  Zn    Zn3+2 0.292340 0.291250 0.507670 1.133134
Zn12  Zn    Zn3+2 0.505960 0.500000 0.080520 1.069395

loop_
_geom_bond_atom_site_label_1
_geom_bond_atom_site_label_2
_ccdc_geom_bond_type
C91   C188  S    
C44   O56   A    
C37   S7    S    
O112  S4    D    
O35   Zn5   S    
C9    C143  A    
C120  C166  S    
C124  C133  A    
O106  S2    D    
C50   C59   A    
C52   C61   A    
C54   C63   A    
C58   C60   A    
C62   S10   S    
C44   O45   A    
C57   H58   S    
C61   C63   A    
C117  C132  A    
C62   C64   A    
C91   C96   A    
C116  C195  A    
C93   C181  S    
C50   C90   A    
C113  C122  A    
C70   C74   A    
O111  S4    D    
C78   C186  A    
C4    C12   A    
C24   C85   A    
C88   C97   A    
C119  C128  A    
C143  C151  A    
C47   C146  S    
O44   Zn12  S    
C49   C69   A    
O7    S6    D    
C120  O33   A    
C103  O89   S    
O63   S9    S    
C158  C167  A    
C11   C20   A    
C166  C174  A    
C36   C125  A    
C150  C159  A    
O23   Zn5   S    
C39   C154  S    
O105  S2    D    
C127  C136  A    
C31   C121  A    
C139  C192  A    
C86   C90   A    
C121  C129  A    
C71   C73   A    
C103  C157  S    
H37   O76   S    
C172  C190  A    
C17   C129  A    
C173  C191  A    
C82   C91   A    
O5    S5    D    
O75   S13   D    
C51   C66   A    
C52   C72   A    
C3    C118  A    
H52   O3    S    
C109  O25   A    
C41   O42   A    
C54   C70   A    
O73   S12   S    
C164  O80   A    
C163  C172  A    
O50   Zn4   S    
C100  C155  S    
O79   S14   S    
C100  O85   S    
H32   O63   S    
O78   S14   D    
C102  O87   S    
C79   C85   A    
C184  O17   A    
C60   S12   S    
C66   C77   A    
C34   C124  A    
O52   Zn3   S    
C57   C78   A    
C8    C17   A    
H54   O9    S    
H41   O87   S    
O51   Zn4   S    
C41   C151  S    
C21   C172  A    
C106  O95   D    
C56   C59   A    
C38   S8    S    
C34   S5    S    
C6    H7    S    
C80   C88   A    
C92   C182  S    
C112  C191  A    
C95   C183  S    
C4    H5    S    
C181  O22   A    
C189  O21   A    
O64   S10   D    
O43   Zn3   S    
C84   C93   A    
O20   Zn7   S    
C8    H9    S    
C30   S16   S    
O82   S15   D    
C153  O69   A    
C86   C95   A    
C12   H14   S    
C24   C77   A    
C42   O43   A    
C2    C81   A    
O42   Zn4   S    
O110  S3    S    
O62   S9    D    
C55   C71   A    
O77   S14   D    
H35   O70   S    
C78   C87   A    
C48   C110  A    
C123  C132  A    
O53   Zn12  S    
C20   H21   S    
C164  C170  S    
C138  C191  A    
C67   C77   A    
C27   C178  A    
O11   S7    D    
O8    S6    D    
C23   C174  A    
O49   Zn3   S    
C14   H15   S    
C47   O54   A    
C105  O93   D    
O13   Zn11  S    
C131  O47   A    
O56   Zn12  S    
C106  C160  S    
H57   O16   S    
O15   S8    D    
C40   C152  S    
C69   C76   A    
C111  C119  A    
C85   C94   A    
C6    C139  A    
O26   Zn7   S    
C18   C128  A    
C4    C137  A    
C46   C82   A    
O70   S11   S    
C29   C38   A    
O66   S10   S    
C8    C141  A    
C176  C193  A    
O31   Zn9   S    
C140  C193  A    
C152  C161  A    
C131  C167  S    
C48   C67   A    
C12   C134  A    
O72   S12   D    
O60   S1    S    
C29   H30   S    
C72   C75   A    
C141  C150  A    
C32   S3    S    
O69   Zn9   S    
C182  O2    A    
C139  C148  A    
C162  C171  A    
C110  H4    S    
C107  C161  S    
C87   C187  S    
C15   C136  A    
C155  C163  A    
O38   Zn7   S    
C142  C168  S    
O2    Zn8   S    
C3    C180  A    
C15   H16   S    
O104  S16   S    
C79   H60   S    
C25   H26   S    
C10   C144  A    
O65   S10   D    
O103  S16   D    
C111  C190  A    
C145  C154  A    
C88   C185  S    
C115  C194  A    
C35   H45   S    
C116  C125  A    
H39   O83   S    
C118  C127  A    
C114  C123  A    
C17   H18   S    
C102  C156  S    
C22   C173  A    
H33   O66   S    
C37   C126  A    
C117  C126  A    
C56   S15   S    
C19   C132  A    
C113  C192  A    
C83   C101  A    
C45   C147  S    
C103  O88   D    
C154  C162  A    
C104  C158  S    
C28   H29   S    
C101  H3    S    
C111  C134  A    
C3    C145  A    
C144  C196  A    
C14   C133  A    
H49   O104  S    
C170  C179  A    
C137  C146  A    
C112  C121  A    
C144  C152  A    
C185  O18   A    
C68   H59   S    
C104  O90   D    
C28   C37   A    
H31   O60   S    
C63   S9    S    
O37   Zn1   S    
C148  C157  A    
C97   H12   S    
C50   C65   A    
C51   C79   A    
O109  S3    D    
C137  C190  A    
C107  O98   S    
C9    C18   A    
C51   C60   A    
H46   O96   S    
C40   O52   A    
C140  C149  A    
C174  C192  A    
O39   Zn6   S    
C187  O19   A    
C125  C134  A    
O19   Zn1   S    
C43   O44   A    
C183  O13   A    
C73   C74   A    
O21   Zn6   S    
C47   O48   A    
C164  O38   A    
O29   Zn10  S    
C65   C76   A    
C82   C186  A    
O27   Zn8   S    
O108  S3    D    
C40   O41   A    
O1    Zn1   S    
C9    H10   S    
C49   C101  A    
C7    C140  A    
C26   C177  A    
H43   O92   S    
C168  C177  A    
O101  S16   D    
O18   Zn5   S    
C33   S4    S    
C64   S1    S    
C108  O100  S    
C109  O32   A    
H50   O107  S    
C146  C155  A    
C23   H25   S    
C65   C67   A    
C160  C169  A    
H53   O6    S    
O25   Zn5   S    
C93   C99   A    
C81   C89   A    
O45   Zn2   S    
C98   H23   S    
O76   S13   S    
C94   C184  S    
C100  O84   D    
C1    O1    A    
C179  C196  A    
O54   Zn2   S    
C177  C194  A    
O48   Zn12  S    
C32   C122  A    
C183  O24   A    
H38   O79   S    
C53   C57   A    
C104  O92   S    
O57   S1    D    
C106  O96   S    
C7    H8    S    
C118  C130  A    
O12   S7    S    
O71   S12   D    
C10   C19   A    
O59   S1    D    
O55   Zn2   S    
C143  C195  A    
C46   C54   A    
C147  C156  A    
C185  O27   A    
C5    C14   A    
C109  C165  S    
C7    C16   A    
O40   Zn3   S    
C126  C135  A    
C142  O58   A    
O4    S5    D    
C120  O36   A    
C1    O31   A    
O24   Zn6   S    
C22   H24   S    
C115  C124  A    
O47   Zn7   S    
O28   Zn9   S    
O83   S15   S    
O67   S11   D    
O46   Zn2   S    
C187  O28   A    
C182  O23   A    
C27   C36   A    
C21   C30   A    
C13   C83   A    
C31   S2    S    
C23   C32   A    
O58   Zn8   S    
C45   O53   A    
H36   O73   S    
C105  C159  S    
C156  C165  A    
O33   Zn11  S    
O80   Zn10  S    
C41   O49   A    
C28   C179  A    
O74   S13   D    
O30   Zn11  S    
C1    C163  S    
H47   O98   S    
C153  C169  S    
C26   H27   S    
C89   C189  S    
C175  O91   A    
H55   O12   S    
C102  O86   D    
C74   C186  A    
C68   C80   A    
C114  C193  A    
C175  O39   A    
C18   H19   S    
C112  C133  A    
C38   C127  A    
C35   C81   A    
C95   C98   A    
C92   C98   A    
C5    C138  A    
C83   C92   A    
C27   H28   S    
C42   O50   A    
C43   O55   A    
C108  O99   D    
C58   S14   S    
O3    S4    S    
O16   S8    S    
C66   C69   A    
C30   C119  A    
C165  C173  A    
C159  C168  A    
O61   S9    D    
C19   H20   S    
H42   O89   S    
O10   S7    D    
C44   C148  S    
C6    C15   A    
C26   C34   A    
C149  C158  A    
C29   C180  A    
C13   C86   A    
C114  C135  A    
H51   O110  S    
C59   S13   S    
O6    S5    S    
C52   C68   A    
C61   S11   S    
C2    C75   A    
C189  O30   A    
O81   S15   D    
O9    S6    S    
O68   S11   D    
C96   H1    S    
C22   C31   A    
C35   C55   A    
C105  O94   S    
C5    H6    S    
O32   Zn8   S    
C11   C145  A    
C188  O20   A    
C153  O37   A    
C171  C175  S    
O34   Zn10  S    
C84   C110  A    
C49   C58   A    
C89   C97   A    
O102  Zn9   S    
C39   O51   A    
C10   H11   S    
O107  S2    S    
C53   C62   A    
C13   C76   A    
C138  C147  A    
C87   C96   A    
C108  C162  S    
C45   O46   A    
C46   H56   S    
O17   Zn10  S    
H48   O100  S    
O91   Zn11  S    
C161  C170  A    
C107  O97   D    
O14   S8    D    
C21   H22   S    
O22   Zn1   S    
C171  C180  A    
C169  C178  A    
C99   H34   S    
C115  C129  A    
C142  O35   A    
C48   C56   A    
C131  O34   A    
C43   C149  S    
H44   O94   S    
C53   C73   A    
C20   C130  A    
O36   Zn6   S    
C157  C166  A    
O41   Zn4   S    
C90   H2    S    
C55   C64   A    
C36   S6    S    
C178  C195  A    
H40   O85   S    
C181  O102  A    
C151  C160  A    
C24   C84   A    
C117  C196  A    
C11   H13   S    
C71   C75   A    
C25   C176  A    
C94   C99   A    
C113  C136  A    
C141  C194  A    
C16   H17   S    
C42   C150  S    
C2    C80   A    
C188  O29   A    
C184  O26   A    
C116  C128  A    
C25   C33   A    
C39   O40   A    
C33   C123  A    
C70   C72   A    
C16   C135  A    
C122  C130  A    
C167  C176  A    
