data_mof_unit_25339.cif
_audit_creation_date              2012-12-10T18:58:47-0500
_audit_creation_method            fapswitch 2.2
_symmetry_space_group_name_H-M    P1
_symmetry_Int_Tables_number       1
_space_group_crystal_system       triclinic
_cell_length_a                    12.966282
_cell_length_b                    10.782648
_cell_length_c                    9.597516
_cell_angle_alpha                 89.41663
_cell_angle_beta                  95.97221
_cell_angle_gamma                 89.827415
_cell_volume                      1334.47370696

loop_
_atom_site_label
_atom_site_type_symbol
_atom_type_description
_atom_site_fract_x
_atom_site_fract_y
_atom_site_fract_z
_atom_type_partial_charge
C1    C     C_R   0.498196 0.262709 0.500380 0.892369
C2    C     C_R   0.026454 0.471896 0.553127 0.107663
C3    C     C_R   0.974404 0.548559 0.447071 0.098159
C4    C     C_R   0.867070 0.567525 0.444826 0.275310
C5    C     C_R   0.864408 0.424582 0.643056 -0.245548
C6    C     C_R   0.971257 0.412037 0.651432 -0.179422
C7    C     C_R   0.565308 0.062115 0.583214 0.160407
C8    C     C_R   0.489184 0.129349 0.502051 -0.135705
C9    C     C_R   0.404411 0.066661 0.428157 -0.043516
C10   C     C_R   0.404229 0.934751 0.427978 -0.081844
C11   C     C_R   0.490414 0.870463 0.497835 -0.143411
C12   C     C_R   0.300962 0.502657 0.473940 0.844188
C13   C     C_R   0.565694 0.934810 0.581102 0.116591
C14   C     C_3   0.680631 0.927522 0.581366 -0.440131
C15   C     C_3   0.680585 0.067998 0.582201 -0.429997
C16   C     C_R   0.590641 0.508809 0.085945 0.169350
C17   C     C_R   0.409765 0.505310 0.061381 -0.047345
C18   C     C_R   0.409758 0.505312 0.913335 -0.022886
C19   C     C_R   0.590579 0.508455 0.939465 0.117586
C20   C     C_3   0.682754 0.423933 0.947350 0.138611
C21   C     C_3   0.683784 0.425458 0.106653 0.170529
C22   C     C_R   0.497794 0.737149 0.499036 0.786388
C23   C     C_R   0.699156 0.502284 0.525867 0.867790
C24   C     C_R   0.811927 0.500728 0.539831 -0.109410
C25   C     C_R   0.188780 0.512051 0.459273 -0.014690
C26   C     C_R   0.031162 0.602680 0.345226 -0.108485
C27   C     C_R   0.137419 0.582739 0.350228 -0.197128
C28   C     C_R   0.133362 0.456132 0.559793 -0.187256
Cu1   Cu    Cu3+1 0.499990 0.499980 0.640670 1.013352
Cu2   Cu    Cu3+1 0.500010 0.500020 0.359330 1.031308
H1    H     H_    0.704778 0.888018 0.483211 0.252745
H2    H     H_    0.720617 0.106003 0.680203 0.251312
H3    H     H_    0.704222 0.110244 0.484230 0.230348
H4    H     H_    0.336315 0.506067 0.105005 0.137745
H5    H     H_    0.336171 0.506083 0.849474 0.134998
H6    H     H_    0.751420 0.470478 0.910555 0.081556
H7    H     H_    0.752908 0.473493 0.157928 0.129805
H8    H     H_    0.822400 0.371876 0.715013 0.199013
H9    H     H_    0.994380 0.659540 0.260653 0.202160
H10   H     H_    0.010379 0.352645 0.732243 0.160654
H11   H     H_    0.179928 0.625802 0.271419 0.149495
H12   H     H_    0.173624 0.399909 0.642896 0.150686
H13   H     H_    0.718622 0.885210 0.679767 0.216848
N1    N     N_R   0.500660 0.500930 0.148010 -0.158803
N2    N     N_R   0.500660 0.500890 0.852110 -0.152031
O1    O     O_R   0.500000 0.319640 0.618810 -0.524889
O2    O     O_R   0.500010 0.319680 0.381230 -0.525531
O3    O     O_R   0.348990 0.499960 0.599490 -0.607266
O4    O     O_R   0.349000 0.500000 0.361910 -0.594945
O5    O     O_R   0.499990 0.680320 0.618770 -0.576355
O6    O     O_R   0.500000 0.680360 0.381190 -0.582678
O7    O     O_R   0.651000 0.500000 0.638090 -0.585646
O8    O     O_R   0.651010 0.500040 0.400510 -0.530959
Cl1   Cl    Cl    0.802937 0.680430 0.330687 -0.680354
Cl2   Cl    Cl    0.654471 0.276834 0.868131 -0.547541
Cl3   Cl    Cl    0.660874 0.279338 0.188549 -0.506684
C29   C     C_2   0.319841 0.137015 0.345552 0.475618
H14   H     H_    0.285755 0.102108 0.245619 0.107173
O9    O     O_2   0.285387 0.232461 0.390032 -0.570424
C30   C     C_2   0.314729 0.863456 0.359616 0.309732
H15   H     H_    0.326512 0.773126 0.315587 0.084396
O10   O     O_2   0.226060 0.902632 0.356492 -0.533005

loop_
_geom_bond_atom_site_label_1
_geom_bond_atom_site_label_2
_ccdc_geom_bond_type
C17   C18   A    
C8    C9    A    
C21   Cl3   S    
C10   C30   S    
Cu2   O6    S    
C19   N2    A    
C16   C21   S    
C17   H4    S    
C2    C3    A    
C25   C27   A    
C1    C8    S    
C9    C10   A    
C27   H11   S    
C11   C22   S    
C19   C20   S    
C23   C24   S    
C12   O3    A    
Cu1   O1    S    
C22   O5    A    
C7    C15   S    
C12   O4    A    
C23   O7    A    
C17   N1    A    
C7    C8    A    
C2    C6    A    
C5    H8    S    
C25   C28   A    
C11   C13   A    
Cu2   N1    S    
C26   C27   A    
Cu1   Cu2   S    
C5    C24   A    
C20   Cl2   S    
C28   H12   S    
Cu2   O4    S    
C23   O8    A    
C9    C29   S    
Cu1   O5    S    
C16   C19   A    
C22   O6    A    
C5    C6    A    
C4    C24   A    
Cu2   O8    S    
C6    H10   S    
C26   H9    S    
C29   O9    D    
C10   C11   A    
C12   C25   S    
C3    C4    A    
C20   H6    S    
C18   N2    A    
Cu2   O2    S    
C7    C13   A    
C21   H7    S    
C20   C21   S    
C30   O10   D    
C18   H5    S    
C14   H1    S    
C16   N1    A    
C14   C15   S    
C30   H15   S    
C2    C28   A    
Cu1   O3    S    
C1    O1    A    
C4    Cl1   S    
C29   H14   S    
C13   C14   S    
C15   H3    S    
C3    C26   A    
C1    O2    A    
Cu1   N2    S    
C14   H13   S    
Cu1   O7    S    
C15   H2    S    
