data_mof_unit_29853.cif
_audit_creation_date              2012-12-11T15:27:41-0500
_audit_creation_method            fapswitch 2.2
_symmetry_space_group_name_H-M    P1
_symmetry_Int_Tables_number       1
_space_group_crystal_system       triclinic
_cell_length_a                    23.221773
_cell_length_b                    7.29924
_cell_length_c                    15.07923
_cell_angle_alpha                 90.043137
_cell_angle_beta                  108.133592
_cell_angle_gamma                 89.958006
_cell_volume                      2429.00273825

loop_
_atom_site_label
_atom_site_type_symbol
_atom_type_description
_atom_site_fract_x
_atom_site_fract_y
_atom_site_fract_z
_atom_type_partial_charge
O1    O     O_R   0.711000 0.648610 0.341170 -0.543940
O2    O     O_R   0.289000 0.351390 0.658830 -0.523678
O3    O     O_R   0.789000 0.148610 0.158830 -0.521943
O4    O     O_R   0.211000 0.851390 0.841170 -0.542248
O5    O     O_R   0.829650 0.322030 0.336650 -0.529763
O6    O     O_R   0.170350 0.677970 0.663350 -0.537642
O7    O     O_R   0.670350 0.822030 0.163350 -0.537277
O8    O     O_R   0.329650 0.177970 0.836650 -0.531022
C1    C     C_R   0.854308 0.485776 0.356668 0.769080
C2    C     C_R   0.145687 0.514256 0.643347 0.764026
C3    C     C_R   0.645679 0.985772 0.143376 0.765211
C4    C     C_R   0.354297 0.014188 0.856708 0.765752
O9    O     O_R   0.713950 0.319280 0.352070 -0.522242
O10   O     O_R   0.286050 0.680720 0.647930 -0.543631
O11   O     O_R   0.786050 0.819280 0.147930 -0.543158
O12   O     O_R   0.213950 0.180720 0.852070 -0.523925
O13   O     O_R   0.672470 0.142870 0.174360 -0.531099
O14   O     O_R   0.327530 0.857130 0.825640 -0.536198
O15   O     O_R   0.827530 0.642870 0.325640 -0.537496
O16   O     O_R   0.172470 0.357130 0.674360 -0.529991
C5    C     C_R   0.702199 0.487741 0.376653 0.894792
C6    C     C_R   0.297779 0.512378 0.623306 0.892643
C7    C     C_R   0.797771 0.987445 0.123296 0.894360
C8    C     C_R   0.202274 0.012438 0.876732 0.894842
O17   O     O_3   0.736530 0.478650 0.191680 -0.383681
O18   O     O_3   0.263470 0.521350 0.808320 -0.381462
O19   O     O_3   0.763470 0.978650 0.308320 -0.381786
O20   O     O_3   0.236530 0.021350 0.691680 -0.383123
V1    V     V_3+5 0.752500 0.206170 0.260820 1.675557
V2    V     V_3+5 0.247500 0.793830 0.739180 1.636485
V3    V     V_3+5 0.747500 0.706170 0.239180 1.634502
V4    V     V_3+5 0.252500 0.293830 0.760820 1.675449
C9    C     C_R   0.826225 0.993315 0.049114 -0.363219
C10   C     C_R   0.173799 0.002297 0.950766 -0.362927
C11   C     C_R   0.673716 0.499002 0.450675 -0.360615
C12   C     C_R   0.326334 0.505715 0.549238 -0.349174
C13   C     C_R   0.822109 0.957158 0.887648 0.702337
C14   C     C_R   0.178164 0.950767 0.111339 0.679774
C15   C     C_R   0.677707 0.564550 0.609908 0.700411
C16   C     C_R   0.321711 0.527384 0.386954 0.686298
C17   C     C_R   0.791991 0.969850 0.954814 0.242417
C18   C     C_R   0.208124 0.968496 0.044145 0.257412
C19   C     C_R   0.707859 0.538594 0.543490 0.243846
C20   C     C_R   0.291773 0.516911 0.454446 0.217442
C21   C     C_R   0.889298 0.009531 0.075299 0.528853
C22   C     C_R   0.110751 0.018727 0.925237 0.527076
C23   C     C_R   0.610692 0.481751 0.425273 0.527306
C24   C     C_R   0.389607 0.498625 0.575727 0.526439
C25   C     C_R   0.920842 0.981401 0.009585 -0.138304
C26   C     C_R   0.079373 0.983646 0.990428 -0.134476
C27   C     C_R   0.579093 0.522584 0.489615 -0.137245
C28   C     C_R   0.420704 0.522821 0.509163 -0.141180
C29   C     C_R   0.885987 0.962408 0.914067 -0.305238
C30   C     C_R   0.114308 0.958276 0.085415 -0.303876
C31   C     C_R   0.613867 0.556803 0.583925 -0.305023
C32   C     C_R   0.385604 0.530563 0.413331 -0.285062
C33   C     C_R   0.985624 0.972021 0.035243 0.024537
C34   C     C_R   0.014626 0.974622 0.964722 0.029181
C35   C     C_R   0.514291 0.528998 0.463805 0.030319
C36   C     C_R   0.485337 0.537784 0.534281 0.028044
C37   C     C_R   0.978216 0.952831 0.871196 -0.178700
C38   C     C_R   0.022127 0.945346 0.128382 -0.154955
C39   C     C_R   0.521610 0.575321 0.626448 -0.178172
C40   C     C_R   0.477641 0.541721 0.369938 -0.183737
C41   C     C_R   0.915533 0.946428 0.846285 0.711920
C42   C     C_R   0.084816 0.938305 0.153045 0.714642
C43   C     C_R   0.584241 0.585141 0.650831 0.712816
C44   C     C_R   0.414910 0.543223 0.345105 0.713785
H1    H     H_    0.997080 0.926981 0.815604 0.221172
H2    H     H_    0.003425 0.915989 0.183731 0.225190
H3    H     H_    0.502635 0.610804 0.680815 0.222604
H4    H     H_    0.496224 0.563699 0.313729 0.222517
C45   C     C_1   0.416761 0.006900 0.918749 -0.067723
C46   C     C_1   0.583202 0.992981 0.081370 -0.068887
C47   C     C_1   0.083214 0.507083 0.581327 -0.061446
C48   C     C_1   0.916775 0.493017 0.418703 -0.065773
C49   C     C_1   0.469126 0.002306 0.970022 0.066272
C50   C     C_1   0.530833 0.997525 0.030113 0.065617
C51   C     C_1   0.030846 0.502497 0.530066 0.075454
C52   C     C_1   0.969140 0.497644 0.469974 0.071777
F1    F     F_    0.884081 0.924253 0.754518 -0.566200
F2    F     F_    0.116312 0.912061 0.244468 -0.575034
F3    F     F_    0.615570 0.622269 0.741266 -0.565214
F4    F     F_    0.383175 0.556888 0.252983 -0.564045
F5    F     F_    0.081794 0.081511 0.837927 -0.693848
F6    F     F_    0.918081 0.063868 0.164224 -0.689508
F7    F     F_    0.419188 0.455533 0.666056 -0.694380
F8    F     F_    0.582022 0.413456 0.339006 -0.693631
S1    S     S_3+6 0.288450 0.953502 0.077176 0.122413
O21   O     O_2   0.305489 0.787185 0.032059 -0.309597
O22   O     O_2   0.312635 0.121455 0.043323 -0.335220
O23   O     O_3   0.320074 0.937669 0.193552 -0.381115
H5    H     H_    0.364347 0.937721 0.203925 0.388865
S2    S     S_3+6 0.711549 0.961537 0.920408 0.129274
O24   O     O_2   0.692492 0.781215 0.950358 -0.287032
O25   O     O_2   0.688752 0.114250 0.967514 -0.352759
O26   O     O_3   0.680572 0.983810 0.804197 -0.379464
H6    H     H_    0.636368 0.992573 0.793633 0.391050
S3    S     S_3+6 0.211267 0.512792 0.420054 0.133661
O27   O     O_2   0.190958 0.362520 0.471513 -0.313867
O28   O     O_2   0.188872 0.692736 0.445207 -0.300533
O29   O     O_3   0.180265 0.475008 0.304837 -0.400725
H7    H     H_    0.174054 0.597965 0.275733 0.427581
S4    S     S_3+6 0.788224 0.551375 0.577009 0.125100
O30   O     O_2   0.812109 0.386585 0.539877 -0.343924
O31   O     O_2   0.805859 0.721486 0.535683 -0.300447
O32   O     O_3   0.819528 0.557563 0.693692 -0.379260
H8    H     H_    0.863802 0.551331 0.704495 0.389887
F9    F     F_    0.789154 0.935277 0.796551 -0.482717
F10   F     F_    0.211184 0.922699 0.201899 -0.518544
F11   F     F_    0.710551 0.601229 0.699694 -0.483803
F12   F     F_    0.288535 0.537591 0.295400 -0.524084

loop_
_geom_bond_atom_site_label_1
_geom_bond_atom_site_label_2
_ccdc_geom_bond_type
O17   V3    S    
O1    C5    A    
O19   V1    S    
C9    C21   A    
O3    C7    A    
C10   C18   A    
O15   V3    S    
S4    O31   D    
O26   H6    S    
C25   C33   A    
C33   C38   A    
C16   F12   S    
C49   C50   S    
O7    C3    A    
C35   C40   A    
C26   C30   A    
C36   C39   A    
C40   C44   A    
O9    V1    S    
C14   C18   A    
O4    C8    A    
C20   S3    S    
O1    V3    S    
O13   V1    S    
C31   C43   A    
C38   H2    S    
O2    V4    S    
O3    V1    S    
C19   S4    S    
C28   C36   A    
C1    O15   A    
C15   C31   A    
C17   S2    S    
C2    O16   A    
C7    C9    S    
O2    C6    A    
O32   H8    S    
C10   C22   A    
C1    C48   S    
C14   F10   S    
C11   C19   A    
C16   C20   A    
C13   F9    S    
C22   F5    S    
C13   C29   A    
C34   C37   A    
O11   C7    A    
C11   C23   A    
C35   C36   A    
O12   C8    A    
C4    C45   S    
S2    O24   D    
O10   V2    S    
S4    O30   D    
O5    V1    S    
C39   C43   A    
O7    V3    S    
C38   C42   A    
O8    V4    S    
O18   V4    S    
C23   C27   A    
S2    O26   S    
C16   C32   A    
C32   C44   A    
C8    C10   S    
C44   F4    S    
O5    C1    A    
C42   F2    S    
C2    C47   S    
C41   F1    S    
S3    O27   D    
C14   C30   A    
C21   C25   A    
O8    C4    A    
C24   F7    S    
O9    C5    A    
C43   F3    S    
S1    O23   S    
S2    O25   D    
O14   V2    S    
C26   C34   A    
O6    V2    S    
C39   H3    S    
C12   C20   A    
C27   C35   A    
C29   C41   A    
O16   V4    S    
C37   H1    S    
C3    O13   A    
S3    O28   D    
C48   C52   T    
C3    C46   S    
O6    C2    A    
C15   C19   A    
O11   V3    S    
C5    C11   S    
O12   V4    S    
C6    C12   S    
C22   C26   A    
C18   S1    S    
C9    C17   A    
C23   F8    S    
O10   C6    A    
O20   V2    S    
C21   F6    S    
C33   C34   A    
C25   C29   A    
C15   F11   S    
O23   H5    S    
C12   C24   A    
C27   C31   A    
C40   H4    S    
C13   C17   A    
O29   H7    S    
C51   C52   S    
C37   C41   A    
C24   C28   A    
S3    O29   S    
S1    O22   D    
C46   C50   T    
C4    O14   A    
C45   C49   T    
S1    O21   D    
C30   C42   A    
C47   C51   T    
S4    O32   S    
O4    V2    S    
C28   C32   A    
