data_mof_unit_9440.cif
_audit_creation_date              2012-12-10T16:37:27-0500
_audit_creation_method            fapswitch 2.2
_symmetry_space_group_name_H-M    P1
_symmetry_Int_Tables_number       1
_space_group_crystal_system       triclinic
_cell_length_a                    16.622711
_cell_length_b                    16.905681
_cell_length_c                    16.933572
_cell_angle_alpha                 65.694712
_cell_angle_beta                  65.668354
_cell_angle_gamma                 65.541377
_cell_volume                      3776.55079035

loop_
_atom_site_label
_atom_site_type_symbol
_atom_type_description
_atom_site_fract_x
_atom_site_fract_y
_atom_site_fract_z
_atom_type_partial_charge
C1    C     C_R   0.452410 0.934147 0.697003 0.459059
C2    C     C_R   0.480071 0.675034 0.927171 0.502620
C3    C     C_3   0.550595 0.699022 0.777580 -0.272652
C4    C     C_3   0.991037 0.698882 0.248202 -0.280681
C5    C     C_3   0.761326 0.512278 0.697134 -0.267767
C6    C     C_3   0.680514 0.197039 0.676259 -0.189796
C7    C     C_3   0.242746 0.910502 0.243827 -0.051752
C8    C     C_3   0.193813 0.677112 0.695323 -0.077349
C9    C     C_3   0.802350 0.310406 0.329260 -0.081094
C10   C     C_3   0.702872 0.677610 0.195280 -0.185073
C11   C     C_3   0.311455 0.322507 0.804874 -0.303779
C12   C     C_R   0.058095 0.549308 0.306717 0.445542
C13   C     C_R   0.911176 0.483898 0.685192 0.459971
C14   C     C_R   0.962278 0.179635 0.438087 0.938561
C15   C     C_R   0.040559 0.820662 0.561049 0.979410
C16   C     C_R   0.179849 0.438859 0.960263 0.955880
C17   C     C_R   0.820487 0.559969 0.042466 0.969650
C18   C     C_R   0.438929 0.959196 0.179203 0.966785
C19   C     C_R   0.570025 0.019668 0.823353 0.978538
C20   C     C_R   0.567398 0.821597 0.026286 0.971169
C21   C     C_R   0.606442 0.942752 0.332165 0.466355
C22   C     C_R   0.429446 0.175759 0.981166 0.996307
C23   C     C_R   0.019607 0.570109 0.823847 0.969199
C24   C     C_R   0.979416 0.430540 0.176608 0.964295
C25   C     C_R   0.820116 0.038735 0.561235 0.948152
C26   C     C_R   0.179735 0.959468 0.438585 0.948174
C27   C     C_R   0.506746 0.939769 0.737641 0.546606
C28   C     C_R   0.560094 0.922224 0.291933 0.510469
C29   C     C_R   0.106964 0.683681 0.449165 0.533798
C30   C     C_R   0.924953 0.301947 0.553717 0.523413
C31   C     C_R   0.689091 0.442499 0.108355 0.528976
C32   C     C_R   0.111079 0.626670 0.405368 0.444900
C33   C     C_R   0.305589 0.550454 0.922228 0.532101
C34   C     C_R   0.307249 0.897914 0.555146 0.497154
C35   C     C_R   0.696413 0.072095 0.447897 0.472623
C36   C     C_R   0.489507 0.258789 0.063984 0.540871
C37   C     C_R   0.492542 0.722798 0.967609 0.633949
C38   C     C_R   0.057030 0.493989 0.265006 0.534501
C39   C     C_R   0.929518 0.524077 0.731221 0.534315
C40   C     C_R   0.558988 0.983053 0.550015 -0.113140
C41   C     C_R   0.470055 0.948538 0.461812 -0.117899
C42   C     C_R   0.012895 0.550810 0.543823 -0.091789
C43   C     C_R   0.939904 0.346234 0.598134 0.450275
C44   C     C_R   0.995189 0.451952 0.453913 -0.098687
C45   C     C_R   0.550436 0.534834 0.022153 -0.086596
C46   C     C_R   0.453294 0.446682 0.999175 -0.075219
C47   C     C_R   0.593096 0.997656 0.454860 -0.002834
C48   C     C_R   0.437137 0.929958 0.557100 -0.087205
C49   C     C_R   0.964106 0.485150 0.593858 -0.088012
C50   C     C_R   0.035971 0.524369 0.402536 -0.083188
C51   C     C_R   0.486796 0.583665 0.971444 -0.116417
C52   C     C_R   0.525048 0.393883 0.042410 -0.091959
C53   C     C_R   0.555661 0.967470 0.413782 -0.000122
C54   C     C_R   0.632240 0.396692 0.113681 0.437969
C55   C     C_R   0.482377 0.946988 0.602228 -0.115758
C56   C     C_R   0.430881 0.542073 0.968129 -0.088047
C57   C     C_R   0.570523 0.439489 0.059028 -0.065294
C58   C     C_R   0.965355 0.428016 0.549875 -0.088134
C59   C     C_R   0.052886 0.568299 0.448687 -0.086400
C60   C     C_R   0.571811 0.988215 0.687975 -0.186652
C61   C     C_R   0.463442 0.936502 0.325439 -0.083062
C62   C     C_R   0.061842 0.670923 0.541824 -0.150464
C63   C     C_R   0.949337 0.327369 0.458487 -0.148906
C64   C     C_R   0.669911 0.536829 0.069545 -0.099771
C65   C     C_R   0.350032 0.593100 0.938969 0.409318
C66   C     C_R   0.329691 0.455586 0.947607 -0.131090
C67   C     C_R   0.332883 0.928321 0.459915 -0.145332
C68   C     C_R   0.674079 0.044184 0.542814 -0.089085
C69   C     C_R   0.427221 0.309309 0.011465 -0.167016
C70   C     C_R   0.559746 0.679322 0.015878 -0.206814
C71   C     C_R   0.007318 0.429625 0.313610 -0.158703
C72   C     C_R   0.992425 0.575585 0.685186 -0.160382
C73   C     C_R   0.607035 0.022321 0.728517 -0.189630
C74   C     C_R   0.410933 0.933327 0.277941 -0.151872
C75   C     C_R   0.063137 0.721309 0.590887 -0.153924
C76   C     C_R   0.366193 0.886397 0.601692 0.454161
C77   C     C_R   0.942747 0.279056 0.409640 -0.187118
C78   C     C_R   0.719376 0.587583 0.070162 -0.181598
C79   C     C_R   0.280454 0.409188 0.939058 -0.183398
C80   C     C_R   0.280750 0.931331 0.409127 -0.127648
C81   C     C_R   0.719872 0.057794 0.589700 -0.168083
C82   C     C_R   0.391160 0.269423 0.978431 -0.189019
C83   C     C_R   0.598885 0.724274 0.041049 -0.181579
C84   C     C_R   0.976459 0.393053 0.271622 -0.181110
C85   C     C_R   0.023978 0.608973 0.728912 -0.181631
C86   C     C_R   0.674910 0.065164 0.675940 0.380862
C87   C     C_R   0.657263 0.049152 0.402603 0.406905
C88   C     C_R   0.324462 0.919347 0.323314 0.365770
C89   C     C_R   0.064943 0.678562 0.679070 0.364845
C90   C     C_R   0.935464 0.323777 0.323221 0.375671
C91   C     C_R   0.673690 0.675058 0.076303 0.393778
C92   C     C_R   0.323939 0.321909 0.934102 0.404008
C93   C     C_R   0.600654 0.006269 0.593263 -0.109609
C94   C     C_R   0.421489 0.939580 0.415094 -0.116522
C95   C     C_R   0.022891 0.598578 0.590049 -0.117374
C96   C     C_R   0.982928 0.403783 0.408930 -0.105620
C97   C     C_R   0.593705 0.583533 0.035848 -0.106034
C98   C     C_R   0.546977 0.297949 0.066796 0.445555
C99   C     C_R   0.404239 0.404033 0.985284 -0.093778
C100  C     C_3   0.300891 0.000600 0.756430 -0.202937
C101  C     C_3   0.746220 0.930202 0.214120 -0.171080
C102  C     C_3   0.253999 0.545272 0.339199 -0.231961
C103  C     C_3   0.022030 0.253840 0.698172 -0.263621
C104  C     C_3   0.555682 0.330379 0.256452 -0.220661
C105  C     C_3   0.250541 0.696543 0.014501 -0.083293
C106  C     C_3   0.409148 0.733491 0.666446 -0.171029
C107  C     C_3   0.753962 0.098665 0.256623 -0.003098
C108  C     C_3   0.698833 0.233265 0.006188 -0.233884
F1    F     F_    0.497733 0.892562 0.825386 -0.601920
F2    F     F_    0.423690 0.801006 0.972115 -0.579452
F3    F     F_    0.109112 0.502506 0.177299 -0.645177
F4    F     F_    0.876215 0.522040 0.817695 -0.642115
F5    F     F_    0.610135 0.872700 0.232262 -0.692638
F6    F     F_    0.160106 0.740902 0.404316 -0.642352
F7    F     F_    0.880409 0.237836 0.606206 -0.649293
F8    F     F_    0.752913 0.396930 0.154320 -0.676044
F9    F     F_    0.241534 0.603745 0.877124 -0.663930
F10   F     F_    0.237507 0.859374 0.602523 -0.659365
F11   F     F_    0.747176 0.131275 0.401141 -0.717624
F12   F     F_    0.495415 0.171112 0.114661 -0.641580
H1    H     H_    0.292715 0.043520 0.688109 0.103223
H2    H     H_    0.067244 0.297994 0.672444 0.130152
H3    H     H_    0.054407 0.200125 0.663195 0.152911
H4    H     H_    0.016185 0.219549 0.771140 0.189393
H5    H     H_    0.559541 0.378722 0.282876 0.124430
H6    H     H_    0.557036 0.265169 0.311128 0.218607
H7    H     H_    0.489070 0.355370 0.240725 0.138119
H8    H     H_    0.288498 0.666965 0.065942 0.141278
H9    H     H_    0.193240 0.666557 0.038581 0.185861
H10   H     H_    0.219276 0.770311 0.007257 0.188087
H11   H     H_    0.481631 0.727853 0.622527 0.091508
H12   H     H_    0.315841 0.037978 0.787184 0.141344
H13   H     H_    0.371611 0.719797 0.634631 0.137427
H14   H     H_    0.410515 0.679593 0.731789 0.215026
H15   H     H_    0.810338 0.041087 0.281926 0.119735
H16   H     H_    0.758403 0.164961 0.249764 0.233118
H17   H     H_    0.764582 0.100127 0.187089 0.149822
H18   H     H_    0.711254 0.300232 0.964242 0.172749
H19   H     H_    0.683597 0.205107 0.966673 0.154982
H20   H     H_    0.763651 0.186095 0.022810 0.173068
H21   H     H_    0.569843 0.629260 0.773500 0.122882
H22   H     H_    0.606875 0.707629 0.790226 0.143751
H23   H     H_    0.233998 0.986941 0.799988 0.196766
H24   H     H_    0.545024 0.747518 0.710716 0.192796
H25   H     H_    0.949228 0.708356 0.316333 0.153851
H26   H     H_    0.950848 0.683890 0.220044 0.149958
H27   H     H_    0.005361 0.764040 0.202810 0.184792
H28   H     H_    0.774797 0.518807 0.625038 0.141138
H29   H     H_    0.744197 0.579970 0.705443 0.145086
H30   H     H_    0.699997 0.487213 0.737284 0.181611
H31   H     H_    0.604287 0.225739 0.688481 0.100887
H32   H     H_    0.700542 0.226673 0.710373 0.223786
H33   H     H_    0.716866 0.217629 0.602567 0.156721
H34   H     H_    0.705125 0.989323 0.171095 0.193824
H35   H     H_    0.178039 0.890730 0.277346 0.211058
H36   H     H_    0.224452 0.985917 0.224967 0.119123
H37   H     H_    0.276499 0.888832 0.181239 0.172496
H38   H     H_    0.215994 0.601752 0.722909 0.105695
H39   H     H_    0.225690 0.698034 0.620629 0.141079
H40   H     H_    0.219664 0.705160 0.725681 0.274393
H41   H     H_    0.772711 0.285242 0.299731 0.267379
H42   H     H_    0.767578 0.384654 0.318274 0.121497
H43   H     H_    0.786879 0.273950 0.403000 0.123518
H44   H     H_    0.629114 0.686337 0.236246 0.166111
H45   H     H_    0.763465 0.866282 0.198765 0.201797
H46   H     H_    0.731568 0.712513 0.215606 0.209435
H47   H     H_    0.743222 0.604495 0.210917 0.107012
H48   H     H_    0.386928 0.313501 0.772596 0.137425
H49   H     H_    0.290877 0.287164 0.777026 0.184853
H50   H     H_    0.271771 0.395662 0.786573 0.141280
H51   H     H_    0.813378 0.941783 0.196076 0.121416
H52   H     H_    0.233959 0.482336 0.362634 0.135419
H53   H     H_    0.282471 0.544852 0.388536 0.145951
H54   H     H_    0.309925 0.545198 0.274261 0.185134
O1    O     O_R   0.982940 0.138950 0.510160 -0.584410
O2    O     O_R   0.982940 0.510160 0.138950 -0.609439
O3    O     O_R   0.861050 0.017060 0.489840 -0.603410
O4    O     O_R   0.138950 0.982940 0.510160 -0.583201
O5    O     O_R   0.867700 0.025880 0.612340 -0.562199
O6    O     O_R   0.132300 0.974120 0.387660 -0.652110
O7    O     O_R   0.025880 0.612340 0.867700 -0.564060
O8    O     O_R   0.974120 0.387660 0.132300 -0.564089
O9    O     O_R   0.612340 0.867700 0.025880 -0.573966
O10   O     O_R   0.387660 0.132300 0.974120 -0.592432
O11   O     O_R   0.387660 0.974120 0.132300 -0.675341
O12   O     O_R   0.017060 0.861050 0.489840 -0.620912
O13   O     O_R   0.612340 0.025880 0.867700 -0.591845
O14   O     O_R   0.132300 0.387660 0.974120 -0.605579
O15   O     O_R   0.867700 0.612340 0.025880 -0.606175
O16   O     O_R   0.974120 0.132300 0.387660 -0.579431
O17   O     O_R   0.025880 0.867700 0.612340 -0.556769
O18   O     O_3   0.369710 0.916900 0.752751 -0.459377
O19   O     O_3   0.702741 0.919765 0.307738 -0.621384
O20   O     O_3   0.179248 0.623802 0.323886 -0.517129
O21   O     O_3   0.932755 0.305115 0.689191 -0.518161
O22   O     O_3   0.631772 0.314838 0.180340 -0.530241
O23   O     O_R   0.138950 0.510160 0.982940 -0.537757
O24   O     O_3   0.310454 0.685111 0.929468 -0.516260
O25   O     O_3   0.364652 0.818987 0.683532 -0.477159
O26   O     O_3   0.665095 0.089629 0.310293 -0.589712
O27   O     O_3   0.627573 0.239543 0.087744 -0.525271
O28   O     O_3   0.464497 0.718234 0.843483 -0.470637
O29   O     O_3   0.075991 0.630580 0.250984 -0.535193
O30   O     O_3   0.836671 0.449267 0.729684 -0.516844
O31   O     O_3   0.706655 0.101774 0.713200 -0.565784
O32   O     O_3   0.300906 0.862578 0.300985 -0.575462
O33   O     O_3   0.096784 0.712095 0.718943 -0.554970
O34   O     O_R   0.861050 0.489840 0.017060 -0.547396
O35   O     O_3   0.898285 0.292805 0.285699 -0.567575
O36   O     O_3   0.711060 0.717255 0.101948 -0.566353
O37   O     O_3   0.290911 0.283648 0.899652 -0.568335
O38   O     O_R   0.510160 0.982940 0.138950 -0.535477
O39   O     O_R   0.489840 0.017060 0.861050 -0.585883
O40   O     O_R   0.489840 0.861050 0.017060 -0.543891
O41   O     O_R   0.510160 0.138950 0.982940 -0.604908
O42   O     O_R   0.017060 0.489840 0.861050 -0.610634
Zn1   Zn    Zn3+2 0.004880 0.004880 0.583590 1.116052
Zn2   Zn    Zn3+2 0.995120 0.995120 0.416410 1.001672
Zn3   Zn    Zn3+2 0.004880 0.583590 0.004880 1.099507
Zn4   Zn    Zn3+2 0.995120 0.416410 0.995120 1.088804
Zn5   Zn    Zn3+2 0.583590 0.004880 0.004880 1.085368
Zn6   Zn    Zn3+2 0.416410 0.995120 0.995120 1.065062

loop_
_geom_bond_atom_site_label_1
_geom_bond_atom_site_label_2
_ccdc_geom_bond_type
O34   Zn4   S    
C48   C55   A    
C15   C75   S    
C46   C99   A    
O8    Zn4   S    
C40   C47   A    
C48   C76   A    
O4    Zn1   S    
C35   F11   S    
C3    H21   S    
C40   C93   A    
C29   F6    S    
C8    H38   S    
O17   Zn1   S    
C5    O30   S    
C72   C85   A    
C33   C65   A    
C102  H53   S    
O10   Zn6   S    
C66   C79   A    
O12   Zn2   S    
C45   C57   A    
C108  O27   S    
C34   C67   A    
C84   C90   A    
C39   F4    S    
C50   C59   A    
C22   C82   S    
C23   O7    A    
C29   C32   A    
C27   C60   A    
C7    O32   S    
C107  O26   S    
C25   O3    A    
C12   O29   S    
C45   C51   A    
C56   C65   A    
C46   C52   A    
C60   C73   A    
C82   C92   A    
C43   O21   S    
C51   C56   A    
C14   C77   S    
C52   C98   A    
C9    H43   S    
C6    O31   S    
C107  H15   S    
C69   C82   A    
O40   Zn6   S    
C43   C58   A    
C11   O37   S    
C38   C71   A    
C5    H29   S    
C35   C87   A    
C10   O36   S    
C106  H13   S    
C7    H36   S    
C9    O35   S    
C10   H47   S    
O2    Zn3   S    
C2    O28   S    
O7    Zn3   S    
C67   C94   A    
C22   O10   A    
C39   C72   A    
O3    Zn2   S    
C81   C86   A    
C70   C97   A    
O9    Zn5   S    
C47   C53   A    
C6    H32   S    
C60   C93   A    
O14   Zn4   S    
C103  H3    S    
C18   C74   S    
C5    H28   S    
C62   C95   A    
O5    Zn1   S    
C25   C81   S    
O1    Zn1   S    
C100  O18   S    
C3    H22   S    
C103  O21   S    
C87   O26   S    
C91   O36   S    
C105  O24   S    
C103  H4    S    
O16   Zn2   S    
C86   O31   S    
C101  O19   S    
C33   C66   A    
O38   Zn5   S    
C26   O4    A    
C102  H52   S    
C106  H11   S    
C15   O12   A    
C77   C90   A    
C54   O22   S    
C104  H5    S    
C24   O8    A    
C42   C95   A    
C72   C95   A    
C19   C73   S    
C32   O20   S    
C16   O14   A    
C44   C58   A    
O23   Zn3   S    
C108  H20   S    
C85   C89   A    
C61   C94   A    
C4    O29   S    
C105  H9    S    
C71   C96   A    
O13   Zn5   S    
C17   O15   A    
C4    H27   S    
C63   C96   A    
C76   O25   S    
C26   C80   S    
C5    H30   S    
C9    H41   S    
C19   O39   A    
C20   O40   A    
C66   C99   A    
C107  H17   S    
C8    O33   S    
C18   O38   A    
C1    O18   S    
C14   O1    A    
C44   C96   A    
C90   O35   S    
O39   Zn6   S    
C41   C94   A    
C10   H46   S    
C40   C55   A    
C4    H26   S    
C33   F9    S    
C104  O22   S    
C104  H6    S    
C8    H40   S    
C101  H45   S    
C70   C83   A    
C3    H24   S    
C41   C53   A    
C79   C92   A    
C20   O9    A    
C13   C49   A    
C6    H31   S    
C69   C99   A    
C64   C97   A    
C21   C28   A    
C11   H49   S    
O11   Zn6   S    
C11   H48   S    
C78   C91   A    
C62   C75   A    
C20   C83   S    
C37   F2    S    
C68   C81   A    
C52   C57   A    
C24   O2    A    
C12   C38   A    
C31   F8    S    
C34   F10   S    
C36   C69   A    
C71   C84   A    
C63   C77   A    
C44   C50   A    
C98   O27   S    
C15   O17   A    
C29   C62   A    
C100  H1    S    
C10   H44   S    
C105  H8    S    
C64   C78   A    
C31   C64   A    
C17   O34   A    
C107  H16   S    
C67   C80   A    
O42   Zn4   S    
C88   O32   S    
C100  H23   S    
C42   C59   A    
C108  H19   S    
C12   C50   A    
C30   F7    S    
C25   O5    A    
C105  H10   S    
C7    H37   S    
C26   O6    A    
C61   C74   A    
C102  H54   S    
C83   C91   A    
C18   O11   A    
C68   C93   A    
O41   Zn5   S    
C13   O30   S    
C16   C79   S    
C74   C88   A    
C35   C68   A    
C36   C98   A    
C24   C84   S    
C23   O42   A    
C80   C88   A    
C45   C97   A    
C100  H12   S    
C28   C61   A    
C108  H18   S    
C8    H39   S    
C2    C37   A    
O6    Zn2   S    
C89   O33   S    
C104  H7    S    
C101  H34   S    
C4    H25   S    
C21   C53   A    
C30   C63   A    
C17   C78   S    
C41   C48   A    
C101  H51   S    
C31   C54   A    
C1    C55   A    
C9    H42   S    
C30   C43   A    
C73   C86   A    
C13   C39   A    
C6    H33   S    
C2    C51   A    
C49   C58   A    
C42   C49   A    
C28   F5    S    
C65   O24   S    
C14   O16   A    
C102  O20   S    
C106  H14   S    
C7    H35   S    
C27   F1    S    
C11   H50   S    
C23   C85   S    
C75   C89   A    
C46   C56   A    
C1    C27   A    
C3    O28   S    
C92   O37   S    
C19   O13   A    
C32   C59   A    
C21   O19   S    
C38   F3    S    
C22   O41   A    
C103  H2    S    
C36   F12   S    
C37   C70   A    
C16   O23   A    
O15   Zn3   S    
C34   C76   A    
C106  O25   S    
C54   C57   A    
C47   C87   A    
