data_mof_unit_52777.cif
_audit_creation_date              2012-10-26T18:29:55-0400
_audit_creation_method            fapswitch 2.2
_symmetry_space_group_name_H-M    P1
_symmetry_Int_Tables_number       1
_space_group_crystal_system       triclinic
_cell_length_a                    10.78338
_cell_length_b                    13.014131
_cell_length_c                    11.655335
_cell_angle_alpha                 99.606509
_cell_angle_beta                  93.880138
_cell_angle_gamma                 90.363538
_cell_volume                      1608.77465217

loop_
_atom_site_label
_atom_site_type_symbol
_atom_type_description
_atom_site_fract_x
_atom_site_fract_y
_atom_site_fract_z
_atom_type_partial_charge
C1    C     C_R   0.496173 0.299210 0.479201 0.572041
C2    C     C_R   0.459334 0.029547 0.552910 0.003129
C3    C     C_R   0.512734 0.970608 0.454572 0.017052
C4    C     C_R   0.259929 0.504293 0.500629 0.637903
C5    C     C_R   0.525477 0.863535 0.447677 -0.121540
C6    C     C_R   0.425749 0.868044 0.628891 0.245074
C7    C     C_R   0.419088 0.977404 0.642728 0.122666
C8    C     C_R   0.364087 0.419601 0.024824 0.046670
C9    C     C_R   0.380760 0.424610 0.146321 0.089833
C10   C     C_R   0.559481 0.532863 0.155864 0.104092
C11   C     C_R   0.548700 0.529354 0.033270 0.041411
C12   C     C_3   0.877465 0.500166 0.497776 -0.014368
C13   C     C_R   0.449602 0.471558 0.966557 -0.032265
C14   C     C_R   0.439664 0.467819 0.843942 0.056393
C15   C     C_R   0.618422 0.576358 0.853850 0.072982
C16   C     C_R   0.496912 0.700480 0.521245 0.602755
C17   C     C_R   0.633845 0.582692 0.976403 0.218339
C18   C     C_R   0.740009 0.497758 0.499341 0.579116
C19   C     C_3   0.079742 0.505408 0.626468 0.032079
C20   C     C_3   0.937692 0.515548 0.625783 -0.318428
C21   C     C_3   0.066283 0.606042 0.453240 0.368140
C22   C     C_3   0.068109 0.401843 0.424736 0.043655
C23   C     C_3   0.919853 0.591945 0.434476 0.429910
C24   C     C_3   0.121945 0.506311 0.500006 0.032316
C25   C     C_3   0.925432 0.392990 0.434988 0.000717
C26   C     C_R   0.483815 0.812902 0.533903 0.011162
C27   C     C_R   0.495865 0.186026 0.469181 -0.004864
C28   C     C_R   0.554542 0.018943 0.364381 0.256155
C29   C     C_R   0.545982 0.126753 0.373045 -0.143647
C30   C     C_R   0.449267 0.138075 0.557493 0.226274
Cu1   Cu    Cu3+1 0.509350 0.507730 0.615930 1.021919
Cu2   Cu    Cu3+1 0.490650 0.492270 0.384070 1.044598
H1    H     H_    0.568640 0.818344 0.374704 0.212655
H2    H     H_    0.110994 0.335859 0.461985 0.161662
H3    H     H_    0.910105 0.334882 0.493060 0.097852
H4    H     H_    0.125031 0.567228 0.787668 0.346940
H5    H     H_    0.868959 0.626144 0.279701 0.394303
H6    H     H_    0.300544 0.847917 0.735373 0.366549
H7    H     H_    0.629291 0.005698 0.214792 0.349464
H8    H     H_    0.448986 0.230162 0.701789 0.347836
H9    H     H_    0.781466 0.671459 0.987867 0.334573
H10   H     H_    0.046832 0.707077 0.598778 0.365482
H11   H     H_    0.837362 0.690323 0.555005 0.299354
H12   H     H_    0.580624 0.164800 0.305401 0.152852
H13   H     H_    0.049736 0.433795 0.266011 0.397709
H14   H     H_    0.366076 0.423016 0.790319 0.173416
H15   H     H_    0.105421 0.428864 0.652142 0.139629
H16   H     H_    0.683140 0.616712 0.809133 0.116624
H17   H     H_    0.315416 0.384494 0.190467 0.200110
H18   H     H_    0.633448 0.578108 0.208793 0.202554
H19   H     H_    0.901417 0.455253 0.673005 0.141264
H20   H     H_    0.912772 0.591723 0.676419 0.146352
I1    I     I_    0.824984 0.315373 0.275023 -0.229343
I2    I     I_    0.143033 0.642264 0.294949 -0.163994
I3    I     I_    0.366594 0.054566 0.810267 -0.217745
I4    I     I_    0.205039 0.336284 0.938369 -0.288520
N1    N     N_R   0.523430 0.519360 0.790130 -0.257534
N2    N     N_R   0.476570 0.480640 0.209880 -0.273287
O1    O     O_R   0.506640 0.354460 0.582000 -0.508138
O2    O     O_3   0.884857 0.562437 0.314545 -0.653493
O3    O     O_3   0.376446 0.812783 0.707043 -0.617664
O4    O     O_3   0.604849 0.959622 0.269491 -0.662431
O5    O     O_3   0.384868 0.197012 0.641694 -0.651614
O6    O     O_3   0.730761 0.639712 0.041112 -0.692542
O7    O     O_3   0.102063 0.696837 0.533654 -0.611612
O8    O     O_3   0.860484 0.687309 0.473844 -0.672449
O9    O     O_3   0.101414 0.388147 0.308534 -0.652107
O10   O     O_R   0.490840 0.341410 0.386200 -0.504751
O11   O     O_R   0.325590 0.506510 0.597900 -0.457328
O12   O     O_R   0.309790 0.493450 0.402100 -0.477118
O13   O     O_R   0.509160 0.658590 0.613800 -0.441801
O14   O     O_R   0.493360 0.645540 0.418000 -0.514495
O15   O     O_R   0.690210 0.506550 0.597900 -0.552266
O16   O     O_R   0.674410 0.493490 0.402100 -0.442654
O17   O     O_3   0.138138 0.584960 0.709683 -0.645563

loop_
_geom_bond_atom_site_label_1
_geom_bond_atom_site_label_2
_ccdc_geom_bond_type
C8    C13   A    
C27   C29   A    
C19   C20   S    
C16   O14   A    
C7    I3    S    
C8    I4    S    
C4    O12   A    
Cu2   O14   S    
C12   C23   S    
C28   C29   A    
H8    O5    S    
C6    O3    S    
C3    C28   A    
C10   N2    A    
C25   I1    S    
C20   H19   S    
C1    O1    A    
C17   O6    S    
Cu2   O16   S    
C21   I2    S    
C4    C24   S    
C19   H15   S    
Cu1   O15   S    
C1    O10   A    
C9    N2    A    
Cu1   O1    S    
H7    O4    S    
C2    C7    A    
C8    C9    A    
C22   C25   S    
C5    H1    S    
H13   O9    S    
H10   O7    S    
Cu2   N2    S    
Cu2   O10   S    
H6    O3    S    
Cu1   O13   S    
C18   O16   A    
C13   C14   A    
C27   C30   A    
C15   N1    A    
C16   O13   A    
C15   H16   S    
C4    O11   A    
C16   C26   S    
C23   O2    S    
C22   H2    S    
C9    H17   S    
C14   H14   S    
Cu2   O12   S    
H4    O17   S    
Cu1   Cu2   S    
C12   C20   S    
C25   H3    S    
C18   O15   A    
C21   C23   S    
C29   H12   S    
C22   C24   S    
C10   H18   S    
C23   O8    S    
C15   C17   A    
C14   N1    A    
C11   C17   A    
C21   O7    S    
C3    C5    A    
C6    C7    A    
C12   C25   S    
C2    C30   A    
Cu1   N1    S    
C19   O17   S    
C2    C3    A    
C20   H20   S    
C11   C13   A    
C6    C26   A    
H11   O8    S    
C19   C24   S    
C22   O9    S    
H5    O2    S    
C10   C11   A    
C5    C26   A    
Cu1   O11   S    
C21   C24   S    
C12   C18   S    
C1    C27   S    
H9    O6    S    
C30   O5    S    
C28   O4    S    
