data_mof_unit_8075.cif
_audit_creation_date              2012-12-10T18:05:10-0500
_audit_creation_method            fapswitch 2.2
_symmetry_space_group_name_H-M    P1
_symmetry_Int_Tables_number       1
_space_group_crystal_system       triclinic
_cell_length_a                    9.629851
_cell_length_b                    10.887018
_cell_length_c                    17.089636
_cell_angle_alpha                 86.131243
_cell_angle_beta                  96.226016
_cell_angle_gamma                 90.206893
_cell_volume                      1777.04476201

loop_
_atom_site_label
_atom_site_type_symbol
_atom_type_description
_atom_site_fract_x
_atom_site_fract_y
_atom_site_fract_z
_atom_type_partial_charge
C1    C     C_R   0.498292 0.263554 0.492770 0.801363
C2    C     C_R   0.501189 0.737267 0.505325 0.806173
C3    C     C_R   0.376314 0.937467 0.515703 0.079067
C4    C     C_R   0.619896 0.064902 0.475938 0.081476
C5    C     C_R   0.502228 0.872418 0.509746 -0.133397
C6    C     C_R   0.495536 0.129616 0.484341 -0.133443
C7    C     C_R   0.086224 0.422683 0.551128 0.022954
C8    C     C_R   0.913654 0.574331 0.446584 0.058186
C9    C     C_R   0.940223 0.431336 0.557242 0.190755
C10   C     C_R   0.062216 0.575345 0.445885 0.187828
C11   C     C_R   0.519236 0.497721 0.651056 0.791955
C12   C     C_R   0.480542 0.499935 0.349118 0.794796
C13   C     C_R   0.529803 0.496373 0.737674 -0.046714
C14   C     C_R   0.467990 0.496541 0.262843 -0.057935
C15   C     C_R   0.417620 0.540813 0.773672 -0.233330
C16   C     C_R   0.583894 0.525809 0.222317 -0.221834
C17   C     C_R   0.422096 0.535971 0.855325 -0.197735
C18   C     C_R   0.574075 0.523937 0.140891 -0.203176
C19   C     C_R   0.539066 0.485275 0.903136 0.356571
C20   C     C_R   0.447310 0.492718 0.097603 0.357642
C21   C     C_R   0.652248 0.440490 0.867449 0.149364
C22   C     C_R   0.329936 0.463594 0.137953 0.144447
C23   C     C_R   0.645971 0.445620 0.785058 -0.266854
C24   C     C_R   0.342759 0.462247 0.220546 -0.265558
C25   C     C_R   0.370986 0.063651 0.493636 -0.065527
C26   C     C_R   0.626210 0.938807 0.498294 -0.065917
Cu1   Cu    Cu3+1 0.640660 0.500020 0.500000 0.956699
Cu2   Cu    Cu3+1 0.359340 0.499980 0.500000 0.948954
H1    H     H_    0.682813 0.550700 0.253374 0.176425
H2    H     H_    0.325753 0.579568 0.738650 0.161310
H3    H     H_    0.665675 0.548632 0.111803 0.161625
H4    H     H_    0.334332 0.572856 0.880884 0.158856
H5    H     H_    0.729629 0.405318 0.758751 0.155880
H6    H     H_    0.255325 0.433694 0.251809 0.163272
N1    N     N_2   0.548696 0.482201 0.986685 -0.269824
N2    N     N_2   0.434653 0.492107 0.014019 -0.264388
N3    N     N_R   0.852070 0.500030 0.499980 -0.205892
N4    N     N_R   0.147930 0.499970 0.500020 -0.212371
O1    O     O_R   0.618740 0.319660 0.500000 -0.577025
O2    O     O_R   0.381260 0.680340 0.500000 -0.608270
O3    O     O_R   0.381170 0.319630 0.500010 -0.564448
O4    O     O_R   0.618830 0.680370 0.499990 -0.562991
O5    O     O_R   0.631780 0.498870 0.613920 -0.588152
O6    O     O_R   0.368220 0.501130 0.386080 -0.584417
O7    O     O_R   0.394210 0.498840 0.613930 -0.580463
O8    O     O_R   0.605790 0.501160 0.386070 -0.583712
C27   C     C_3   0.778958 0.383945 0.916477 -0.416364
C28   C     C_3   0.750135 0.251737 0.945637 -0.797207
H7    H     H_    0.663422 0.248782 0.983586 0.264073
H8    H     H_    0.722222 0.194748 0.894746 0.249085
H9    H     H_    0.845190 0.212159 0.980782 0.236921
H10   H     H_    0.869740 0.383835 0.881411 0.196958
H11   H     H_    0.809411 0.439493 0.967654 0.206040
C29   C     C_3   0.190488 0.434465 0.093826 -0.403721
C30   C     C_3   0.117118 0.552264 0.057741 -0.820336
H12   H     H_    0.100470 0.614769 0.104677 0.252058
H13   H     H_    0.179753 0.600557 0.014339 0.258059
H14   H     H_    0.014033 0.529340 0.026947 0.230450
H15   H     H_    0.204933 0.371412 0.046824 0.213827
H16   H     H_    0.121557 0.386426 0.134131 0.197240
C31   C     C_1   0.235258 0.120912 0.470672 0.266376
N5    N     N_1   0.126850 0.165626 0.451771 -0.322062
C32   C     C_1   0.763060 0.882900 0.519319 0.270696
N6    N     N_1   0.872524 0.839443 0.536759 -0.330068
C33   C     C_3   0.251869 0.878567 0.553045 -0.340758
C34   C     C_3   0.293990 0.826897 0.637707 -0.787460
H17   H     H_    0.201531 0.784955 0.662493 0.234726
H18   H     H_    0.376246 0.755444 0.640491 0.244057
H19   H     H_    0.333599 0.902153 0.674807 0.247788
H20   H     H_    0.167822 0.946269 0.557521 0.209001
H21   H     H_    0.199540 0.808180 0.516703 0.220034
C35   C     C_3   0.739991 0.124351 0.434806 -0.354317
C36   C     C_3   0.689886 0.177214 0.351361 -0.776988
H22   H     H_    0.642963 0.103233 0.315420 0.246315
H23   H     H_    0.611329 0.251101 0.352033 0.243796
H24   H     H_    0.779939 0.216758 0.322952 0.239875
H25   H     H_    0.795316 0.195245 0.469409 0.232603
H26   H     H_    0.822488 0.056464 0.427588 0.208367
C37   C     C_1   0.171936 0.333611 0.601268 0.341682
N7    N     N_1   0.239162 0.262017 0.641850 -0.305748
C38   C     C_1   0.827415 0.661337 0.395359 0.333617
N8    N     N_1   0.759520 0.732045 0.354423 -0.324103
C39   C     C_3   0.898190 0.390606 0.638318 -0.348757
C40   C     C_3   0.824570 0.266036 0.643765 -0.759367
H27   H     H_    0.863182 0.202679 0.602743 0.236174
H28   H     H_    0.710029 0.276259 0.633237 0.265911
H29   H     H_    0.847081 0.222365 0.704472 0.213247
H30   H     H_    0.990838 0.381777 0.683026 0.147635
H31   H     H_    0.848805 0.467125 0.663157 0.209355
C41   C     C_3   0.120007 0.660726 0.382823 -0.364111
C42   C     C_3   0.079129 0.619027 0.299571 -0.854625
H32   H     H_    0.157165 0.652553 0.259883 0.250007
H33   H     H_    0.072946 0.517197 0.300394 0.253241
H34   H     H_    0.976400 0.657611 0.274230 0.243428
H35   H     H_    0.080850 0.755934 0.386197 0.167669
H36   H     H_    0.232796 0.670184 0.390605 0.263457

loop_
_geom_bond_atom_site_label_1
_geom_bond_atom_site_label_2
_ccdc_geom_bond_type
C34   H18   S    
C30   H12   S    
C5    C26   A    
C36   H22   S    
N1    N2    D    
C40   H29   S    
C38   N8    T    
C41   H35   S    
C22   C29   S    
C29   H16   S    
C19   C21   A    
C40   H28   S    
C34   H19   S    
Cu2   O2    S    
C33   H20   S    
Cu2   O3    S    
C13   C23   A    
C7    C9    A    
C14   C24   A    
C35   H26   S    
C28   H9    S    
C39   C40   S    
Cu1   O1    S    
C23   H5    S    
C11   O5    A    
C18   C20   A    
C27   H11   S    
C28   H8    S    
C39   H30   S    
C36   H23   S    
C3    C33   S    
C29   H15   S    
C39   H31   S    
Cu2   O7    S    
C8    C38   S    
C3    C25   A    
C40   H27   S    
C12   O8    A    
C4    C6    A    
C42   H32   S    
C16   H1    S    
C33   H21   S    
Cu2   O6    S    
C24   H6    S    
C32   N6    T    
C26   C32   S    
C35   H25   S    
Cu1   O5    S    
C42   H33   S    
C27   C28   S    
C13   C15   A    
Cu2   N4    S    
C9    N3    A    
C25   C31   S    
C9    C39   S    
Cu1   O8    S    
C1    O3    A    
C28   H7    S    
C20   C22   A    
C30   H13   S    
C36   H24   S    
C14   C16   A    
C11   O7    A    
C2    C5    S    
C8    N3    A    
C4    C35   S    
C15   H2    S    
C7    C37   S    
C15   C17   A    
C29   C30   S    
C8    C10   A    
C12   C14   S    
C35   C36   S    
C3    C5    A    
C4    C26   A    
C41   H36   S    
C27   H10   S    
C10   N4    A    
C21   C23   A    
C12   O6    A    
C19   N1    S    
C42   H34   S    
C6    C25   A    
C11   C13   S    
Cu1   O4    S    
C41   C42   S    
C2    O4    A    
C17   C19   A    
C7    N4    A    
C34   H17   S    
C22   C24   A    
C31   N5    T    
C1    O1    A    
C37   N7    T    
C20   N2    S    
C2    O2    A    
C10   C41   S    
C16   C18   A    
C33   C34   S    
C30   H14   S    
C1    C6    S    
C17   H4    S    
C18   H3    S    
C21   C27   S    
Cu1   N3    S    
Cu1   Cu2   S    
