data_mof_unit_59535.cif
_audit_creation_date              2012-12-11T14:17:37-0500
_audit_creation_method            fapswitch 2.2
_symmetry_space_group_name_H-M    P1
_symmetry_Int_Tables_number       1
_space_group_crystal_system       triclinic
_cell_length_a                    6.943369
_cell_length_b                    13.625798
_cell_length_c                    20.389562
_cell_angle_alpha                 102.029275
_cell_angle_beta                  90.616933
_cell_angle_gamma                 90.439512
_cell_volume                      1886.46938351

loop_
_atom_site_label
_atom_site_type_symbol
_atom_type_description
_atom_site_fract_x
_atom_site_fract_y
_atom_site_fract_z
_atom_type_partial_charge
O1    O     O_R   0.506860 0.599390 0.449240 -0.538964
O2    O     O_R   0.180220 0.594600 0.586780 -0.535899
O3    O     O_R   0.004500 0.400610 0.550760 -0.549398
C1    C     C_R   0.349944 0.613610 0.614089 0.797092
O4    O     O_R   0.177490 0.611290 0.451970 -0.521317
O5    O     O_R   0.001750 0.417420 0.414990 -0.544251
C2    C     C_R   0.346033 0.638302 0.435350 0.827268
O6    O     O_R   0.509610 0.582580 0.585010 -0.536311
O7    O     O_3   0.337420 0.436370 0.488020 -0.392457
V1    V     V_3+5 0.064680 0.511800 0.502220 1.529199
O8    O     O_R   0.671710 0.405400 0.413220 -0.551789
C3    C     C_R   0.839250 0.384178 0.386458 0.738597
O9    O     O_R   0.674440 0.388710 0.548030 -0.546978
C4    C     C_R   0.843803 0.361464 0.564315 0.674510
V2    V     V_3+5 0.564010 0.488200 0.497780 1.478572
O10   O     O_3   0.841140 0.563630 0.511980 -0.356325
C5    C     C_R   0.937652 0.115862 0.613741 -0.053791
H1    H     H_    0.928699 0.165691 0.520668 0.114231
H2    H     H_    0.994211 0.995121 0.698428 0.195538
H3    H     H_    0.977673 0.040347 0.589575 0.186973
C6    C     C_R   0.856436 0.284350 0.604286 -0.038265
C7    C     C_R   0.805849 0.311634 0.927271 -0.160317
C8    C     C_R   0.779063 0.386070 0.890907 -0.066503
C9    C     C_R   0.799450 0.364685 0.821511 -0.147023
C10   C     C_R   0.849414 0.267249 0.786459 0.073699
C11   C     C_R   0.882347 0.191960 0.824399 0.059978
C12   C     C_R   0.866309 0.241849 0.715137 0.071682
C13   C     C_R   0.918670 0.142554 0.683669 0.091944
C14   C     C_R   0.953476 0.070781 0.722092 -0.059219
C15   C     C_R   0.935895 0.094921 0.791293 -0.117538
C16   C     C_R   0.833950 0.311611 0.673723 -0.201646
C17   C     C_R   0.908606 0.186689 0.574377 -0.155742
C18   C     C_R   0.857512 0.214953 0.894813 -0.078237
H4    H     H_    0.795602 0.388402 0.693674 0.092732
H5    H     H_    0.785036 0.329284 0.981039 0.124260
H6    H     H_    0.774456 0.426256 0.797024 0.115915
H7    H     H_    0.739702 0.460859 0.916620 0.167030
H8    H     H_    0.963328 0.036223 0.818610 0.138156
C19   C     C_2   0.004736 0.289851 0.285239 -0.076122
C20   C     C_2   0.841288 0.315946 0.319596 -0.289598
H9    H     H_    0.141674 0.319139 0.307565 0.142388
H10   H     H_    0.702737 0.287287 0.298984 0.124777
C21   C     C_2   0.014199 0.221748 0.217679 -0.102180
C22   C     C_2   0.859453 0.183581 0.180219 -0.290272
H11   H     H_    0.157263 0.203188 0.198142 0.133113
H12   H     H_    0.715231 0.201517 0.198252 0.129365
C23   C     C_2   0.232038 0.763308 0.791017 -0.233066
C24   C     C_2   0.355385 0.840502 0.813780 0.239415
H13   H     H_    0.136681 0.738805 0.826500 0.139768
C25   C     C_2   0.212669 0.708607 0.720180 -0.041446
C26   C     C_2   0.366215 0.674786 0.682793 -0.180672
H14   H     H_    0.068310 0.687732 0.701015 0.149502
H15   H     H_    0.509759 0.688489 0.704476 0.172039
C27   C     C_R   0.335950 0.891367 0.387652 -0.237466
H16   H     H_    0.348197 0.015285 0.303483 0.116285
H17   H     H_    0.332945 0.970302 0.411308 0.163172
C28   C     C_R   0.352472 0.717455 0.396484 -0.200423
C29   C     C_R   0.338239 0.683515 0.071363 0.318873
C30   C     C_R   0.297710 0.609646 0.107138 -0.154215
C31   C     C_R   0.281348 0.632847 0.176846 0.320894
C32   C     C_R   0.323927 0.732074 0.213509 0.014301
C33   C     C_R   0.347206 0.809119 0.176061 -0.038237
C34   C     C_R   0.336449 0.759487 0.285312 0.129160
C35   C     C_R   0.337203 0.862541 0.317406 0.068012
C36   C     C_R   0.344786 0.936447 0.279360 -0.165052
C37   C     C_R   0.356542 0.910302 0.210086 -0.144138
C38   C     C_R   0.359480 0.688906 0.326494 -0.213835
C39   C     C_R   0.339145 0.819466 0.427564 0.371039
C40   C     C_R   0.355434 0.784000 0.105017 -0.165976
H18   H     H_    0.390174 0.611441 0.305584 0.185079
H19   H     H_    0.268524 0.533738 0.079906 0.191147
H20   H     H_    0.369836 0.970761 0.183332 0.098730
O11   O     O_R   0.203230 0.917310 0.915020 -0.552081
O12   O     O_R   0.535500 0.888690 0.048040 -0.537212
O13   O     O_R   0.711080 0.082610 0.085000 -0.552474
C41   C     C_R   0.366851 0.862439 0.065315 0.787123
O14   O     O_R   0.532630 0.905370 0.913230 -0.510575
O15   O     O_R   0.708190 0.099410 0.949230 -0.524927
C42   C     C_R   0.363314 0.887856 0.885675 0.697811
O16   O     O_R   0.206120 0.900510 0.050790 -0.538098
O17   O     O_3   0.375360 0.063570 0.011990 -0.384232
V3    V     V_3+5 0.648170 0.988200 0.997780 1.536256
O18   O     O_R   0.038240 0.111390 0.951940 -0.552730
C43   C     C_R   0.869119 0.137544 0.934848 0.705612
O19   O     O_R   0.041120 0.094710 0.086750 -0.547045
C44   C     C_R   0.873036 0.115822 0.113501 0.726101
V4    V     V_3+5 0.148810 0.011930 0.002180 1.466762
O20   O     O_3   0.871750 0.936430 0.988010 -0.362098
S1    S     S_3+6 0.488131 0.902639 0.760156 0.024945
O21   O     O_2   0.684264 0.856801 0.748810 -0.329823
O22   O     O_2   0.386833 0.895522 0.693788 -0.263185
O23   O     O_3   0.514912 0.024407 0.797174 -0.502487
H21   H     H_    0.382711 0.051671 0.800365 0.315283
S2    S     S_3+6 0.335787 0.858692 0.516014 0.027207
O24   O     O_2   0.348603 0.971104 0.536874 -0.333585
O25   O     O_2   0.151533 0.823159 0.541771 -0.313523
O26   O     O_3   0.522253 0.807834 0.549888 -0.460626
H22   H     H_    0.638419 0.832714 0.530455 0.346465
Cl1   Cl    Cl    0.349330 0.648639 0.983207 -0.682310
Cl2   Cl    Cl    0.166094 0.538953 0.210844 -0.686321

loop_
_geom_bond_atom_site_label_1
_geom_bond_atom_site_label_2
_ccdc_geom_bond_type
O18   V4    S    
V4    O20   S    
C1    O6    A    
O17   V3    S    
C19   H9    S    
O19   C44   A    
C7    H5    S    
C6    C16   A    
C9    H6    S    
O12   C41   A    
C4    C6    S    
C13   C14   A    
O12   V3    S    
O16   V4    S    
O5    C3    A    
C27   C39   A    
V2    O10   S    
C5    H3    S    
C15   H8    S    
C40   C41   S    
C32   C34   A    
O11   V4    S    
O13   C44   A    
O8    V2    S    
C37   H20   S    
O18   C43   A    
C25   H14   S    
C8    C9    A    
O1    V2    S    
S1    O22   D    
O7    V1    S    
C20   H10   S    
C30   C31   A    
O9    C4    A    
S2    O24   D    
C28   C38   A    
C22   C44   S    
H16   C36   S    
C22   H12   S    
O26   H22   S    
C23   C25   S    
C34   C38   A    
O19   V4    S    
C6    C17   A    
C27   H17   S    
C33   C37   A    
C1    C26   S    
C12   C16   A    
O14   C42   A    
C9    C10   A    
C23   H13   S    
C19   C20   D    
O4    C2    A    
C19   C21   S    
S2    O26   S    
C29   C30   A    
C8    H7    S    
C39   S2    S    
C33   C40   A    
C31   C32   A    
C26   H15   S    
C3    C20   S    
O2    C1    A    
C21   C22   D    
C14   C15   A    
O15   V3    S    
C11   C18   A    
C23   C24   D    
C25   C26   D    
O11   C42   A    
C16   H4    S    
C29   C40   A    
S1    O23   S    
S2    O25   D    
C21   H11   S    
O17   V4    S    
O3    C4    A    
C11   C15   A    
O6    V2    S    
C24   S1    S    
O9    V2    S    
H1    C17   S    
C28   C39   A    
O2    V1    S    
C24   C42   S    
C7    C18   A    
O1    C2    A    
C5    C13   A    
C29   Cl1   S    
C41   O16   A    
C31   Cl2   S    
O5    V1    S    
O8    C3    A    
O13   V3    S    
C10   C12   A    
C38   H18   S    
C35   C36   A    
C10   C11   A    
O4    V1    S    
O3    V1    S    
V1    O10   S    
C27   C35   A    
O14   V3    S    
V3    O20   S    
O23   H21   S    
O7    V2    S    
C32   C33   A    
C18   C43   S    
C34   C35   A    
O15   C43   A    
C36   C37   A    
C12   C13   A    
C5    C17   A    
C7    C8    A    
S1    O21   D    
C2    C28   S    
C30   H19   S    
H2    C14   S    
