data_mof_unit_24924.cif
_audit_creation_date              2012-12-10T17:42:10-0500
_audit_creation_method            fapswitch 2.2
_symmetry_space_group_name_H-M    P1
_symmetry_Int_Tables_number       1
_space_group_crystal_system       triclinic
_cell_length_a                    15.015579
_cell_length_b                    13.771729
_cell_length_c                    10.730564
_cell_angle_alpha                 90.01722
_cell_angle_beta                  89.177219
_cell_angle_gamma                 89.580827
_cell_volume                      2218.69018093

loop_
_atom_site_label
_atom_site_type_symbol
_atom_type_description
_atom_site_fract_x
_atom_site_fract_y
_atom_site_fract_z
_atom_type_partial_charge
C1    C     C_R   0.329067 0.500369 0.499875 0.795519
C2    C     C_3   0.585091 0.453134 0.926521 -0.380337
C3    C     C_R   0.815367 0.459454 0.408174 -0.242331
C4    C     C_R   0.767788 0.499321 0.508025 -0.095299
C5    C     C_R   0.812102 0.539682 0.610487 -0.097136
C6    C     C_R   0.906325 0.531689 0.617000 0.019717
C7    C     C_R   0.953771 0.497270 0.509734 0.036176
C8    C     C_R   0.907734 0.461116 0.406100 0.094723
C9    C     C_R   0.955563 0.558350 0.724338 -0.013376
C10   C     C_R   0.048422 0.562740 0.716711 -0.243902
C11   C     C_R   0.094273 0.533964 0.608898 0.106597
C12   C     C_R   0.498692 0.500145 0.259770 0.763423
C13   C     C_R   0.047400 0.499302 0.505219 0.051382
C14   C     C_R   0.094368 0.467782 0.396529 0.064200
C15   C     C_R   0.046738 0.435995 0.291526 -0.006002
C16   C     C_R   0.954143 0.429470 0.299586 -0.242134
C17   C     C_R   0.187001 0.536050 0.605209 -0.244587
C18   C     C_R   0.232995 0.501429 0.500568 -0.044738
C19   C     C_R   0.187730 0.467251 0.397083 -0.248673
C20   C     C_R   0.451102 0.793484 0.587410 0.021285
C21   C     C_R   0.450867 0.207328 0.587208 0.016050
C22   C     C_R   0.547173 0.792983 0.410306 0.107078
C23   C     C_R   0.546970 0.205942 0.410375 0.107864
C24   C     C_R   0.538245 0.895881 0.397524 -0.089927
C25   C     C_R   0.537828 0.103262 0.397459 -0.090388
C26   C     C_R   0.671085 0.499801 0.501807 0.827993
C27   C     C_R   0.493325 0.948185 0.493487 0.065634
C28   C     C_R   0.493166 0.051755 0.493450 0.064607
C29   C     C_R   0.449289 0.896702 0.590054 -0.055207
C30   C     C_R   0.449046 0.104079 0.589900 -0.055979
C31   C     C_R   0.570055 0.948031 0.291517 -0.070389
C32   C     C_R   0.569604 0.050626 0.291376 -0.068840
C33   C     C_R   0.403874 0.052298 0.685557 -0.055340
C34   C     C_R   0.404101 0.949275 0.685722 -0.055866
C35   C     C_R   0.499258 0.500156 0.740181 0.753064
C36   C     C_3   0.493347 0.606344 0.071205 -0.354760
C37   C     C_3   0.415894 0.444850 0.073199 -0.367059
C38   C     C_3   0.492043 0.606289 0.928640 -0.353266
C39   C     C_3   0.417455 0.443052 0.929177 -0.367433
C40   C     C_3   0.583662 0.451328 0.070065 -0.366496
C41   C     C_3   0.497794 0.500672 0.121691 0.125277
C42   C     C_3   0.498478 0.500668 0.878049 0.136165
Cu1   Cu    Cu3+1 0.499990 0.597420 0.500010 0.956710
Cu2   Cu    Cu3+1 0.499990 0.402580 0.500010 0.948776
H1    H     H_    0.552120 0.647993 0.102386 0.204317
H2    H     H_    0.416118 0.369002 0.108995 0.186644
H3    H     H_    0.085462 0.584934 0.797718 0.150377
H4    H     H_    0.223740 0.561917 0.684878 0.119453
H5    H     H_    0.226049 0.440235 0.317895 0.141644
H6    H     H_    0.917810 0.403189 0.220029 0.155724
H7    H     H_    0.415071 0.751892 0.656832 0.137921
H8    H     H_    0.414777 0.249527 0.656573 0.140533
H9    H     H_    0.432569 0.644081 0.107831 0.174141
H10   H     H_    0.353394 0.480355 0.107489 0.157904
H11   H     H_    0.429455 0.641624 0.896633 0.170141
H12   H     H_    0.354850 0.475246 0.893204 0.142163
H13   H     H_    0.548782 0.650230 0.892665 0.209082
H14   H     H_    0.420846 0.366388 0.896427 0.187312
H15   H     H_    0.643187 0.489103 0.106205 0.164418
H16   H     H_    0.586586 0.374567 0.101389 0.203155
H17   H     H_    0.644111 0.494184 0.892834 0.181521
H18   H     H_    0.592057 0.377617 0.890453 0.183079
H19   H     H_    0.780055 0.432546 0.328140 0.156269
N1    N     N_R   0.499930 0.743810 0.499950 -0.207397
N2    N     N_R   0.499930 0.256190 0.499950 -0.209347
O1    O     O_R   0.370250 0.582280 0.500040 -0.580661
O2    O     O_R   0.370250 0.417720 0.500040 -0.580630
O3    O     O_R   0.499970 0.582270 0.317700 -0.590781
O4    O     O_R   0.499970 0.417730 0.317700 -0.588288
O5    O     O_R   0.629730 0.582260 0.499980 -0.565767
O6    O     O_R   0.629730 0.417740 0.499980 -0.572589
O7    O     O_R   0.500000 0.582270 0.682320 -0.590064
O8    O     O_R   0.500000 0.417730 0.682320 -0.595705
C43   C     C_R   0.090256 0.416981 0.169025 0.118040
C44   C     C_R   0.135199 0.492145 0.106551 -0.147590
C45   C     C_R   0.172747 0.476248 0.988415 -0.171665
C46   C     C_R   0.165533 0.385474 0.931416 -0.092804
C47   C     C_R   0.120340 0.310502 0.992522 -0.103159
C48   C     C_R   0.082344 0.326196 0.110724 -0.153043
H20   H     H_    0.140352 0.563245 0.148915 0.135169
H21   H     H_    0.206992 0.534649 0.940868 0.118926
H22   H     H_    0.194619 0.373409 0.839768 0.132933
H23   H     H_    0.114426 0.240340 0.948066 0.144523
H24   H     H_    0.046887 0.267820 0.156775 0.134462
C49   C     C_1   0.614030 0.740251 0.339258 0.326792
N3    N     N_1   0.668401 0.698647 0.282773 -0.328337
C50   C     C_1   0.614799 0.256480 0.340377 0.329289
N4    N     N_1   0.670352 0.295424 0.284312 -0.345487
C51   C     C_1   0.594435 0.898173 0.176267 0.243264
N5    N     N_1   0.613562 0.859195 0.083977 -0.268832
C52   C     C_1   0.592726 0.100185 0.175729 0.250933
N6    N     N_1   0.610803 0.139009 0.083175 -0.279894
C53   C     C_1   0.357942 0.104504 0.785297 0.230630
N7    N     N_1   0.321379 0.146182 0.864777 -0.300909
C54   C     C_1   0.358769 0.897881 0.785979 0.233005
N8    N     N_1   0.322717 0.856864 0.865934 -0.299045
C55   C     C_1   0.760803 0.597109 0.699736 0.244205
N9    N     N_1   0.719772 0.643715 0.769950 -0.282133
C56   C     C_R   0.914941 0.568638 0.850350 0.130246
C57   C     C_R   0.925537 0.654409 0.919314 -0.138740
C58   C     C_R   0.888605 0.662415 0.039311 -0.093747
C59   C     C_R   0.841630 0.584794 0.091406 -0.089949
C60   C     C_R   0.831946 0.498801 0.023986 -0.175099
C61   C     C_R   0.868863 0.490355 0.904257 -0.124018
H25   H     H_    0.961834 0.715002 0.879862 0.131063
H26   H     H_    0.896493 0.728744 0.091994 0.138375
H27   H     H_    0.813367 0.590985 0.184353 0.151772
H28   H     H_    0.796477 0.438272 0.064827 0.133534
H29   H     H_    0.861497 0.423015 0.853386 0.129948

loop_
_geom_bond_atom_site_label_1
_geom_bond_atom_site_label_2
_ccdc_geom_bond_type
C12   O4    A    
Cu1   O7    S    
C40   H16   S    
C27   C29   A    
C54   N8    T    
C17   H4    S    
Cu1   Cu2   S    
C6    C9    A    
C55   N9    T    
Cu2   N2    S    
C7    C8    A    
C46   C47   A    
C25   C28   A    
C12   O3    A    
C1    C18   S    
C53   N7    T    
C5    C6    A    
C16   H6    S    
C38   C42   S    
C20   H7    S    
C61   H29   S    
C32   C52   S    
C15   C16   A    
Cu2   O6    S    
C18   C19   A    
C22   C49   S    
C35   C42   S    
C36   H9    S    
C47   H23   S    
C11   C17   A    
C38   H11   S    
C56   C57   A    
Cu1   O3    S    
C31   C51   S    
C24   C27   A    
C60   H28   S    
C44   H20   S    
C2    H17   S    
C25   C32   A    
C56   C61   A    
C9    C56   S    
C40   H15   S    
C23   C50   S    
C13   C14   A    
C26   O6    A    
C36   C41   S    
C59   C60   A    
Cu1   N1    S    
C17   C18   A    
C39   C42   S    
C20   C29   A    
C43   C44   A    
C58   C59   A    
C59   H27   S    
C34   C54   S    
C3    C8    A    
C52   N6    T    
C47   C48   A    
C49   N3    T    
C39   H14   S    
C29   C34   A    
C1    O1    A    
C20   N1    A    
C44   C45   A    
C12   C41   S    
C38   H13   S    
C19   H5    S    
C39   H12   S    
C33   C34   A    
C57   H25   S    
C36   H1    S    
C45   C46   A    
C37   H10   S    
C40   C41   S    
C5    C55   S    
C35   O7    A    
Cu1   O5    S    
C43   C48   A    
C26   O5    A    
C22   C24   A    
C3    C4    A    
C60   C61   A    
C9    C10   A    
C58   H26   S    
C35   O8    A    
C30   C33   A    
C21   N2    A    
C14   C19   A    
C31   C32   A    
C4    C5    A    
C33   C53   S    
C45   H21   S    
C4    C26   S    
C6    C7    A    
C3    H19   S    
C21   C30   A    
C23   N2    A    
C36   C38   S    
C37   H2    S    
C24   C31   A    
C37   C39   S    
C11   C13   A    
C48   H24   S    
C46   H22   S    
C2    C42   S    
Cu1   O1    S    
C28   C30   A    
C57   C58   A    
C1    O2    A    
C23   C25   A    
C37   C41   S    
Cu2   O8    S    
C10   C11   A    
C22   N1    A    
C2    C40   S    
C7    C13   A    
C15   C43   S    
C50   N4    T    
C8    C16   A    
C10   H3    S    
Cu2   O4    S    
C14   C15   A    
Cu2   O2    S    
C51   N5    T    
C21   H8    S    
C2    H18   S    
C27   C28   A    
