data_mof_unit_56700.cif
_audit_creation_date              2012-12-10T20:35:49-0500
_audit_creation_method            fapswitch 2.2
_symmetry_space_group_name_H-M    P1
_symmetry_Int_Tables_number       1
_space_group_crystal_system       triclinic
_cell_length_a                    15.737197
_cell_length_b                    10.678516
_cell_length_c                    9.859042
_cell_angle_alpha                 89.963632
_cell_angle_beta                  90.047915
_cell_angle_gamma                 90.068186
_cell_volume                      1656.80903508

loop_
_atom_site_label
_atom_site_type_symbol
_atom_type_description
_atom_site_fract_x
_atom_site_fract_y
_atom_site_fract_z
_atom_type_partial_charge
C1    C     C_R   0.502482 0.259914 0.500072 0.873809
C2    C     C_3   0.951966 0.524440 0.642194 -0.375388
C3    C     C_3   0.917426 0.503268 0.497052 0.256040
C4    C     C_3   0.949324 0.610090 0.403873 -0.444112
C5    C     C_3   0.047920 0.611573 0.400658 0.367811
C6    C     C_1   0.826000 0.501979 0.499011 -0.084001
C7    C     C_1   0.174135 0.502835 0.496540 -0.015439
C8    C     C_1   0.249428 0.501266 0.499183 -0.127151
C9    C     C_R   0.514849 0.063745 0.623267 0.140453
C10   C     C_R   0.515873 0.128541 0.500741 -0.102119
C11   C     C_R   0.533168 0.064879 0.379454 -0.222642
C12   C     C_R   0.338278 0.499967 0.499956 0.906680
C13   C     C_R   0.533348 0.935367 0.379426 -0.219094
C14   C     C_R   0.516201 0.871420 0.500677 -0.101259
C15   C     C_R   0.515089 0.936010 0.623256 0.121604
C16   C     C_3   0.453678 0.928403 0.738624 -0.464292
C17   C     C_3   0.453244 0.070343 0.738404 -0.487966
C18   C     C_R   0.460286 0.406297 0.071296 0.199650
C19   C     C_R   0.545442 0.586089 0.071994 -0.119247
C20   C     C_R   0.545453 0.586097 0.927970 -0.126473
C21   C     C_R   0.460100 0.406488 0.928697 0.211131
C22   C     C_3   0.367790 0.375069 0.923408 -0.508650
C23   C     C_R   0.502665 0.740057 0.499973 0.881780
C24   C     C_3   0.368208 0.374113 0.077375 -0.476827
C25   C     C_R   0.661756 0.500079 0.499989 0.900736
C26   C     C_3   0.049971 0.527084 0.639884 -0.479306
C27   C     C_3   0.048840 0.375027 0.446373 -0.360074
C28   C     C_3   0.950870 0.376676 0.442354 -0.380604
C29   C     C_1   0.750673 0.500965 0.499897 -0.175313
C30   C     C_3   0.082699 0.504156 0.493538 0.179932
H1    H     H_    0.929831 0.448095 0.710590 0.194661
H2    H     H_    0.072889 0.619302 0.677944 0.187334
H3    H     H_    0.927637 0.614436 0.683747 0.184689
H4    H     H_    0.922175 0.597710 0.300448 0.223999
H5    H     H_    0.540650 0.113995 0.284005 0.171674
H6    H     H_    0.540936 0.886428 0.283976 0.167433
H7    H     H_    0.391658 0.886523 0.708862 0.208962
H8    H     H_    0.483093 0.887658 0.831216 0.202203
H9    H     H_    0.391019 0.110967 0.708048 0.199737
H10   H     H_    0.482202 0.111717 0.831027 0.204428
H11   H     H_    0.580789 0.657056 0.126368 0.142873
H12   H     H_    0.074968 0.454080 0.710057 0.209702
H13   H     H_    0.580803 0.657071 0.873602 0.146719
H14   H     H_    0.328750 0.451905 0.879727 0.225474
H15   H     H_    0.355992 0.281221 0.878688 0.199097
H16   H     H_    0.329200 0.450014 0.122592 0.242272
H17   H     H_    0.357321 0.279552 0.121293 0.203926
H18   H     H_    0.074688 0.349397 0.345431 0.228608
H19   H     H_    0.070322 0.300871 0.518048 0.165346
H20   H     H_    0.925648 0.297896 0.504509 0.171810
H21   H     H_    0.928747 0.362128 0.336238 0.200888
H22   H     H_    0.069725 0.702443 0.443856 0.076697
H23   H     H_    0.925850 0.701876 0.442011 0.146430
N1    N     N_R   0.499430 0.499140 0.142800 -0.105448
N2    N     N_R   0.499430 0.499180 0.857150 -0.104622
O1    O     O_R   0.500010 0.316790 0.614690 -0.616281
O2    O     O_R   0.500000 0.316760 0.385350 -0.625689
O3    O     O_R   0.377150 0.500020 0.614720 -0.627327
O4    O     O_R   0.377140 0.499990 0.385380 -0.589757
O5    O     O_R   0.500000 0.683240 0.614650 -0.622317
O6    O     O_R   0.499990 0.683210 0.385310 -0.622864
O7    O     O_R   0.622860 0.500010 0.614620 -0.613969
O8    O     O_R   0.622850 0.499980 0.385280 -0.615295
Zn1   Zn    Zn3+2 0.500010 0.500020 0.653130 0.945763
Zn2   Zn    Zn3+2 0.499990 0.499980 0.346870 0.957731
S1    S     S_3+6 0.085921 0.609298 0.227531 -0.012337
O9    O     O_2   0.052534 0.496526 0.153426 -0.327683
O10   O     O_2   0.054661 0.725451 0.157309 -0.303177
O11   O     O_3   0.192708 0.608687 0.223242 -0.568059
H24   H     H_    0.207416 0.614391 0.125763 0.376698

loop_
_geom_bond_atom_site_label_1
_geom_bond_atom_site_label_2
_ccdc_geom_bond_type
C27   H18   S    
C14   C23   S    
S1    O10   D    
O1    Zn1   S    
C5    H22   S    
C26   H2    S    
C1    O2    A    
C4    H23   S    
C18   C21   A    
C9    C10   A    
C19   C20   A    
O5    Zn1   S    
C16   H7    S    
C8    C12   S    
C3    C6    S    
C12   O3    A    
N2    Zn1   S    
C20   H13   S    
C11   H5    S    
C2    C3    S    
C9    C15   A    
C24   H16   S    
C7    C8    T    
C2    C26   S    
N1    Zn2   S    
C21   C22   S    
O4    Zn2   S    
C27   C30   S    
O3    Zn1   S    
C11   C13   A    
O11   H24   S    
C5    S1    S    
C20   N2    A    
C18   C24   S    
C4    C5    S    
C19   N1    A    
C9    C17   S    
C3    C28   S    
C1    O1    A    
C26   C30   S    
C4    H4    S    
C25   O7    A    
C12   O4    A    
C25   C29   S    
C23   O5    A    
O8    Zn2   S    
C28   H21   S    
C22   C24   S    
S1    O11   S    
C10   C11   A    
C18   N1    A    
C27   H19   S    
C15   C16   S    
O6    Zn2   S    
C23   O6    A    
C22   H15   S    
S1    O9    D    
C6    C29   T    
C26   H12   S    
C13   H6    S    
C21   N2    A    
C5    C30   S    
C25   O8    A    
O2    Zn2   S    
C27   C28   S    
C7    C30   S    
C17   H9    S    
C14   C15   A    
C2    H1    S    
O7    Zn1   S    
C2    H3    S    
C13   C14   A    
C24   H17   S    
C28   H20   S    
C1    C10   S    
C22   H14   S    
C3    C4    S    
C19   H11   S    
C16   H8    S    
C16   C17   S    
C17   H10   S    
