data_mof_unit_48786.cif
_audit_creation_date              2013-03-05T15:44:03-0500
_audit_creation_method            fapswitch 2.2
_symmetry_space_group_name_H-M    P1
_symmetry_Int_Tables_number       1
_space_group_crystal_system       triclinic
_cell_length_a                    30.435965
_cell_length_b                    22.102592
_cell_length_c                    17.97958
_cell_angle_alpha                 90.116492
_cell_angle_beta                  123.336736
_cell_angle_gamma                 90.263944
_cell_volume                      10104.6642629

loop_
_atom_site_label
_atom_site_type_symbol
_atom_site_description
_atom_site_fract_x
_atom_site_fract_y
_atom_site_fract_z
_atom_type_partial_charge
C1    C     C_R   0.535060 0.608271 0.712607 0.545298
C2    C     C_R   0.464993 0.391681 0.287529 0.539242
C3    C     C_R   0.464539 0.605227 0.283643 0.533190
C4    C     C_R   0.538690 0.403701 0.728540 0.541077
C5    C     C_R   0.044581 0.080760 0.743928 0.500643
C6    C     C_R   0.955776 0.918382 0.256767 0.497917
C7    C     C_R   0.957891 0.093105 0.265133 0.492448
C8    C     C_R   0.045307 0.918807 0.744482 0.510308
N1    N     N_R   0.532970 0.559900 0.665210 -0.078364
N2    N     N_R   0.467030 0.440100 0.334790 -0.078667
N3    N     N_R   0.467030 0.559900 0.334790 -0.078578
N4    N     N_R   0.532970 0.440100 0.665210 -0.079790
N5    N     N_R   0.032970 0.059900 0.665210 -0.081106
N6    N     N_R   0.967030 0.940100 0.334790 -0.080618
N7    N     N_R   0.967030 0.059900 0.334790 -0.077155
N8    N     N_R   0.032970 0.940100 0.665210 -0.080602
C9    C     C_R   0.646275 0.578914 0.572155 -0.101443
C10   C     C_R   0.353613 0.421839 0.427991 -0.100157
C11   C     C_R   0.353984 0.578969 0.427215 -0.109663
C12   C     C_R   0.645853 0.420430 0.573256 -0.108328
C13   C     C_R   0.125429 0.111538 0.574938 -0.084984
C14   C     C_R   0.875055 0.888156 0.425218 -0.088984
C15   C     C_R   0.874045 0.111018 0.427487 -0.100406
C16   C     C_R   0.124545 0.888343 0.574014 -0.083473
H1    H     H_    0.679803 0.574326 0.639700 0.107560
H2    H     H_    0.320153 0.426749 0.360463 0.108191
H3    H     H_    0.320848 0.574245 0.359266 0.107723
H4    H     H_    0.678678 0.424398 0.641576 0.104186
H5    H     H_    0.152259 0.122994 0.644087 0.108147
H6    H     H_    0.847949 0.876792 0.356131 0.109122
H7    H     H_    0.844842 0.122264 0.359644 0.128162
H8    H     H_    0.151114 0.876877 0.643113 0.112637
N9    N     N_R   0.597900 0.559930 0.545530 -0.050526
N10   N     N_R   0.402100 0.440070 0.454470 -0.050164
N11   N     N_R   0.402100 0.559930 0.454470 -0.050067
N12   N     N_R   0.597900 0.440070 0.545530 -0.049222
N13   N     N_R   0.097900 0.059930 0.545530 -0.048292
N14   N     N_R   0.902100 0.940070 0.454470 -0.048861
N15   N     N_R   0.902100 0.059930 0.454470 -0.048754
N16   N     N_R   0.097900 0.940070 0.545530 -0.049313
C17   C     C_R   0.596946 0.578352 0.425042 -0.054675
C18   C     C_R   0.403053 0.422150 0.575125 -0.068385
C19   C     C_R   0.402641 0.578075 0.574379 -0.035974
C20   C     C_R   0.597575 0.421928 0.425969 -0.037190
C21   C     C_R   0.076149 0.112405 0.427115 -0.078522
C22   C     C_R   0.925633 0.886647 0.573140 -0.068157
C23   C     C_R   0.925686 0.112114 0.575419 -0.074155
C24   C     C_R   0.074269 0.887216 0.425654 -0.066863
H9    H     H_    0.585799 0.571497 0.357415 0.167148
H10   H     H_    0.414359 0.428938 0.642808 0.168713
H11   H     H_    0.413222 0.571382 0.641686 0.161485
H12   H     H_    0.587249 0.428695 0.358802 0.164190
H13   H     H_    0.058681 0.125736 0.359440 0.171214
H14   H     H_    0.945705 0.872378 0.641137 0.151429
H15   H     H_    0.946462 0.125306 0.644370 0.152200
H16   H     H_    0.054151 0.873683 0.356886 0.151278
N17   N     N_R   0.567170 0.559950 0.454460 -0.052514
N18   N     N_R   0.432830 0.440050 0.545540 -0.051065
N19   N     N_R   0.432830 0.559950 0.545540 -0.051252
N20   N     N_R   0.567170 0.440050 0.454460 -0.052609
N21   N     N_R   0.067170 0.059950 0.454460 -0.039207
N22   N     N_R   0.932830 0.940050 0.545540 -0.037736
N23   N     N_R   0.932830 0.059950 0.545540 -0.038326
N24   N     N_R   0.067170 0.940050 0.454460 -0.038560
C25   C     C_R   0.393184 0.608706 0.289778 -0.174788
C26   C     C_R   0.612290 0.401440 0.728500 -0.185091
C27   C     C_R   0.606722 0.609511 0.707493 -0.176029
C28   C     C_R   0.393369 0.390325 0.292752 -0.178562
C29   C     C_R   0.885183 0.092092 0.265564 -0.192107
C30   C     C_R   0.117982 0.920132 0.744406 -0.220961
C31   C     C_R   0.117348 0.083506 0.743675 -0.207897
C32   C     C_R   0.882890 0.915703 0.256772 -0.207816
H17   H     H_    0.356942 0.621324 0.282925 0.140773
H18   H     H_    0.652337 0.394328 0.747686 0.138187
H19   H     H_    0.642381 0.622137 0.711994 0.155278
H20   H     H_    0.357753 0.377667 0.288382 0.154009
H21   H     H_    0.844690 0.095754 0.244848 0.178328
H22   H     H_    0.158885 0.926467 0.767767 0.161260
H23   H     H_    0.158434 0.082423 0.766749 0.141203
H24   H     H_    0.841767 0.916386 0.233510 0.140223
N25   N     N_R   0.421470 0.559970 0.334770 -0.071295
N26   N     N_R   0.578530 0.440030 0.665230 -0.069953
N27   N     N_R   0.578530 0.559970 0.665230 -0.073591
N28   N     N_R   0.421470 0.440030 0.334770 -0.073007
N29   N     N_R   0.921470 0.059970 0.334770 -0.077193
N30   N     N_R   0.078530 0.940030 0.665230 -0.075954
N31   N     N_R   0.078530 0.059970 0.665230 -0.074532
N32   N     N_R   0.921470 0.940030 0.334770 -0.073524
C33   C     C_R   0.580130 0.642459 0.737343 -0.079004
C34   C     C_R   0.420003 0.357305 0.262992 -0.078949
C35   C     C_R   0.419947 0.639827 0.257976 -0.073853
C36   C     C_R   0.587496 0.376682 0.768187 -0.068365
C37   C     C_R   0.097101 0.098709 0.794409 -0.055884
C38   C     C_R   0.903468 0.899755 0.206735 -0.058854
C39   C     C_R   0.907956 0.117472 0.224047 -0.068594
C40   C     C_R   0.099001 0.906353 0.797229 -0.052364
C41   C     C_R   0.647378 0.590044 0.497502 0.027695
C42   C     C_R   0.352477 0.411456 0.502768 0.030895
C43   C     C_R   0.352488 0.589997 0.501433 0.023448
C44   C     C_R   0.647639 0.409757 0.499232 0.018179
C45   C     C_R   0.111173 0.146966 0.501552 0.020266
C46   C     C_R   0.890281 0.852200 0.498561 0.022001
C47   C     C_R   0.889736 0.146290 0.502200 0.025254
C48   C     C_R   0.109501 0.852860 0.499784 0.025272
Ni1   Ni    Ni4+2 0.483030 0.500000 0.604430 0.280782
Ni2   Ni    Ni4+2 0.516970 0.500000 0.395570 0.277807
Ni3   Ni    Ni4+2 0.983030 0.000000 0.604430 0.309338
Ni4   Ni    Ni4+2 0.016970 0.000000 0.395570 0.315664
Ni5   Ni    Ni4+2 0.587400 0.500000 0.604430 0.210046
Ni6   Ni    Ni4+2 0.412600 0.500000 0.395570 0.212187
Ni7   Ni    Ni4+2 0.087400 0.000000 0.604430 0.219270
Ni8   Ni    Ni4+2 0.912600 0.000000 0.395570 0.220880
C49   C     C_R   0.743958 0.391069 0.580324 -0.113362
C50   C     C_R   0.309158 0.611568 0.582681 -0.102867
C51   C     C_R   0.255592 0.397569 0.426283 -0.092730
C52   C     C_R   0.744401 0.605463 0.574024 -0.104536
C53   C     C_R   0.113111 0.762372 0.420236 -0.096327
C54   C     C_R   0.836767 0.237659 0.423131 -0.117068
C55   C     C_R   0.834083 0.762995 0.415201 -0.110229
C56   C     C_R   0.167995 0.235763 0.584161 -0.111481
C57   C     C_R   0.695357 0.397920 0.499412 0.021331
C58   C     C_R   0.305093 0.602214 0.502057 0.018915
C59   C     C_R   0.305468 0.401429 0.505408 0.013332
C60   C     C_R   0.694332 0.601583 0.494985 0.017440
C61   C     C_R   0.128392 0.791457 0.500303 0.028422
C62   C     C_R   0.871499 0.207758 0.503226 0.029623
C63   C     C_R   0.871708 0.790087 0.496746 0.028451
C64   C     C_R   0.130165 0.208750 0.502861 0.044387
C65   C     C_R   0.691958 0.388518 0.419282 -0.092296
C66   C     C_R   0.256285 0.609651 0.421672 -0.091404
C67   C     C_R   0.310849 0.390026 0.586630 -0.096485
C68   C     C_R   0.688659 0.613415 0.413583 -0.090803
C69   C     C_R   0.165864 0.764240 0.581226 -0.086312
C70   C     C_R   0.885355 0.234783 0.583938 -0.095264
C71   C     C_R   0.887458 0.759916 0.576115 -0.080309
C72   C     C_R   0.113896 0.239049 0.423269 -0.118107
C73   C     C_R   0.734319 0.363915 0.419309 -0.022375
C74   C     C_R   0.213947 0.635221 0.420461 -0.021931
C75   C     C_R   0.269249 0.364872 0.588523 -0.016257
C76   C     C_R   0.730365 0.637652 0.411130 -0.017523
C77   C     C_R   0.194976 0.714767 0.583234 -0.020043
C78   C     C_R   0.858347 0.285512 0.584939 -0.020019
C79   C     C_R   0.859608 0.708940 0.575316 -0.019575
C80   C     C_R   0.142341 0.289186 0.423294 -0.029864
C81   C     C_R   0.779853 0.347182 0.501618 -0.064501
C82   C     C_R   0.221401 0.653439 0.502022 -0.062416
C83   C     C_R   0.222164 0.350160 0.506818 -0.067805
C84   C     C_R   0.778026 0.651141 0.492520 -0.064693
C85   C     C_R   0.185090 0.692156 0.501774 -0.065860
C86   C     C_R   0.816321 0.308183 0.502887 -0.065599
C87   C     C_R   0.814822 0.689696 0.493235 -0.067244
C88   C     C_R   0.186354 0.309682 0.505640 -0.056677
C89   C     C_R   0.786085 0.364267 0.582571 0.040710
C90   C     C_R   0.267804 0.637872 0.583688 0.040654
C91   C     C_R   0.213770 0.370677 0.425755 0.021529
C92   C     C_R   0.786434 0.631186 0.573876 0.028217
C93   C     C_R   0.141666 0.713105 0.419907 0.040193
C94   C     C_R   0.807801 0.287012 0.421812 0.044705
C95   C     C_R   0.804152 0.713955 0.412399 0.043294
C96   C     C_R   0.197066 0.285550 0.586628 0.042543
C97   C     C_R   0.730048 0.350122 0.338717 0.160268
C98   C     C_R   0.166409 0.648455 0.339027 0.166376
C99   C     C_R   0.276023 0.347861 0.669905 0.160855
C100  C     C_R   0.723487 0.654397 0.329522 0.161102
C101  C     C_R   0.237235 0.691937 0.665006 0.167797
C102  C     C_R   0.868788 0.309676 0.666033 0.166015
C103  C     C_R   0.872254 0.680955 0.655385 0.166029
C104  C     C_R   0.129930 0.316885 0.343001 0.173902
C105  C     C_R   0.273816 0.652695 0.665027 0.394033
C106  C     C_R   0.832567 0.350281 0.664591 0.382981
C107  C     C_R   0.835445 0.640817 0.654204 0.415423
C108  C     C_R   0.165896 0.358693 0.344630 0.443286
C109  C     C_R   0.767986 0.312308 0.340485 0.396932
C110  C     C_R   0.129795 0.687721 0.338900 0.416642
C111  C     C_R   0.238998 0.308396 0.668755 0.386965
C112  C     C_R   0.761280 0.692340 0.330338 0.391185
H25   H     H_    0.747912 0.401319 0.642437 0.172567
H26   H     H_    0.345959 0.603391 0.645029 0.179527
H27   H     H_    0.250408 0.409867 0.363853 0.178446
H28   H     H_    0.749858 0.593342 0.636741 0.176694
H29   H     H_    0.082039 0.781096 0.357665 0.170282
H30   H     H_    0.828768 0.219521 0.360949 0.189164
H31   H     H_    0.824343 0.783398 0.353455 0.169575
H32   H     H_    0.178104 0.215231 0.646031 0.169472
H33   H     H_    0.655031 0.395584 0.356797 0.164113
H34   H     H_    0.252382 0.600460 0.359405 0.155757
H35   H     H_    0.348775 0.395075 0.648124 0.163824
H36   H     H_    0.650544 0.608921 0.352327 0.163327
H37   H     H_    0.175715 0.784729 0.643074 0.156441
H38   H     H_    0.913870 0.213323 0.645934 0.157021
H39   H     H_    0.918329 0.779006 0.638952 0.155791
H40   H     H_    0.081492 0.221099 0.361125 0.148715
C113  C     C_R   0.406478 0.700337 0.215226 0.071940
C114  C     C_R   0.610078 0.335594 0.843738 0.044812
C115  C     C_R   0.595152 0.704501 0.775538 0.074366
C116  C     C_R   0.405241 0.295059 0.225103 0.074761
C117  C     C_R   0.889521 0.174550 0.175728 0.061184
C118  C     C_R   0.133294 0.895099 0.894395 0.075337
C119  C     C_R   0.126176 0.123073 0.886428 0.043043
C120  C     C_R   0.874854 0.874065 0.115619 0.051350
C121  C     C_R   0.425479 0.785478 0.150417 0.629517
C122  C     C_R   0.600553 0.250773 0.919959 0.638780
C123  C     C_R   0.575995 0.803912 0.811408 0.624002
C124  C     C_R   0.424790 0.196542 0.187344 0.621737
C125  C     C_R   0.904845 0.282969 0.175314 0.624137
C126  C     C_R   0.150631 0.891013 0.044215 0.628303
C127  C     C_R   0.125371 0.180197 0.001954 0.627507
C128  C     C_R   0.876267 0.814767 0.002355 0.626067
C129  C     C_R   0.441537 0.732865 0.202517 -0.372704
C130  C     C_R   0.579146 0.290564 0.847777 -0.377433
C131  C     C_R   0.559439 0.745465 0.773455 -0.368225
C132  C     C_R   0.441010 0.254857 0.225872 -0.369969
C133  C     C_R   0.924073 0.223307 0.197254 -0.354511
C134  C     C_R   0.118576 0.908315 0.954139 -0.369667
C135  C     C_R   0.099109 0.154651 0.916535 -0.374290
C136  C     C_R   0.902208 0.841304 0.087131 -0.383376
C137  C     C_R   0.359222 0.727792 0.191344 -0.051189
C138  C     C_R   0.662441 0.341985 0.911651 -0.066148
C139  C     C_R   0.645956 0.724611 0.807722 -0.061394
C140  C     C_R   0.354791 0.274008 0.194141 -0.063962
C141  C     C_R   0.836148 0.184972 0.130551 -0.094879
C142  C     C_R   0.183861 0.873614 0.928511 -0.044011
C143  C     C_R   0.180820 0.118375 0.941858 -0.073985
C144  C     C_R   0.820335 0.879054 0.059363 -0.076733
C145  C     C_R   0.344842 0.784049 0.148579 0.041943
C146  C     C_R   0.685442 0.303489 0.985119 0.047663
C147  C     C_R   0.661429 0.784527 0.834523 0.037947
C148  C     C_R   0.339636 0.214095 0.166255 0.039711
C149  C     C_R   0.817093 0.243451 0.120644 0.037220
C150  C     C_R   0.219255 0.864307 0.019664 0.040059
C151  C     C_R   0.209113 0.144738 0.027487 0.040163
C152  C     C_R   0.792384 0.852117 0.974197 0.041265
C153  C     C_R   0.374377 0.808315 0.116163 -0.153867
C154  C     C_R   0.654703 0.255931 0.988639 -0.152912
C155  C     C_R   0.628500 0.823257 0.845320 -0.153732
C156  C     C_R   0.372568 0.176407 0.154024 -0.150566
C157  C     C_R   0.850226 0.293471 0.135233 -0.152589
C158  C     C_R   0.200281 0.864306 0.075949 -0.159183
C159  C     C_R   0.180992 0.176510 0.057809 -0.163915
C160  C     C_R   0.820713 0.818901 0.945503 -0.160704
C161  C     C_R   0.298809 0.813559 0.130080 -0.091070
C162  C     C_R   0.740296 0.305676 0.047480 -0.094736
C163  C     C_R   0.711848 0.803792 0.859218 -0.089369
C164  C     C_R   0.289521 0.193787 0.142044 -0.091624
C165  C     C_R   0.764418 0.252094 0.091721 -0.068941
C166  C     C_R   0.272196 0.850070 0.054010 -0.078748
C167  C     C_R   0.265036 0.147344 0.078466 -0.074349
C168  C     C_R   0.736461 0.850491 0.922201 -0.076524
C169  C     C_R   0.771970 0.357846 0.064513 0.382701
C170  C     C_R   0.279587 0.809096 0.186248 0.397835
C171  C     C_R   0.264047 0.217408 0.181795 0.385580
C172  C     C_R   0.737650 0.778508 0.820976 0.383271
C173  C     C_R   0.299389 0.872624 0.015988 0.402073
C174  C     C_R   0.735555 0.209683 0.107789 0.430216
C175  C     C_R   0.704235 0.892278 0.931100 0.388966
C176  C     C_R   0.297386 0.106613 0.068332 0.383511
C177  C     C_R   0.827440 0.351809 0.110851 0.212666
C178  C     C_R   0.231751 0.837871 0.161347 0.224612
C179  C     C_R   0.209725 0.206905 0.140992 0.218522
C180  C     C_R   0.792210 0.787721 0.862927 0.209152
C181  C     C_R   0.351734 0.854183 0.050875 0.221029
C182  C     C_R   0.680151 0.212855 0.057708 0.218567
C183  C     C_R   0.649671 0.879347 0.890086 0.203180
C184  C     C_R   0.351727 0.120446 0.108593 0.196502
H41   H     H_    0.685685 0.374800 0.903049 0.172860
H42   H     H_    0.331968 0.703991 0.201617 0.155835
H43   H     H_    0.325914 0.305226 0.188473 0.156498
H44   H     H_    0.674798 0.692669 0.814919 0.156664
H45   H     H_    0.195274 0.861478 0.883141 0.165324
H46   H     H_    0.809716 0.146400 0.109123 0.170385
H47   H     H_    0.799759 0.900122 0.085622 0.176838
H48   H     H_    0.201190 0.098213 0.914602 0.179443
H49   H     H_    0.538415 0.285400 0.793141 0.162681
H50   H     H_    0.481387 0.717638 0.231964 0.174016
H51   H     H_    0.481611 0.268232 0.256281 0.165002
H52   H     H_    0.518673 0.732574 0.742453 0.164375
H53   H     H_    0.082581 0.932086 0.932094 0.172729
H54   H     H_    0.966072 0.215401 0.235107 0.147025
H55   H     H_    0.944048 0.834220 0.132478 0.169399
H56   H     H_    0.057218 0.161747 0.871957 0.178188
O1    O     O_3   0.501278 0.616378 0.739871 -0.769494
H57   H     H_    0.519679 0.641637 0.794458 0.332807
O2    O     O_3   0.498729 0.383733 0.260135 -0.769622
H58   H     H_    0.480035 0.359201 0.204837 0.334021
O3    O     O_3   0.495836 0.607775 0.250610 -0.772598
H59   H     H_    0.473933 0.623386 0.189061 0.332659
O4    O     O_3   0.505984 0.405557 0.759042 -0.766622
H60   H     H_    0.524588 0.387904 0.819342 0.343891
O5    O     O_3   0.013783 0.066115 0.775756 -0.737779
H61   H     H_    0.037005 0.060923 0.841029 0.333470
O6    O     O_3   0.986661 0.932501 0.224913 -0.737717
H62   H     H_    0.963703 0.935686 0.159317 0.336863
O7    O     O_3   0.987109 0.088727 0.228127 -0.734983
H63   H     H_    0.968750 0.111900 0.171798 0.338499
O8    O     O_3   0.011696 0.922874 0.772672 -0.744410
H64   H     H_    0.019362 0.887821 0.812181 0.320721
O9    O     O_3   0.459450 0.815134 0.134167 -0.658201
H65   H     H_    0.493044 0.792746 0.162321 0.338298
O10   O     O_3   0.569974 0.204681 0.920772 -0.656236
H66   H     H_    0.533461 0.208015 0.867932 0.338516
O11   O     O_3   0.541393 0.841939 0.815261 -0.658279
H67   H     H_    0.507049 0.821066 0.789695 0.337765
O12   O     O_3   0.459465 0.159400 0.182302 -0.657127
H68   H     H_    0.493583 0.180742 0.207557 0.338897
O13   O     O_3   0.939140 0.330861 0.196983 -0.646281
H69   H     H_    0.975664 0.315901 0.234397 0.350783
O14   O     O_3   0.134488 0.901335 0.101473 -0.669740
H70   H     H_    0.099019 0.919707 0.068203 0.330955
O15   O     O_3   0.097470 0.212660 0.028479 -0.647384
H71   H     H_    0.059321 0.210336 0.981763 0.351695
O16   O     O_3   0.904380 0.781182 0.977356 -0.650750
H72   H     H_    0.942446 0.783400 0.024571 0.341745
O17   O     O_3   0.748097 0.413992 0.043117 -0.724067
H73   H     H_    0.774518 0.446714 0.062672 0.364572
O18   O     O_3   0.310791 0.781945 0.268582 -0.730873
H74   H     H_    0.290108 0.773883 0.294876 0.355578
O19   O     O_3   0.294313 0.246491 0.263472 -0.740643
H75   H     H_    0.274161 0.251628 0.291286 0.355338
O20   O     O_3   0.707545 0.748927 0.739668 -0.742978
H76   H     H_    0.728216 0.742093 0.713138 0.353302
O21   O     O_3   0.275722 0.916669 0.950965 -0.746075
H77   H     H_    0.295559 0.923123 0.922796 0.360403
O22   O     O_3   0.762962 0.169684 0.177746 -0.768299
H78   H     H_    0.739438 0.151661 0.193693 0.356038
O23   O     O_3   0.725769 0.947607 0.971467 -0.740571
H79   H     H_    0.698664 0.974343 0.967587 0.369212
O24   O     O_3   0.276297 0.051290 0.027543 -0.724808
H80   H     H_    0.303838 0.024885 0.032382 0.379928
N33   N     N_R   0.685842 0.371024 0.255263 0.234196
O25   O     O_R   0.675343 0.428503 0.242529 -0.328716
O26   O     O_R   0.655802 0.332646 0.192064 -0.339411
N34   N     N_R   0.156947 0.625401 0.256643 0.231348
O27   O     O_R   0.150075 0.662377 0.194935 -0.320011
O28   O     O_R   0.157269 0.567367 0.244654 -0.346504
N35   N     N_R   0.321951 0.367017 0.753078 0.231820
O29   O     O_R   0.333128 0.424327 0.769919 -0.359557
O30   O     O_R   0.353719 0.327182 0.810663 -0.342988
N36   N     N_R   0.676798 0.636556 0.246524 0.231504
O31   O     O_R   0.645663 0.677296 0.190082 -0.347342
O32   O     O_R   0.664406 0.579567 0.228607 -0.326020
N37   N     N_R   0.245296 0.712063 0.747701 0.226358
O33   O     O_R   0.288460 0.740325 0.806199 -0.347594
O34   O     O_R   0.208774 0.703816 0.763438 -0.384148
N38   N     N_R   0.913740 0.289892 0.749414 0.232880
O35   O     O_R   0.960766 0.295600 0.765393 -0.373597
O36   O     O_R   0.907617 0.264404 0.808342 -0.348394
N39   N     N_R   0.920783 0.695475 0.737685 0.233967
O37   O     O_R   0.920542 0.715800 0.805416 -0.271991
O38   O     O_R   0.965338 0.689888 0.744281 -0.369833
N40   N     N_R   0.082259 0.301350 0.260142 0.223168
O39   O     O_R   0.077349 0.248640 0.223911 -0.313956
O40   O     O_R   0.047812 0.343051 0.214095 -0.347436
O41   O     O_3   0.316481 0.629730 0.742921 -0.700550
H81   H     H_    0.310424 0.633295 0.791458 0.370181
O42   O     O_3   0.840313 0.375030 0.741736 -0.709819
H82   H     H_    0.877877 0.372068 0.790431 0.378060
O43   O     O_3   0.845504 0.611480 0.729879 -0.680028
H83   H     H_    0.883812 0.611504 0.775067 0.376584
O44   O     O_3   0.157262 0.385953 0.268415 -0.674987
H84   H     H_    0.125587 0.368863 0.214859 0.403742
O45   O     O_3   0.766349 0.297804 0.264201 -0.736584
H85   H     H_    0.745047 0.328067 0.217611 0.355673
O46   O     O_3   0.083161 0.703564 0.261230 -0.709949
H86   H     H_    0.074887 0.674306 0.213446 0.374637
O47   O     O_3   0.243675 0.289592 0.746166 -0.726563
H87   H     H_    0.267087 0.317752 0.795374 0.364208
O48   O     O_3   0.756433 0.710985 0.252735 -0.725818
H88   H     H_    0.731901 0.683663 0.203173 0.366268
N41   N     N_R   0.859569 0.404415 0.129346 0.271402
O49   O     O_R   0.861582 0.429685 0.065994 -0.314431
O50   O     O_R   0.882448 0.430493 0.207030 -0.314581
N42   N     N_R   0.214573 0.837220 0.221249 0.267937
O51   O     O_R   0.238824 0.870316 0.293108 -0.324666
O52   O     O_R   0.179078 0.798303 0.209574 -0.302649
N43   N     N_R   0.183920 0.230146 0.181692 0.269250
O53   O     O_R   0.164799 0.193183 0.213370 -0.301987
O54   O     O_R   0.181218 0.288222 0.189947 -0.352895
N44   N     N_R   0.818392 0.762561 0.823936 0.271984
O55   O     O_R   0.837820 0.798099 0.791227 -0.318118
O56   O     O_R   0.820787 0.704191 0.817628 -0.315665
N45   N     N_R   0.379766 0.878915 0.014826 0.270556
O57   O     O_R   0.382250 0.848707 0.955070 -0.286670
O58   O     O_R   0.398045 0.933963 0.034808 -0.257507
N46   N     N_R   0.650567 0.170264 0.073652 0.272793
O59   O     O_R   0.622930 0.188900 0.104302 -0.269689
O60   O     O_R   0.653112 0.112661 0.061467 -0.315106
N47   N     N_R   0.617121 0.921887 0.898065 0.274557
O61   O     O_R   0.621332 0.928468 0.973655 -0.296842
O62   O     O_R   0.587172 0.958168 0.832544 -0.290408
N48   N     N_R   0.384325 0.079027 0.098954 0.276767
O63   O     O_R   0.379588 0.073789 0.022779 -0.290763
O64   O     O_R   0.414813 0.042326 0.163462 -0.282805

loop_
_geom_bond_atom_site_label_1
_geom_bond_atom_site_label_2
_geom_bond_distance
_ccdc_geom_bond_type
C49   H25   1.078878 S    
O43   H83   0.989094 S    
C65   H33   1.079000 S    
C123  O11   1.381471 S    
O6    H62   0.989527 S    
C84   C87   1.398555 A    
C18   N18   1.337256 A    
C7    O7    1.376121 S    
C69   H37   1.077865 S    
C106  O42   1.383829 S    
C72   H40   1.077925 S    
C159  C179  1.416274 A    
C22   N22   1.344220 A    
C19   C43   1.387180 A    
C41   C60   1.475526 S    
C36   C114  1.458388 S    
C14   N14   1.335594 A    
C137  H42   1.078769 S    
C112  O48   1.383841 S    
N42   O51   1.300838 A    
C128  O16   1.382917 S    
C2    C34   1.404292 A    
C47   C62   1.473894 S    
C32   N32   1.347501 A    
C15   C47   1.388357 A    
C6    C38   1.389864 A    
C114  C130  1.396071 A    
C28   C34   1.398801 A    
C4    N4    1.327109 A    
C83   C91   1.410560 A    
C5    N5    1.336680 A    
C150  C166  1.410138 A    
N7    N29   1.386473 A    
C32   C38   1.394965 A    
C126  C134  1.410762 A    
C7    N7    1.344341 A    
C8    N8    1.345371 A    
C68   H36   1.078336 S    
C17   H9    1.077882 S    
C54   H30   1.080751 S    
C101  C105  1.414336 A    
C162  C165  1.394372 A    
C51   C59   1.400069 A    
O22   H78   0.988430 S    
C169  C177  1.420827 A    
N35   O30   1.301260 A    
C11   C43   1.381191 A    
N48   O64   1.300805 A    
C12   H4    1.079157 S    
O11   H67   0.991657 S    
C13   H5    1.075914 S    
C172  O20   1.386540 S    
C15   H7    1.072984 S    
N7    Ni4   1.859064 S    
C16   H8    1.077291 S    
C26   N26   1.343364 A    
O12   H68   0.991650 S    
C82   C90   1.412885 A    
C39   C117  1.461614 S    
C124  C132  1.414027 A    
C126  C158  1.421106 A    
N1    N27   1.386457 A    
C103  N39   1.437237 S    
C8    O8    1.371882 S    
C108  O44   1.385230 S    
C109  O45   1.381781 S    
C52   H28   1.080122 S    
N45   O57   1.301015 A    
C54   C94   1.397738 A    
C68   C76   1.398419 A    
C149  C157  1.416291 A    
N47   O61   1.300888 A    
C118  C134  1.403060 A    
C172  C180  1.409819 A    
C153  C181  1.415203 A    
C173  C181  1.416487 A    
C25   C35   1.404244 A    
C133  H54   1.083558 S    
C162  C169  1.420050 A    
C151  C167  1.422909 A    
C29   C39   1.385314 A    
N46   O60   1.301308 A    
N43   O53   1.300909 A    
C31   C37   1.393999 A    
C166  C173  1.421395 A    
C164  C167  1.402718 A    
C9    H1    1.079723 S    
C18   C42   1.382831 A    
N6    N32   1.386459 A    
C124  C156  1.424449 A    
C11   N11   1.334012 A    
O47   H87   0.989283 S    
C1    O1    1.372929 S    
C175  O23   1.384916 S    
C97   N33   1.436910 S    
N40   O39   1.300859 A    
C52   C92   1.398917 A    
C3    N3    1.335251 A    
C17   N17   1.338227 A    
N35   O29   1.301235 A    
C116  C132  1.402618 A    
C143  H48   1.076439 S    
C65   C73   1.401354 A    
N25   Ni6   1.830786 S    
C62   C70   1.400724 A    
C55   C95   1.395537 A    
O21   H77   0.988410 S    
O44   H84   0.986981 S    
C56   C96   1.394095 A    
N44   O55   1.300882 A    
C121  O9    1.382229 S    
C50   C90   1.397972 A    
C87   C95   1.411125 A    
N14   N22   1.368436 A    
C67   H35   1.078361 S    
C73   C97   1.414303 A    
C27   N27   1.335661 A    
C181  N45   1.432375 S    
C29   H21   1.077340 S    
N29   Ni8   1.830786 S    
C99   C111  1.412959 A    
C130  H49   1.083778 S    
C31   H23   1.080039 S    
C170  O18   1.384590 S    
C40   C118  1.484352 S    
C122  O10   1.382210 S    
C119  C135  1.397392 A    
C99   N35   1.436648 S    
C117  C141  1.380441 A    
C35   C113  1.486759 S    
C146  C162  1.410109 A    
C6    N6    1.335394 A    
N1    Ni1   1.845881 S    
C26   H18   1.081313 S    
C60   C68   1.401587 A    
C174  O22   1.384769 S    
C86   C94   1.411270 A    
C50   H26   1.080046 S    
C89   C106  1.408730 A    
C81   C86   1.398784 A    
C19   N19   1.341569 A    
C93   C110  1.408201 A    
C149  C165  1.401456 A    
C167  C176  1.420477 A    
C20   H12   1.078672 S    
C71   C79   1.402109 A    
N17   Ni2   1.846300 S    
C21   H13   1.068595 S    
N33   O26   1.301426 A    
C123  C131  1.414514 A    
C115  C139  1.390141 A    
C121  C129  1.405394 A    
N24   Ni4   1.859447 S    
N37   O34   1.301144 A    
C4    O4    1.376068 S    
N13   Ni7   1.830838 S    
N4    N26   1.386471 A    
C131  H52   1.080426 S    
N26   Ni5   1.830786 S    
N34   O27   1.301090 A    
C139  H44   1.080293 S    
C26   C36   1.402751 A    
O20   H76   0.988243 S    
C152  C168  1.422217 A    
N32   Ni8   1.829369 S    
C30   C40   1.389660 A    
O7    H63   0.991468 S    
C78   C102  1.413549 A    
C173  O21   1.385219 S    
N5    N31   1.386457 A    
O5    H61   0.989757 S    
C180  N44   1.432555 S    
C55   H31   1.079471 S    
C56   H32   1.079435 S    
C79   C103  1.414203 A    
C18   H10   1.077175 S    
C163  C168  1.401657 A    
N36   O32   1.301176 A    
C95   C112  1.408216 A    
N10   Ni6   1.830838 S    
C136  H55   1.082647 S    
C17   C41   1.384613 A    
N2    Ni2   1.845881 S    
C27   H19   1.078369 S    
N14   Ni8   1.830838 S    
N20   Ni2   1.859447 S    
N10   N18   1.368436 A    
C132  H51   1.080157 S    
C155  C183  1.420748 A    
N13   N21   1.368438 A    
C14   H6    1.075691 S    
C111  O47   1.383919 S    
C124  O12   1.381567 S    
N47   O62   1.300783 A    
C147  C155  1.412801 A    
C102  C106  1.413963 A    
C54   C62   1.401841 A    
C28   H20   1.078434 S    
C77   C101  1.414577 A    
C45   C64   1.475504 S    
C146  C154  1.428451 A    
C135  H56   1.082467 S    
N18   Ni1   1.846302 S    
C75   C99   1.412880 A    
N30   Ni7   1.830786 S    
C32   H24   1.080069 S    
C20   C44   1.388689 A    
C74   C82   1.412500 A    
C79   C87   1.413497 A    
C120  C136  1.397332 A    
N42   O52   1.300946 A    
C105  O41   1.383964 S    
C67   C75   1.397982 A    
C154  C182  1.415264 A    
C49   C57   1.401827 A    
N38   O35   1.301239 A    
C174  C182  1.411257 A    
C129  H50   1.078566 S    
C134  H53   1.078077 S    
O2    H58   0.989658 S    
C140  H43   1.080010 S    
C9    C41   1.383476 A    
C141  H46   1.083563 S    
C104  N40   1.435272 S    
N41   O50   1.300771 A    
C55   C63   1.401526 A    
C164  C171  1.412738 A    
C10   H2    1.079601 S    
O41   H81   0.989179 S    
C168  C175  1.421587 A    
C29   N29   1.331348 A    
N19   Ni1   1.859446 S    
C9    N9    1.338592 A    
C73   C81   1.414287 A    
C37   C119  1.480918 S    
C63   C71   1.402079 A    
C64   C72   1.403446 A    
C23   N23   1.339165 A    
N4    Ni1   1.859068 S    
C138  C146  1.397352 A    
C24   N24   1.342191 A    
N31   Ni7   1.829366 S    
C145  C161  1.412848 A    
C140  C148  1.398287 A    
C3    C35   1.400872 A    
C44   C57   1.475150 S    
N33   O25   1.301166 A    
N8    Ni3   1.859068 S    
C171  C179  1.410036 A    
C142  H45   1.081412 S    
C178  N42   1.432648 S    
C91   C108  1.407023 A    
C48   C61   1.474408 S    
C98   N34   1.436418 S    
C1    C33   1.403221 A    
O46   H86   0.989017 S    
C127  C159  1.419153 A    
C66   H34   1.077699 S    
N6    Ni4   1.845881 S    
C125  C133  1.411560 A    
O18   H74   0.988891 S    
N8    N30   1.386471 A    
C76   C84   1.412682 A    
C177  N41   1.431541 S    
C184  N48   1.431519 S    
C101  N37   1.436677 S    
C143  C151  1.409215 A    
C23   C47   1.388999 A    
O14   H70   0.991630 S    
C28   N28   1.336781 A    
C1    N1    1.345125 A    
C102  N38   1.436776 S    
N39   O37   1.300952 A    
N22   Ni3   1.846302 S    
O15   H71   0.991798 S    
C161  C166  1.403864 A    
C90   C105  1.408171 A    
C100  N36   1.436466 S    
C113  C137  1.396982 A    
O10   H66   0.991785 S    
C123  C155  1.424764 A    
O3    H59   0.990398 S    
C70   C78   1.399255 A    
C82   C85   1.398936 A    
C97   C109  1.414754 A    
C94   C109  1.407554 A    
C121  C153  1.417336 A    
O4    H60   0.988586 S    
C12   C44   1.381417 A    
C22   H14   1.072268 S    
N3    Ni2   1.859064 S    
C127  C135  1.399815 A    
C160  C180  1.416508 A    
N40   O40   1.300823 A    
C71   H39   1.079323 S    
N11   Ni6   1.829851 S    
C21   C45   1.389719 A    
C43   C58   1.474864 S    
C31   N31   1.347435 A    
N15   Ni8   1.829851 S    
C156  C184  1.420774 A    
C157  C177  1.418493 A    
C76   C100  1.413869 A    
N44   O56   1.300743 A    
O8    H64   0.990477 S    
C117  C133  1.399127 A    
C6    O6    1.377945 S    
C3    O3    1.372860 S    
C52   C60   1.402558 A    
C59   C67   1.400696 A    
C161  C170  1.421653 A    
C57   C65   1.401530 A    
C14   C46   1.386081 A    
C103  C107  1.416781 A    
C56   C64   1.399686 A    
N48   O63   1.300831 A    
C171  O19   1.386420 S    
C165  C174  1.416470 A    
C69   C77   1.398570 A    
C145  C153  1.417042 A    
C110  O46   1.383961 S    
C78   C86   1.413661 A    
C182  N46   1.433908 S    
O24   H80   0.987611 S    
C72   C80   1.402937 A    
C144  H47   1.076430 S    
C19   H11   1.078360 S    
O17   H73   0.988035 S    
C20   N20   1.342690 A    
C21   N21   1.344487 A    
C100  C112  1.413920 A    
C38   C120  1.479246 S    
O23   H79   0.987974 S    
C126  O14   1.381766 S    
C12   N12   1.331957 A    
C127  O15   1.383011 S    
C104  C108  1.417184 A    
C13   N13   1.335862 A    
C80   C88   1.415450 A    
O13   H69   0.989941 S    
C141  C149  1.390334 A    
N45   O58   1.300482 A    
C84   C92   1.411344 A    
C139  C147  1.396428 A    
C85   C93   1.413488 A    
C4    C36   1.384724 A    
C33   C115  1.485385 S    
O16   H72   0.991771 S    
C88   C96   1.412106 A    
C30   H22   1.081337 S    
O9    H65   0.991642 S    
O48   H88   0.989251 S    
C8    C40   1.395551 A    
N5    Ni3   1.845881 S    
N46   O59   1.301021 A    
C128  C160  1.419255 A    
C77   C85   1.413040 A    
C114  C138  1.381728 A    
N37   O33   1.301307 A    
N3    N25   1.386473 A    
C22   C46   1.392090 A    
C75   C83   1.413289 A    
C80   C104  1.417007 A    
C118  C142  1.393112 A    
N34   O28   1.301232 A    
C144  C152  1.408113 A    
C147  C163  1.406284 A    
C53   H29   1.080466 S    
C122  C154  1.419491 A    
C24   C48   1.394157 A    
C27   C33   1.398109 A    
C138  H41   1.080016 S    
C25   H17   1.078553 S    
C151  C159  1.428218 A    
N21   Ni4   1.846300 S    
C25   N25   1.342576 A    
O42   H82   0.989273 S    
C148  C164  1.407342 A    
N27   Ni5   1.829366 S    
C11   H3    1.079283 S    
C183  N47   1.431875 S    
C13   C45   1.385814 A    
C176  O24   1.384470 S    
C128  C136  1.400020 A    
C122  C130  1.401005 A    
C116  C140  1.391756 A    
N16   Ni7   1.829854 S    
N43   O54   1.300041 A    
C42   C59   1.473167 S    
N11   N19   1.368431 A    
C53   C93   1.398375 A    
C120  C144  1.395001 A    
C74   C98   1.414189 A    
C46   C63   1.475732 S    
O1    H57   0.989607 S    
N28   Ni6   1.829369 S    
C16   C48   1.388052 A    
C125  C157  1.422775 A    
C115  C131  1.402528 A    
C7    C39   1.385931 A    
C96   C111  1.408505 A    
N39   O38   1.301197 A    
C113  C129  1.403334 A    
C34   C116  1.487548 S    
C10   N10   1.337296 A    
C142  C150  1.397013 A    
C179  N43   1.431839 S    
C30   N30   1.338053 A    
N38   O36   1.301202 A    
C150  C158  1.414187 A    
N9    Ni5   1.830838 S    
N23   Ni3   1.859446 S    
C2    N2    1.344979 A    
C23   H15   1.075621 S    
N41   O49   1.300811 A    
C61   C69   1.401986 A    
C24   H16   1.076013 S    
N9    N17   1.368438 A    
C163  C172  1.413391 A    
C51   C91   1.397623 A    
C49   C89   1.395251 A    
N12   N20   1.368433 A    
C5    O5    1.377824 S    
C5    C37   1.390846 A    
C107  O43   1.383111 S    
C2    O2    1.372922 S    
C98   C110  1.414657 A    
N15   N23   1.368431 A    
O45   H85   0.989343 S    
C92   C107  1.408631 A    
N16   N24   1.368433 A    
C70   H38   1.078579 S    
C176  C184  1.425306 A    
C83   C88   1.397980 A    
C81   C89   1.410916 A    
C175  C183  1.425547 A    
C53   C61   1.399841 A    
C15   N15   1.339900 A    
N2    N28   1.386459 A    
C16   N16   1.334746 A    
C170  C178  1.420540 A    
C158  C178  1.417279 A    
O19   H75   0.988271 S    
C51   H27   1.079678 S    
C148  C156  1.412859 A    
C169  O17   1.385267 S    
C50   C58   1.400273 A    
C119  C143  1.396538 A    
N36   O31   1.301238 A    
C137  C145  1.402807 A    
N12   Ni5   1.829854 S    
C152  C160  1.428896 A    
C10   C42   1.383372 A    
C58   C66   1.402163 A    
C125  O13   1.379482 S    
C66   C74   1.398675 A    
