data_mof_unit_19445.cif
_audit_creation_date              2012-12-10T19:47:27-0500
_audit_creation_method            fapswitch 2.2
_symmetry_space_group_name_H-M    P1
_symmetry_Int_Tables_number       1
_space_group_crystal_system       triclinic
_cell_length_a                    10.89647
_cell_length_b                    10.880688
_cell_length_c                    12.711453
_cell_angle_alpha                 91.963655
_cell_angle_beta                  90.829001
_cell_angle_gamma                 90.055222
_cell_volume                      1506.03945213

loop_
_atom_site_label
_atom_site_type_symbol
_atom_type_description
_atom_site_fract_x
_atom_site_fract_y
_atom_site_fract_z
_atom_type_partial_charge
C1    C     C_R   0.261913 0.499868 0.502369 0.796025
C2    C     C_R   0.738106 0.500475 0.497575 0.793137
C3    C     C_R   0.496847 0.871768 0.496687 -0.090830
C4    C     C_R   0.504871 0.128309 0.503334 -0.091531
C5    C     C_R   0.471379 0.936250 0.404299 -0.002826
C6    C     C_R   0.531281 0.063895 0.595620 -0.002566
C7    C     C_R   0.185207 0.461766 0.869438 -0.144884
C8    C     C_R   0.808946 0.549755 0.133924 -0.229181
C9    C     C_R   0.158350 0.444386 0.762139 -0.081864
C10   C     C_R   0.834938 0.561198 0.241776 -0.077775
C11   C     C_R   0.115534 0.542996 0.703663 0.054409
C12   C     C_R   0.885112 0.461772 0.295029 0.059051
C13   C     C_R   0.101073 0.659111 0.753407 -0.224777
C14   C     C_R   0.908493 0.350942 0.239023 -0.247492
C15   C     C_R   0.125905 0.676288 0.861255 0.408760
C16   C     C_R   0.885520 0.340295 0.130459 0.469839
C17   C     C_R   0.167930 0.576947 0.919206 -0.233276
C18   C     C_R   0.835012 0.440096 0.078090 -0.207607
C19   C     C_R   0.934104 0.521439 0.591035 -0.226290
C20   C     C_R   0.066023 0.479414 0.408734 -0.227722
C21   C     C_R   0.871669 0.501833 0.494673 -0.093231
C22   C     C_R   0.128371 0.498937 0.505066 -0.092001
C23   C     C_R   0.502637 0.261949 0.501439 0.794814
C24   C     C_R   0.497962 0.738088 0.498558 0.792943
C25   C     C_R   0.938955 0.481072 0.401778 0.021052
C26   C     C_R   0.061139 0.520179 0.597751 0.018863
C27   C     C_2   0.470616 0.461084 0.031823 -0.287951
C28   C     C_2   0.528620 0.538657 0.968123 -0.292772
C29   C     C_1   0.522920 0.526694 0.852579 0.221842
C30   C     C_1   0.476692 0.473155 0.147410 0.226393
C31   C     C_R   0.706662 0.249136 0.806039 -0.084515
C32   C     C_R   0.298729 0.755171 0.189803 -0.052914
C33   C     C_R   0.675197 0.192416 0.709115 -0.086198
C34   C     C_R   0.328874 0.809951 0.287786 -0.079575
C35   C     C_R   0.566059 0.123984 0.698024 0.112201
C36   C     C_R   0.438834 0.876510 0.301344 0.111585
C37   C     C_R   0.491585 0.109238 0.786042 -0.143628
C38   C     C_R   0.515906 0.890891 0.214953 -0.148218
C39   C     C_R   0.524680 0.164139 0.883261 -0.140457
C40   C     C_R   0.484256 0.837885 0.116721 -0.146001
C41   C     C_R   0.631745 0.234476 0.893079 -0.048056
C42   C     C_R   0.376026 0.769845 0.104282 -0.040261
C43   C     C_R   0.525892 0.936582 0.590975 -0.212633
C44   C     C_R   0.476185 0.063494 0.409054 -0.211837
Cu1   Cu    Cu3+1 0.492140 0.492110 0.395880 0.981159
Cu2   Cu    Cu3+1 0.507860 0.507890 0.604120 0.981179
H1    H     H_    0.656183 0.277851 0.968205 0.159697
H2    H     H_    0.352623 0.728356 0.028246 0.159786
H3    H     H_    0.064674 0.734422 0.708952 0.172226
H4    H     H_    0.951032 0.275407 0.279217 0.175027
H5    H     H_    0.581395 0.614583 0.002727 0.160245
H6    H     H_    0.417596 0.385267 0.997170 0.162849
H7    H     H_    0.788801 0.304802 0.813392 0.159037
H8    H     H_    0.215518 0.701391 0.180377 0.146952
H9    H     H_    0.734382 0.203526 0.642343 0.115077
H10   H     H_    0.267753 0.799242 0.353319 0.115239
H11   H     H_    0.184921 0.587639 0.003031 0.151189
H12   H     H_    0.818387 0.434220 0.993940 0.162017
H13   H     H_    0.166175 0.353363 0.725625 0.140153
H14   H     H_    0.820594 0.648762 0.282863 0.141024
N1    N     N_1   0.480320 0.480250 0.239400 -0.158058
N2    N     N_1   0.519680 0.519750 0.760600 -0.157779
O1    O     O_R   0.313000 0.493330 0.412070 -0.588853
O2    O     O_R   0.687000 0.506670 0.587930 -0.588977
O3    O     O_R   0.326280 0.506660 0.587930 -0.570844
O4    O     O_R   0.673720 0.493340 0.412070 -0.571117
O5    O     O_R   0.493370 0.312980 0.412070 -0.578698
O6    O     O_R   0.506630 0.687020 0.587930 -0.578766
O7    O     O_R   0.506650 0.326310 0.587930 -0.575386
O8    O     O_R   0.493350 0.673690 0.412070 -0.577942
S1    S     S_3+6 0.097205 0.820233 0.923902 0.004825
O9    O     O_2   0.212317 0.896293 0.923474 -0.275281
O10   O     O_2   0.997368 0.886649 0.866111 -0.284039
O11   O     O_3   0.054817 0.802006 0.049022 -0.502653
H15   H     H_    0.980072 0.750144 0.043732 0.337898
S2    S     S_3+6 0.928471 0.205340 0.059792 0.003293
O12   O     O_2   0.034115 0.144792 0.114938 -0.243379
O13   O     O_2   0.821333 0.118226 0.053571 -0.290501
O14   O     O_3   0.970503 0.240259 0.937638 -0.577670
H16   H     H_    0.989818 0.160222 0.902260 0.406878
H17   H     H_    0.883846 0.537770 0.663232 0.173701
H18   H     H_    0.116496 0.463715 0.336573 0.174407
H19   H     H_    0.407863 0.055605 0.779165 0.163627
H20   H     H_    0.600314 0.943153 0.223816 0.156635
H21   H     H_    0.467024 0.152654 0.950867 0.156198
H22   H     H_    0.543774 0.849273 0.050299 0.151139
H23   H     H_    0.547451 0.887948 0.661977 0.174560
H24   H     H_    0.454746 0.112061 0.337987 0.176779
H25   H     H_    0.215399 0.384769 0.914755 0.173463
H26   H     H_    0.772892 0.627671 0.092962 0.151641

loop_
_geom_bond_atom_site_label_1
_geom_bond_atom_site_label_2
_ccdc_geom_bond_type
C33   H9    S    
C34   H10   S    
C20   H18   S    
C23   O7    A    
S2    O14   S    
C24   O8    A    
C39   C41   A    
Cu1   Cu2   S    
C3    C43   A    
Cu2   N2    S    
C28   C29   S    
C35   C37   A    
S2    O13   D    
C28   H5    S    
C20   C25   A    
C23   O5    A    
C7    H25   S    
C5    C36   S    
C6    C35   S    
C15   C17   A    
C40   H22   S    
C19   C26   A    
Cu2   O7    S    
C18   H12   S    
C7    C17   A    
Cu1   O5    S    
C1    O3    A    
C31   C33   A    
C40   C42   A    
C1    C22   S    
C27   C30   S    
C3    C24   S    
C1    O1    A    
C32   H8    S    
C2    O2    A    
O11   H15   S    
S2    O12   D    
Cu2   O3    S    
C4    C6    A    
S1    O10   D    
C4    C23   S    
C4    C44   A    
C11   C26   S    
C2    O4    A    
Cu1   O1    S    
C8    C18   A    
Cu2   O2    S    
C9    H13   S    
C32   C34   A    
C10   H14   S    
Cu2   O6    S    
C2    C21   S    
C41   H1    S    
C42   H2    S    
C31   H7    S    
C9    C11   A    
C10   C12   A    
C13   H3    S    
C16   C18   A    
C5    C44   A    
C12   C14   A    
C6    C43   A    
C13   C15   A    
C14   C16   A    
C8    H26   S    
C39   H21   S    
Cu1   O4    S    
C27   H6    S    
C7    C9    A    
C21   C25   A    
C29   N2    T    
C31   C41   A    
C38   H20   S    
Cu1   O8    S    
C16   S2    S    
C20   C22   A    
C3    C5    A    
S1    O11   S    
C15   S1    S    
C12   C25   S    
C43   H23   S    
C36   C38   A    
S1    O9    D    
C37   C39   A    
C44   H24   S    
C38   C40   A    
C11   C13   A    
C14   H4    S    
Cu1   N1    S    
C33   C35   A    
C34   C36   A    
C24   O6    A    
O14   H16   S    
C8    C10   A    
C22   C26   A    
C30   N1    T    
C27   C28   D    
C32   C42   A    
C37   H19   S    
C19   H17   S    
C17   H11   S    
C19   C21   A    
