data_mof_unit_34178.cif
_audit_creation_date              2012-12-10T18:44:27-0500
_audit_creation_method            fapswitch 2.2
_symmetry_space_group_name_H-M    P1
_symmetry_Int_Tables_number       1
_space_group_crystal_system       triclinic
_cell_length_a                    12.896652
_cell_length_b                    10.656633
_cell_length_c                    9.840945
_cell_angle_alpha                 89.676168
_cell_angle_beta                  96.891466
_cell_angle_gamma                 90.024261
_cell_volume                      1342.69624655

loop_
_atom_site_label
_atom_site_type_symbol
_atom_type_description
_atom_site_fract_x
_atom_site_fract_y
_atom_site_fract_z
_atom_type_partial_charge
C1    C     C_R   0.503708 0.260257 0.500947 0.924515
C2    C     C_R   0.701865 0.500148 0.526483 0.929518
C3    C     C_R   0.813882 0.500576 0.542007 -0.037235
C4    C     C_R   0.186118 0.499423 0.457993 -0.037235
C5    C     C_R   0.021075 0.481263 0.317297 -0.207209
C6    C     C_R   0.978924 0.518737 0.682703 -0.207209
C7    C     C_R   0.128971 0.484883 0.328772 -0.202434
C8    C     C_R   0.871028 0.515117 0.671227 -0.202434
C9    C     C_R   0.136084 0.511681 0.575383 -0.226733
C10   C     C_R   0.863915 0.488319 0.424617 -0.226733
C11   C     C_R   0.028939 0.507749 0.564997 0.171967
C12   C     C_R   0.496292 0.739742 0.499053 0.924514
C13   C     C_R   0.971061 0.492251 0.435003 0.171967
C14   C     C_R   0.575109 0.061165 0.428509 -0.021745
C15   C     C_R   0.424891 0.938835 0.571491 -0.021745
C16   C     C_R   0.566257 0.932322 0.425213 -0.237345
C17   C     C_R   0.433742 0.067678 0.574787 -0.237345
C18   C     C_2   0.659089 0.121030 0.359278 0.914665
C19   C     C_2   0.340911 0.878970 0.640722 0.914664
C20   C     C_R   0.493411 0.872272 0.497087 -0.116459
C21   C     C_R   0.506589 0.127728 0.502913 -0.116459
C22   C     C_R   0.566654 0.575808 0.081917 -0.053975
C23   C     C_R   0.433346 0.424192 0.918083 -0.053976
C24   C     C_R   0.566632 0.575758 0.938014 -0.060058
C25   C     C_R   0.433368 0.424242 0.061986 -0.060058
C26   C     C_R   0.298135 0.499852 0.473517 0.929518
H1    H     H_    0.819761 0.476150 0.324561 0.167832
H2    H     H_    0.380077 0.363561 0.855587 0.131966
H3    H     H_    0.619907 0.636301 0.891433 0.129455
H4    H     H_    0.380093 0.363699 0.108567 0.129455
H5    H     H_    0.751160 0.112344 0.207603 0.345502
H6    H     H_    0.248840 0.887656 0.792397 0.345502
H7    H     H_    0.180239 0.523850 0.675439 0.167832
H8    H     H_    0.832554 0.524749 0.762604 0.161376
H9    H     H_    0.167446 0.475251 0.237396 0.161376
H10   H     H_    0.976990 0.469525 0.217250 0.140677
H11   H     H_    0.023010 0.530474 0.782750 0.140677
H12   H     H_    0.619382 0.877576 0.371597 0.180626
H13   H     H_    0.380617 0.122424 0.628403 0.180626
H14   H     H_    0.619923 0.636439 0.144413 0.131966
N1    N     N_R   0.499970 0.499970 0.857200 -0.084804
N2    N     N_R   0.500030 0.500030 0.142800 -0.084805
O1    O     O_R   0.499990 0.316750 0.614620 -0.621992
O2    O     O_R   0.693131 0.063701 0.245031 -0.807144
O3    O     O_2   0.299195 0.782181 0.596063 -0.641707
O4    O     O_R   0.306869 0.936299 0.754968 -0.807144
O5    O     O_R   0.500010 0.683250 0.385380 -0.621992
O6    O     O_R   0.499990 0.316780 0.385290 -0.608567
O7    O     O_R   0.500010 0.683220 0.614710 -0.608566
O8    O     O_R   0.346360 0.499970 0.595710 -0.613042
O9    O     O_R   0.653640 0.500030 0.404290 -0.613042
O10   O     O_R   0.346360 0.499990 0.366380 -0.636054
O11   O     O_R   0.653640 0.500010 0.633620 -0.636054
O12   O     O_2   0.700805 0.217819 0.403937 -0.641707
Zn1   Zn    Zn3+2 0.500000 0.499980 0.653120 0.978404
Zn2   Zn    Zn3+2 0.500000 0.500020 0.346880 0.978404

loop_
_geom_bond_atom_site_label_1
_geom_bond_atom_site_label_2
_ccdc_geom_bond_type
C25   N2    A    
C10   H1    S    
C9    H7    S    
C19   O3    D    
C1    O6    A    
C1    C21   S    
C26   O10   A    
C11   C13   A    
C14   C18   S    
C5    C13   A    
O8    Zn1   S    
C23   N1    A    
O6    Zn2   S    
C16   C20   A    
C22   H14   S    
H5    O2    S    
C12   C20   S    
C26   O8    A    
O11   Zn1   S    
C2    C3    S    
C19   O4    S    
C10   C13   A    
C3    C10   A    
C8    H8    S    
C23   H2    S    
C15   C19   S    
C24   N1    A    
C9    C11   A    
C22   N2    A    
H6    O4    S    
C12   O5    A    
C14   C21   A    
O1    Zn1   S    
C12   O7    A    
C22   C24   A    
C23   C25   A    
C15   C20   A    
N2    Zn2   S    
C14   C16   A    
C4    C26   S    
C6    H11   S    
C2    O9    A    
C18   O12   D    
C5    H10   S    
O10   Zn2   S    
C18   O2    S    
C25   H4    S    
C5    C7    A    
C3    C8    A    
C17   H13   S    
C6    C11   A    
C15   C17   A    
C24   H3    S    
N1    Zn1   S    
C6    C8    A    
C4    C7    A    
C4    C9    A    
O7    Zn1   S    
C7    H9    S    
C1    O1    A    
C17   C21   A    
O9    Zn2   S    
C16   H12   S    
O5    Zn2   S    
C2    O11   A    
