data_mof_unit_66382.cif
_audit_creation_date              2012-12-10T18:54:57-0500
_audit_creation_method            fapswitch 2.2
_symmetry_space_group_name_H-M    P1
_symmetry_Int_Tables_number       1
_space_group_crystal_system       triclinic
_cell_length_a                    19.414553
_cell_length_b                    18.132178
_cell_length_c                    15.989416
_cell_angle_alpha                 89.994746
_cell_angle_beta                  90.212571
_cell_angle_gamma                 90.001623
_cell_volume                      5628.68546253

loop_
_atom_site_label
_atom_site_type_symbol
_atom_type_description
_atom_site_fract_x
_atom_site_fract_y
_atom_site_fract_z
_atom_type_partial_charge
C1    C     C_R   0.367408 0.499999 0.499873 0.847142
C2    C     C_R   0.632592 0.500000 0.500128 0.847607
C3    C     C_R   0.708339 0.500001 0.500240 -0.169793
C4    C     C_R   0.291663 0.500001 0.499765 -0.169099
C5    C     C_R   0.964416 0.500120 0.575993 -0.029940
C6    C     C_R   0.035587 0.500002 0.424027 -0.029989
C7    C     C_R   0.036114 0.500085 0.575943 -0.031579
C8    C     C_R   0.963890 0.499953 0.424077 -0.031520
C9    C     C_R   0.071735 0.500035 0.499960 0.160252
C10   C     C_R   0.928268 0.500022 0.500060 0.160394
C11   C     C_R   0.457406 0.720865 0.446712 0.094835
C12   C     C_R   0.547264 0.278905 0.546905 0.087689
C13   C     C_R   0.542453 0.721296 0.553071 0.082761
C14   C     C_R   0.452705 0.278898 0.453163 0.089832
C15   C     C_R   0.456371 0.798321 0.445590 -0.278918
C16   C     C_R   0.548194 0.201424 0.547715 -0.225148
C17   C     C_R   0.542767 0.798793 0.554163 -0.228431
C18   C     C_R   0.451679 0.201420 0.452542 -0.230855
C19   C     C_R   0.499036 0.838380 0.500262 0.153928
C20   C     C_R   0.499908 0.161524 0.500178 0.185812
C21   C     C_R   0.557862 0.960335 0.474207 0.093361
C22   C     C_R   0.440946 0.039395 0.527014 0.119230
C23   C     C_R   0.440388 0.961334 0.527179 0.063324
C24   C     C_R   0.558299 0.038774 0.474207 0.060175
C25   C     C_R   0.499717 0.078634 0.500401 0.034243
C26   C     C_R   0.498855 0.921186 0.500260 0.009794
C27   C     C_R   0.499929 0.500004 0.341051 0.834418
C28   C     C_R   0.500070 0.499998 0.658949 0.834204
C29   C     C_R   0.499235 0.566939 0.956338 -0.161610
C30   C     C_R   0.500759 0.433081 0.043661 -0.159999
C31   C     C_R   0.499184 0.566944 0.043631 -0.160841
C32   C     C_R   0.500810 0.433077 0.956369 -0.159747
C33   C     C_R   0.500048 0.500006 0.912731 0.148850
C34   C     C_R   0.499946 0.500014 0.087269 0.148581
C35   C     C_1   0.500078 0.500000 0.823216 -0.052942
C36   C     C_1   0.499917 0.500017 0.176784 -0.052355
C37   C     C_1   0.499912 0.500013 0.251877 -0.159452
C38   C     C_1   0.500085 0.499996 0.748123 -0.160516
C39   C     C_R   0.744620 0.433264 0.497386 -0.236795
C40   C     C_R   0.255379 0.566741 0.496735 -0.263765
C41   C     C_R   0.255376 0.433267 0.502660 -0.236634
C42   C     C_R   0.744631 0.566739 0.503236 -0.262147
C43   C     C_R   0.816528 0.432499 0.497397 0.405632
C44   C     C_R   0.183467 0.567544 0.496982 0.352639
C45   C     C_R   0.183468 0.432507 0.502662 0.405371
C46   C     C_R   0.816543 0.567538 0.502991 0.351921
C47   C     C_R   0.852834 0.500023 0.500104 -0.182186
C48   C     C_R   0.147169 0.500033 0.499915 -0.182239
Cu1   Cu    Cu3+1 0.500000 0.573360 0.500000 0.953442
Cu2   Cu    Cu3+1 0.500000 0.426640 0.500000 0.961807
H1    H     H_    0.498555 0.618933 0.077029 0.145585
H2    H     H_    0.501438 0.381087 0.922972 0.146584
H3    H     H_    0.498640 0.618926 0.922917 0.144831
H4    H     H_    0.501354 0.381094 0.077082 0.146625
H5    H     H_    0.716753 0.381608 0.495086 0.213822
H6    H     H_    0.283257 0.618357 0.494002 0.193440
H7    H     H_    0.283238 0.381611 0.504986 0.213766
H8    H     H_    0.716758 0.618359 0.505939 0.195674
H9    H     H_    0.937019 0.500150 0.634881 0.152444
H10   H     H_    0.062984 0.499939 0.365139 0.152456
H11   H     H_    0.063923 0.500165 0.634796 0.151227
H12   H     H_    0.936080 0.499936 0.365224 0.151259
H13   H     H_    0.424126 0.690468 0.404668 0.132395
H14   H     H_    0.584417 0.309105 0.584059 0.132250
H15   H     H_    0.576203 0.691235 0.594880 0.131264
H16   H     H_    0.415563 0.309087 0.415978 0.132345
H17   H     H_    0.422787 0.826738 0.402029 0.147201
H18   H     H_    0.585975 0.172826 0.585712 0.153333
H19   H     H_    0.576683 0.827675 0.596958 0.151778
H20   H     H_    0.413814 0.172811 0.414680 0.152909
N1    N     N_R   0.500000 0.683620 0.500000 -0.178180
N2    N     N_R   0.500000 0.316380 0.500000 -0.179083
O1    O     O_R   0.400190 0.561980 0.499990 -0.589389
O2    O     O_R   0.599810 0.438020 0.500010 -0.589699
O3    O     O_R   0.599810 0.561980 0.500010 -0.586570
O4    O     O_R   0.400190 0.438020 0.499990 -0.589510
O5    O     O_R   0.499980 0.561940 0.380310 -0.580522
O6    O     O_R   0.500020 0.438060 0.619690 -0.576100
O7    O     O_R   0.500020 0.561940 0.619690 -0.582266
O8    O     O_R   0.499980 0.438060 0.380310 -0.576396
S1    S     S_3+6 0.859588 0.346336 0.494009 0.029071
O9    O     O_2   0.901396 0.341819 0.415263 -0.252854
O10   O     O_2   0.906808 0.339678 0.568322 -0.246965
O11   O     O_3   0.802562 0.276492 0.495479 -0.540153
H21   H     H_    0.830923 0.231135 0.493061 0.390292
S2    S     S_3+6 0.140364 0.653712 0.492934 0.049720
O12   O     O_2   0.099906 0.658628 0.412849 -0.210313
O13   O     O_2   0.091457 0.660234 0.565218 -0.247053
O14   O     O_3   0.196808 0.724072 0.496362 -0.502696
H22   H     H_    0.212845 0.725979 0.555215 0.346535
S3    S     S_3+6 0.140399 0.346349 0.506115 0.029567
O15   O     O_2   0.098495 0.341916 0.584794 -0.252449
O16   O     O_2   0.093268 0.339614 0.431729 -0.247013
O17   O     O_3   0.197422 0.276501 0.504856 -0.539365
H23   H     H_    0.169054 0.231148 0.507277 0.391159
S4    S     S_3+6 0.859656 0.653703 0.506988 0.049792
O18   O     O_2   0.899989 0.658705 0.587159 -0.210722
O19   O     O_2   0.908679 0.660141 0.434808 -0.247436
O20   O     O_3   0.803229 0.724066 0.503313 -0.500089
H24   H     H_    0.787257 0.725879 0.444430 0.348545
N3    N     N_3   0.616951 0.919676 0.446532 -0.571488
H25   H     H_    0.659087 0.933868 0.484064 0.234177
H26   H     H_    0.627613 0.934315 0.384715 0.230440
N4    N     N_3   0.381940 0.079436 0.555940 -0.564915
H27   H     H_    0.372103 0.063731 0.617669 0.254618
H28   H     H_    0.339568 0.064387 0.519178 0.252341
N5    N     N_3   0.380369 0.923941 0.557640 -0.580125
H29   H     H_    0.359022 0.892844 0.509083 0.239091
H30   H     H_    0.395207 0.888285 0.605838 0.233689
N6    N     N_3   0.617657 0.078624 0.445891 -0.576112
H31   H     H_    0.627771 0.063731 0.384015 0.234009
H32   H     H_    0.659869 0.063973 0.483069 0.232484

loop_
_geom_bond_atom_site_label_1
_geom_bond_atom_site_label_2
_ccdc_geom_bond_type
C18   H20   S    
C21   C26   A    
C3    C42   A    
C17   H19   S    
N3    H25   S    
C14   C18   A    
C42   H8    S    
C6    C9    A    
N4    H28   S    
S1    O9    D    
C13   H15   S    
C15   C19   A    
C30   H4    S    
C36   C37   T    
C11   H13   S    
Cu2   O2    S    
C12   H14   S    
C11   N1    A    
C20   C25   S    
S4    O20   S    
C29   C33   A    
C22   N4    S    
C42   C46   A    
C23   C26   A    
C19   C26   S    
C28   O7    A    
Cu2   N2    S    
N6    H31   S    
C7    H11   S    
C33   C35   S    
C11   C15   A    
C39   H5    S    
C4    C40   A    
C40   H6    S    
C22   C25   A    
S4    O19   D    
N5    H29   S    
Cu1   O3    S    
C16   H18   S    
C28   O6    A    
C18   C20   A    
C2    O2    A    
C21   N3    S    
C12   N2    A    
C15   H17   S    
N3    H26   S    
C4    C41   A    
N5    H30   S    
C44   S2    S    
Cu2   O6    S    
N4    H27   S    
S1    O10   D    
C12   C16   A    
C5    H9    S    
S2    O13   D    
C6    H10   S    
C35   C38   T    
C24   N6    S    
C24   C25   A    
C27   O8    A    
S3    O15   D    
C5    C7    A    
C30   C34   A    
S2    O12   D    
C6    C8    A    
C13   N1    A    
Cu1   O7    S    
Cu2   O4    S    
S3    O16   D    
O20   H24   S    
C28   C38   S    
C16   C20   A    
C23   N5    S    
S4    O18   D    
C14   H16   S    
C31   C34   A    
C32   H2    S    
O11   H21   S    
C43   S1    S    
Cu1   O1    S    
S1    O11   S    
C45   C48   A    
C7    C9    A    
C46   C47   A    
C1    O4    A    
C14   N2    A    
C31   H1    S    
C27   O5    A    
S2    O14   S    
Cu2   O8    S    
C39   C43   A    
C13   C17   A    
C1    C4    S    
C1    O1    A    
C32   C33   A    
C2    C3    S    
C41   H7    S    
C5    C10   A    
C29   C31   A    
S3    O17   S    
C30   C32   A    
C29   H3    S    
C27   C37   S    
C17   C19   A    
Cu1   O5    S    
C34   C36   S    
O17   H23   S    
C45   S3    S    
N6    H32   S    
C3    C39   A    
C40   C44   A    
C46   S4    S    
C9    C48   S    
C8    C10   A    
Cu1   Cu2   S    
Cu1   N1    S    
C21   C24   A    
C10   C47   S    
C41   C45   A    
C22   C23   A    
O14   H22   S    
C43   C47   A    
C2    O3    A    
C44   C48   A    
C8    H12   S    
