data_mof_unit_15808.cif
_audit_creation_date              2012-12-10T17:52:17-0500
_audit_creation_method            fapswitch 2.2
_symmetry_space_group_name_H-M    P1
_symmetry_Int_Tables_number       1
_space_group_crystal_system       triclinic
_cell_length_a                    19.118453
_cell_length_b                    10.711337
_cell_length_c                    9.957514
_cell_angle_alpha                 87.891553
_cell_angle_beta                  90.71686
_cell_angle_gamma                 93.444451
_cell_volume                      2033.97129403

loop_
_atom_site_label
_atom_site_type_symbol
_atom_type_description
_atom_site_fract_x
_atom_site_fract_y
_atom_site_fract_z
_atom_type_partial_charge
C1    C     C_R   0.505942 0.260752 0.503892 1.009131
C2    C     C_R   0.856838 0.544614 0.505470 -0.110828
C3    C     C_R   0.498761 0.091971 0.764681 0.377289
C4    C     C_R   0.366226 0.505461 0.499336 0.905895
C5    C     C_R   0.456534 0.026610 0.863968 -0.090135
C6    C     C_R   0.416834 0.918623 0.827869 -0.254710
C7    C     C_R   0.424648 0.869154 0.702555 -0.089659
C8    C     C_R   0.468940 0.931218 0.606230 0.066553
C9    C     C_R   0.495025 0.052990 0.628922 0.025933
C10   C     C_R   0.514955 0.127777 0.513198 -0.120630
C11   C     C_R   0.528969 0.073025 0.392489 -0.189449
C12   C     C_R   0.291813 0.523778 0.499680 -0.080433
C13   C     C_R   0.517665 0.946169 0.378403 -0.042982
C14   C     C_R   0.489584 0.873469 0.489067 -0.161546
C15   C     C_R   0.376785 0.412298 0.134904 0.435205
C16   C     C_R   0.495672 0.739661 0.496569 0.910980
C17   C     C_R   0.313542 0.430802 0.063789 -0.159935
C18   C     C_R   0.317215 0.451788 0.924782 -0.373127
C19   C     C_R   0.377403 0.416373 0.862509 0.063371
C20   C     C_R   0.441619 0.450671 0.927897 -0.012206
C21   C     C_R   0.441224 0.451699 0.071956 0.099051
C22   C     C_R   0.555138 0.548790 0.071596 -0.116647
C23   C     C_R   0.932713 0.552646 0.502904 0.412882
C24   C     C_R   0.554723 0.551544 0.929266 0.456085
C25   C     C_R   0.634370 0.502155 0.500472 0.937802
C26   C     C_R   0.248754 0.433280 0.566876 -0.171486
C27   C     C_R   0.177493 0.447493 0.578949 -0.031823
C28   C     C_R   0.148706 0.553517 0.516403 -0.059247
C29   C     C_R   0.191864 0.648420 0.451050 -0.049054
C30   C     C_R   0.264452 0.633918 0.443929 -0.093747
C31   C     C_2   0.450380 0.068577 0.004393 1.007318
C32   C     C_2   0.532766 0.898084 0.244014 0.979064
C33   C     C_2   0.243959 0.405268 0.127900 1.091698
C34   C     C_R   0.073168 0.557681 0.507354 0.373545
C35   C     C_2   0.364965 0.287805 0.812340 0.889011
C36   C     C_2   0.134879 0.350958 0.659275 0.922908
C37   C     C_2   0.160465 0.757538 0.382240 0.940192
C38   C     C_2   0.310763 0.730801 0.374090 0.890399
C39   C     C_2   0.715071 0.310845 0.630665 1.046879
C40   C     C_2   0.704386 0.710239 0.351047 0.980174
C41   C     C_2   0.856062 0.744562 0.365095 1.004276
C42   C     C_R   0.822917 0.442103 0.574703 0.372034
C43   C     C_R   0.749786 0.426834 0.571596 -0.131151
C44   C     C_R   0.710839 0.516222 0.501168 -0.204589
C45   C     C_R   0.745035 0.620188 0.432067 -0.084698
C46   C     C_R   0.818718 0.634969 0.434992 -0.125630
Cl1   Cl    Cl    0.568722 0.195640 0.816468 -0.495669
Cl2   Cl    Cl    0.373061 0.282815 0.249596 -0.547404
Cl3   Cl    Cl    0.624694 0.635605 0.848826 -0.494721
Cl4   Cl    Cl    0.872849 0.330243 0.662907 -0.458820
H1    H     H_    0.270994 0.350773 0.610635 0.200748
H2    H     H_    0.316324 0.116565 0.843861 0.370316
H3    H     H_    0.050382 0.308902 0.775664 0.395435
H4    H     H_    0.155835 0.945052 0.365435 0.377604
H5    H     H_    0.353221 0.907660 0.370758 0.364800
H6    H     H_    0.658693 0.149918 0.596373 0.376470
H7    H     H_    0.690086 0.797028 0.170125 0.394444
H8    H     H_    0.934060 0.808311 0.241242 0.382154
H9    H     H_    0.382547 0.867553 0.899150 0.227304
H10   H     H_    0.395700 0.781964 0.681130 0.166865
H11   H     H_    0.599561 0.590863 0.125158 0.189607
H12   H     H_    0.269274 0.454651 0.865947 0.167923
H13   H     H_    0.546615 0.130574 0.306061 0.233055
H14   H     H_    0.401642 0.041665 0.182864 0.370546
H15   H     H_    0.498902 0.798062 0.085456 0.332339
H16   H     H_    0.199072 0.311464 0.971781 0.335994
N1    N     N_R   0.039623 0.648081 0.567606 -0.111000
N2    N     N_R   0.970051 0.645583 0.565376 -0.112739
N3    N     N_R   0.966406 0.463814 0.440805 -0.065635
N4    N     N_R   0.035756 0.466228 0.443130 -0.083506
N5    N     N_R   0.499340 0.498800 0.142780 -0.121719
N6    N     N_R   0.499320 0.498720 0.857170 -0.134318
O1    O     O_R   0.500000 0.316780 0.614690 -0.560131
O2    O     O_R   0.399266 0.009843 0.088375 -0.746423
O3    O     O_2   0.586710 0.934671 0.186488 -0.581832
O4    O     O_R   0.483201 0.820122 0.178068 -0.746284
O5    O     O_2   0.236256 0.432749 0.244069 -0.557867
O6    O     O_R   0.186664 0.348673 0.059687 -0.717021
O7    O     O_2   0.380097 0.263298 0.698462 -0.617181
O8    O     O_R   0.327665 0.197032 0.892248 -0.781528
O9    O     O_2   0.154024 0.244195 0.672227 -0.569310
O10   O     O_R   0.074151 0.382482 0.723737 -0.750329
O11   O     O_2   0.116140 0.740786 0.294076 -0.567597
O12   O     O_R   0.499990 0.316750 0.385360 -0.572497
O13   O     O_R   0.180985 0.878935 0.419390 -0.710989
O14   O     O_2   0.337845 0.708169 0.267834 -0.557222
O15   O     O_R   0.322357 0.848374 0.429160 -0.758247
O16   O     O_2   0.723891 0.282655 0.749519 -0.467801
O17   O     O_R   0.674637 0.231453 0.548204 -0.806472
O18   O     O_2   0.657376 0.763633 0.402583 -0.610676
O19   O     O_R   0.720829 0.734152 0.215739 -0.747973
O20   O     O_2   0.837145 0.850133 0.380450 -0.543550
O21   O     O_R   0.912880 0.726825 0.282224 -0.744340
O22   O     O_R   0.398140 0.500000 0.614700 -0.640711
O23   O     O_R   0.398130 0.499970 0.385370 -0.561063
O24   O     O_R   0.500010 0.683250 0.614640 -0.605690
O25   O     O_R   0.500000 0.683220 0.385310 -0.577767
O26   O     O_R   0.601870 0.500030 0.614630 -0.547495
O27   O     O_R   0.601860 0.500000 0.385300 -0.624721
O28   O     O_2   0.488040 0.154868 0.046785 -0.569924
Zn1   Zn    Zn3+2 0.500000 0.500020 0.653130 1.067568
Zn2   Zn    Zn3+2 0.500000 0.499980 0.346870 1.071038

loop_
_geom_bond_atom_site_label_1
_geom_bond_atom_site_label_2
_ccdc_geom_bond_type
O12   Zn2   S    
C22   N5    A    
C13   C32   S    
C19   C20   A    
C32   O3    D    
C7    C8    A    
C45   C46   A    
C2    C46   A    
C1    O12   A    
C26   C27   A    
H15   O4    S    
C21   N5    A    
C39   O16   D    
C37   O13   S    
C28   C29   A    
H8    O21   S    
C11   H13   S    
C5    C6    A    
C16   O25   A    
N6    Zn1   S    
C35   O8    S    
C30   C38   S    
C18   C19   A    
C3    Cl1   S    
C23   N3    A    
C25   O27   A    
C41   O21   S    
O22   Zn1   S    
C36   O10   S    
C8    C9    A    
C41   C46   S    
C4    C12   S    
C9    C10   A    
C34   N4    A    
O25   Zn2   S    
O23   Zn2   S    
O1    Zn1   S    
C28   C34   S    
O24   Zn1   S    
C17   C33   S    
C15   Cl2   S    
C25   C44   S    
C40   C45   S    
H16   O6    S    
C16   O24   A    
N1    N2    A    
C18   H12   S    
C31   O2    S    
C39   C43   S    
C12   C26   A    
H3    O10   S    
C23   N2    A    
C43   C44   A    
C29   C30   A    
C3    C9    A    
C4    O23   A    
C36   O9    D    
C41   O20   D    
C17   C18   A    
C31   O28   D    
C42   Cl4   S    
C4    O22   A    
H6    O17   S    
N5    Zn2   S    
C38   O14   D    
C14   C16   S    
C42   C43   A    
C7    H10   S    
C2    C23   S    
C44   C45   A    
C24   N6    A    
C24   Cl3   S    
C15   C17   A    
C8    C14   A    
H7    O19   S    
C12   C30   A    
H2    O8    S    
C6    H9    S    
C37   O11   D    
C1    C10   S    
C3    C5    A    
C34   N1    A    
C32   O4    S    
H4    O13   S    
C6    C7    A    
C27   C36   S    
O26   Zn1   S    
C38   O15   S    
C1    O1    A    
C19   C35   S    
C26   H1    S    
C22   H11   S    
C11   C13   A    
C33   O5    D    
C2    C42   A    
C35   O7    D    
C22   C24   A    
C40   O19   S    
H5    O15   S    
N3    N4    A    
C33   O6    S    
C10   C11   A    
C25   O26   A    
C15   C21   A    
O27   Zn2   S    
C20   C21   A    
C29   C37   S    
C27   C28   A    
H14   O2    S    
C20   N6    A    
C40   O18   D    
C13   C14   A    
C39   O17   S    
C5    C31   S    
