data_mof_unit_32900.cif
_audit_creation_date              2012-12-10T20:36:39-0500
_audit_creation_method            fapswitch 2.2
_symmetry_space_group_name_H-M    P1
_symmetry_Int_Tables_number       1
_space_group_crystal_system       triclinic
_cell_length_a                    10.503713
_cell_length_b                    10.638958
_cell_length_c                    9.899966
_cell_angle_alpha                 89.839726
_cell_angle_beta                  91.127053
_cell_angle_gamma                 90.047081
_cell_volume                      1106.08827594

loop_
_atom_site_label
_atom_site_type_symbol
_atom_type_description
_atom_site_fract_x
_atom_site_fract_y
_atom_site_fract_z
_atom_type_partial_charge
C1    C     C_R   0.500539 0.260465 0.500063 0.861375
C2    C     C_3   0.955608 0.611227 0.459733 0.480810
C3    C     C_3   0.036450 0.524906 0.372212 -0.236782
C4    C     C_3   0.122905 0.505490 0.497523 -0.094885
C5    C     C_R   0.601590 0.063694 0.562335 0.056862
C6    C     C_R   0.502939 0.128608 0.497472 -0.026190
C7    C     C_R   0.416383 0.065331 0.412471 -0.238061
C8    C     C_R   0.416735 0.935318 0.411505 -0.232215
C9    C     C_R   0.503568 0.871280 0.495679 -0.044065
C10   C     C_R   0.601915 0.935439 0.561067 0.078006
C11   C     C_3   0.656061 0.925467 0.701125 -0.522047
C12   C     C_R   0.257661 0.503131 0.498891 0.883646
C13   C     C_3   0.656769 0.068559 0.702766 0.241861
C14   C     C_R   0.473643 0.392532 0.070265 0.130586
C15   C     C_R   0.537690 0.602862 0.072407 -0.125844
C16   C     C_R   0.537784 0.602774 0.928782 -0.137986
C17   C     C_R   0.474284 0.392519 0.928195 0.214326
C18   C     C_3   0.356529 0.314989 0.916873 -0.516303
C19   C     C_3   0.355655 0.312842 0.070953 -0.031407
C20   C     C_R   0.500353 0.739503 0.499526 0.890898
C21   C     C_R   0.742461 0.499199 0.501361 0.921459
C22   C     C_3   0.044443 0.393406 0.542296 0.286375
C23   C     C_3   0.956781 0.409725 0.417836 -0.282562
C24   C     C_3   0.877287 0.499024 0.504141 -0.039973
C25   C     C_3   0.963707 0.479951 0.629977 -0.210585
C26   C     C_3   0.043562 0.594824 0.584063 -0.288412
H1    H     H_    0.917010 0.332778 0.354300 0.151583
H2    H     H_    0.753181 0.884010 0.703018 0.179832
H3    H     H_    0.752917 0.112176 0.708203 0.090082
H4    H     H_    0.566385 0.686730 0.126445 0.164164
H5    H     H_    0.566872 0.686287 0.875627 0.147485
H6    H     H_    0.276286 0.367449 0.868082 0.221058
H7    H     H_    0.373165 0.220921 0.872929 0.245954
H8    H     H_    0.373348 0.218469 0.116334 0.159750
H9    H     H_    0.930643 0.459778 0.733640 0.157448
H10   H     H_    0.082629 0.671560 0.648404 0.154198
H11   H     H_    0.069308 0.549192 0.269588 0.160829
H12   H     H_    0.345175 0.115906 0.353177 0.146749
H13   H     H_    0.345715 0.885250 0.351641 0.148590
H14   H     H_    0.588250 0.882970 0.772842 0.220129
N1    N     N_R   0.499140 0.499140 0.142800 -0.108243
N2    N     N_R   0.499140 0.499180 0.857150 -0.104833
O1    O     O_R   0.500020 0.316790 0.614690 -0.568447
O2    O     O_R   0.500000 0.316760 0.385350 -0.634466
O3    O     O_R   0.313960 0.499990 0.614650 -0.616131
O4    O     O_R   0.313940 0.499950 0.385310 -0.608761
O5    O     O_R   0.500000 0.683240 0.614650 -0.630633
O6    O     O_R   0.499980 0.683210 0.385310 -0.624684
O7    O     O_R   0.686060 0.500050 0.614690 -0.631691
O8    O     O_R   0.686040 0.500010 0.385350 -0.602261
Zn1   Zn    Zn3+2 0.500010 0.500020 0.653130 0.962208
Zn2   Zn    Zn3+2 0.499990 0.499980 0.346870 0.959720
O9    O     O_3   0.570922 0.117129 0.795307 -0.752418
H15   H     H_    0.616320 0.116238 0.884129 0.324887
N3    N     N_2   0.245191 0.376020 0.124487 -0.243008
H16   H     H_    0.230327 0.465885 0.087831 0.236340
C27   C     C_3   0.131233 0.299369 0.122878 -0.797470
H17   H     H_    0.048181 0.356347 0.152169 0.233564
H18   H     H_    0.142588 0.220053 0.195317 0.239648
H19   H     H_    0.111236 0.262057 0.019858 0.243850
N4    N     N_2   0.101706 0.275866 0.585317 -0.292835
H20   H     H_    0.163028 0.239556 0.515346 0.218939
C28   C     C_3   0.013539 0.183816 0.636137 -0.826713
H21   H     H_    0.066737 0.098979 0.670274 0.247594
H22   H     H_    0.944022 0.156233 0.555455 0.230809
H23   H     H_    0.962328 0.222325 0.723910 0.240077
O10   O     O_3   0.901825 0.725136 0.417106 -0.781808
H24   H     H_    0.975001 0.780166 0.395956 0.320025

loop_
_geom_bond_atom_site_label_1
_geom_bond_atom_site_label_2
_ccdc_geom_bond_type
C4    C26   S    
C23   C24   S    
C28   H22   S    
C6    C7    A    
C12   O3    A    
C8    H13   S    
C23   H1    S    
C4    C12   S    
C4    C22   S    
C9    C10   A    
N1    Zn2   S    
C5    C13   S    
N4    H20   S    
O6    Zn2   S    
N2    Zn1   S    
N3    H16   S    
O2    Zn2   S    
C21   O7    A    
C17   C18   S    
C28   H23   S    
C7    C8    A    
C2    C26   S    
O9    H15   S    
C16   H5    S    
C11   C13   S    
C14   C17   A    
O1    Zn1   S    
C27   H17   S    
C20   O6    A    
C11   H2    S    
C25   H9    S    
C14   N1    A    
C5    C6    A    
C13   H3    S    
C21   O8    A    
C7    H12   S    
C2    C3    S    
O10   H24   S    
C13   O9    S    
N3    C27   S    
C2    C24   S    
C11   H14   S    
C18   H7    S    
C27   H18   S    
C20   O5    A    
C18   H6    S    
C10   C11   S    
O3    Zn1   S    
C19   N3    S    
C1    C6    S    
C9    C20   S    
C22   C25   S    
O4    Zn2   S    
C5    C10   A    
C24   C25   S    
C15   N1    A    
C15   H4    S    
C12   O4    A    
C2    O10   S    
C21   C24   S    
C26   H10   S    
O8    Zn2   S    
N4    C28   S    
C17   N2    A    
C18   C19   S    
C27   H19   S    
O5    Zn1   S    
C1    O2    A    
O7    Zn1   S    
C25   C26   S    
C22   C23   S    
C16   N2    A    
C3    C23   S    
C14   C19   S    
C1    O1    A    
C15   C16   A    
C3    C4    S    
C28   H21   S    
C3    H11   S    
C8    C9    A    
C22   N4    S    
C19   H8    S    
