data_mof_unit_42334.cif
_audit_creation_date              2012-12-11T15:22:34-0500
_audit_creation_method            fapswitch 2.2
_symmetry_space_group_name_H-M    P1
_symmetry_Int_Tables_number       1
_space_group_crystal_system       triclinic
_cell_length_a                    22.534825
_cell_length_b                    13.045134
_cell_length_c                    27.026852
_cell_angle_alpha                 89.7518
_cell_angle_beta                  90.590368
_cell_angle_gamma                 90.048952
_cell_volume                      7944.57968925

loop_
_atom_site_label
_atom_site_type_symbol
_atom_type_description
_atom_site_fract_x
_atom_site_fract_y
_atom_site_fract_z
_atom_type_partial_charge
C1    C     C_R   0.718863 0.341755 0.176720 0.551506
C2    C     C_R   0.476361 0.257610 0.896063 -0.174979
C3    C     C_R   0.009508 0.573953 0.557634 0.313317
C4    C     C_R   0.500953 0.081463 0.391882 -0.145074
C5    C     C_R   0.502116 0.080446 0.610478 -0.142073
C6    C     C_R   0.999324 0.578569 0.390387 -0.143585
C7    C     C_R   0.000361 0.583578 0.609010 -0.143422
C8    C     C_R   0.733064 0.976551 0.376000 0.030081
C9    C     C_R   0.266280 0.974645 0.624508 0.030382
C10   C     C_R   0.233422 0.474949 0.375638 0.030551
C11   C     C_R   0.766373 0.475198 0.624417 0.030096
C12   C     C_R   0.681977 0.994255 0.404207 -0.129838
C13   C     C_R   0.015933 0.748671 0.101879 -0.127052
C14   C     C_R   0.317241 0.990752 0.595855 -0.128933
C15   C     C_R   0.182484 0.492137 0.404082 -0.129697
C16   C     C_R   0.817130 0.492744 0.595708 -0.129096
C17   C     C_R   0.683621 0.982304 0.455007 -0.141566
C18   C     C_R   0.315309 0.976324 0.545267 -0.141297
C19   C     C_R   0.184349 0.478927 0.454779 -0.142000
C20   C     C_R   0.815239 0.478382 0.545108 -0.141720
C21   C     C_R   0.735768 0.949330 0.478061 0.018689
C22   C     C_R   0.263031 0.942238 0.522872 0.018617
C23   C     C_R   0.236524 0.445032 0.477457 0.019055
C24   C     C_R   0.976354 0.757607 0.896066 -0.174942
C25   C     C_R   0.763215 0.443013 0.522767 0.017564
C26   C     C_R   0.786984 0.930705 0.450336 -0.129631
C27   C     C_R   0.211929 0.925109 0.551090 -0.128914
C28   C     C_R   0.287583 0.426784 0.449476 -0.129501
C29   C     C_R   0.712308 0.424536 0.551032 -0.129311
C30   C     C_R   0.785890 0.945707 0.399207 -0.147417
C31   C     C_R   0.213310 0.942628 0.601985 -0.146496
C32   C     C_R   0.286292 0.443136 0.398453 -0.147778
C33   C     C_R   0.713622 0.442006 0.601936 -0.146206
C34   C     C_R   0.770076 0.998272 0.560779 -0.134783
C35   C     C_R   0.507499 0.253099 0.050273 -0.023195
C36   C     C_R   0.226424 0.991191 0.440692 -0.133352
C37   C     C_R   0.272131 0.494288 0.559644 -0.132907
C38   C     C_R   0.727047 0.492125 0.440473 -0.134486
C39   C     C_R   0.721167 0.346367 0.321877 0.536749
C40   C     C_R   0.278862 0.346571 0.678138 0.544036
C41   C     C_R   0.221149 0.846365 0.321867 0.535179
C42   C     C_R   0.778851 0.846582 0.678136 0.545643
C43   C     C_R   0.781435 0.974611 0.610008 -0.149015
C44   C     C_R   0.215897 0.970015 0.391179 -0.146465
C45   C     C_R   0.283059 0.472093 0.609072 -0.145152
C46   C     C_R   0.490566 0.258956 0.946654 -0.039067
C47   C     C_R   0.716423 0.470712 0.390987 -0.149992
C48   C     C_R   0.719175 0.823441 0.601927 -0.108686
C49   C     C_R   0.281669 0.823258 0.397778 -0.107774
C50   C     C_R   0.218742 0.323278 0.602220 -0.109223
C51   C     C_R   0.781731 0.323324 0.397838 -0.106065
C52   C     C_R   0.707948 0.845242 0.551903 0.019514
C53   C     C_R   0.292038 0.842381 0.448130 0.017193
C54   C     C_R   0.208044 0.343429 0.551977 0.017330
C55   C     C_R   0.792087 0.342658 0.448184 0.019528
C56   C     C_R   0.736520 0.931630 0.531226 0.039729
C57   C     C_R   0.007491 0.753097 0.050276 -0.023187
C58   C     C_R   0.261547 0.925453 0.469648 0.038039
C59   C     C_R   0.237708 0.427981 0.530639 0.038848
C60   C     C_R   0.761818 0.426096 0.469556 0.038452
C61   C     C_R   0.757892 0.885045 0.630245 0.005096
C62   C     C_R   0.241679 0.883745 0.369986 0.005649
C63   C     C_R   0.258199 0.384389 0.630065 0.005330
C64   C     C_R   0.741858 0.383941 0.369945 0.005866
C65   C     C_R   0.554109 0.159355 0.321616 0.528211
C66   C     C_R   0.446173 0.159395 0.678561 0.528659
C67   C     C_R   0.054000 0.659010 0.321534 0.527643
C68   C     C_R   0.990557 0.758953 0.946658 -0.039072
C69   C     C_R   0.945836 0.659766 0.678372 0.529852
C70   C     C_R   0.730614 0.005310 0.324012 0.538359
C71   C     C_R   0.269265 0.005183 0.676145 0.541634
C72   C     C_R   0.230716 0.504924 0.323864 0.538357
C73   C     C_R   0.769276 0.505251 0.676123 0.541355
C74   C     C_R   0.534757 0.065296 0.096749 0.265116
C75   C     C_R   0.504189 0.077719 0.891126 0.265149
C76   C     C_R   0.034751 0.565294 0.096752 0.265122
C77   C     C_R   0.004181 0.577716 0.891130 0.265120
C78   C     C_R   0.527025 0.069184 0.045460 0.041727
C79   C     C_R   0.513863 0.163141 0.022029 -0.045555
C80   C     C_R   0.513160 0.075694 0.942360 0.044871
C81   C     C_R   0.027017 0.569182 0.045463 0.041733
C82   C     C_R   0.013151 0.575691 0.942364 0.044857
C83   C     C_R   0.525976 0.983177 0.966376 -0.135664
C84   C     C_R   0.532995 0.979870 0.017187 -0.140706
C85   C     C_R   0.025967 0.483174 0.966380 -0.135672
C86   C     C_R   0.032988 0.479868 0.017190 -0.140706
C87   C     C_3   0.567832 0.000987 0.838653 -0.121829
C88   C     C_3   0.501059 0.920385 0.133378 -0.131562
C89   C     C_3   0.067840 0.500966 0.838679 -0.121829
C90   C     C_R   0.506384 0.166312 0.970290 -0.039947
C91   C     C_3   0.001059 0.420385 0.133386 -0.131560
C92   C     C_3   0.862163 0.069186 0.873019 -0.094378
C93   C     C_3   0.105859 0.984078 0.110542 -0.082610
C94   C     C_3   0.362166 0.569178 0.873014 -0.094317
C95   C     C_3   0.605862 0.484087 0.110541 -0.082668
C96   C     C_3   0.550956 0.363623 0.382325 -0.224022
C97   C     C_3   0.517810 0.449280 0.409850 -0.325396
C98   C     C_3   0.526218 0.553166 0.384579 -0.462396
C99   C     C_3   0.453135 0.362096 0.619825 -0.222994
C100  C     C_3   0.473086 0.453914 0.587995 -0.326016
C101  C     C_R   0.013854 0.663138 0.022033 -0.045549
C102  C     C_3   0.467509 0.555002 0.615809 -0.457515
C103  C     C_3   0.046842 0.861178 0.379409 -0.222914
C104  C     C_3   0.028469 0.953131 0.411335 -0.326728
C105  C     C_3   0.033260 0.054167 0.382927 -0.460864
C106  C     C_3   0.945878 0.863754 0.615238 -0.225746
C107  C     C_3   0.981880 0.948438 0.589137 -0.325080
C108  C     C_3   0.970416 0.053372 0.612010 -0.460643
C109  C     C_3   0.526668 0.894873 0.562460 -0.120081
C110  C     C_3   0.476724 0.896604 0.442051 -0.120248
C111  C     C_3   0.026582 0.398460 0.560755 -0.120300
C112  C     C_R   0.279180 0.344121 0.822230 0.566981
C113  C     C_R   0.006374 0.666309 0.970293 -0.039948
C114  C     C_3   0.977470 0.392717 0.440261 -0.119685
C115  C     C_3   0.668835 0.776329 0.519460 -0.254293
C116  C     C_3   0.639810 0.684262 0.545523 -0.313902
C117  C     C_3   0.596439 0.627715 0.511288 -0.462509
C118  C     C_3   0.332193 0.773632 0.479932 -0.254045
C119  C     C_3   0.362251 0.684243 0.453011 -0.313920
C120  C     C_3   0.404986 0.625696 0.487090 -0.466917
C121  C     C_3   0.168480 0.274330 0.520039 -0.254168
C122  C     C_3   0.138268 0.184456 0.546925 -0.314237
C123  C     C_3   0.094923 0.127339 0.512948 -0.467660
C124  C     C_R   0.493521 0.346129 0.026401 0.298487
C125  C     C_3   0.831950 0.273800 0.480191 -0.251293
C126  C     C_3   0.863414 0.186042 0.453186 -0.313592
C127  C     C_3   0.905473 0.127102 0.487711 -0.465919
C128  C     C_3   0.521050 0.494420 0.938790 -0.146417
C129  C     C_3   0.428781 0.457787 0.060953 -0.126377
C130  C     C_3   0.021043 0.994417 0.938795 -0.146420
C131  C     C_3   0.928774 0.957795 0.060952 -0.126372
C132  C     C_3   0.700419 0.714578 0.889778 -0.217682
C133  C     C_3   0.642629 0.721425 0.858990 -0.262574
C134  C     C_3   0.590393 0.752077 0.891022 -0.462798
C135  C     C_R   0.485904 0.349657 0.974583 0.287431
C136  C     C_3   0.341714 0.872888 0.132414 -0.241341
C137  C     C_3   0.373508 0.769009 0.136462 -0.278570
C138  C     C_3   0.395259 0.728619 0.086745 -0.451878
C139  C     C_3   0.200429 0.214572 0.889783 -0.217705
C140  C     C_3   0.142635 0.221417 0.859001 -0.262552
C141  C     C_3   0.090401 0.252045 0.891041 -0.462800
C142  C     C_3   0.841715 0.372888 0.132414 -0.241333
C143  C     C_3   0.873509 0.269010 0.136461 -0.278577
C144  C     C_3   0.895260 0.228623 0.086742 -0.451871
C145  C     C_R   0.993512 0.846127 0.026405 0.298486
C146  C     C_R   0.985895 0.849654 0.974587 0.287428
C147  C     C_R   0.736486 0.973440 0.126747 0.017040
C148  C     C_R   0.256149 0.941966 0.865325 0.019991
C149  C     C_R   0.236487 0.473440 0.126747 0.017068
C150  C     C_R   0.756149 0.441967 0.865325 0.019982
C151  C     C_R   0.782781 0.013910 0.098274 -0.135242
C152  C     C_R   0.218863 0.841755 0.176720 0.551610
C153  C     C_R   0.201574 0.954119 0.888617 -0.140688
C154  C     C_R   0.282783 0.513908 0.098276 -0.135232
C155  C     C_R   0.701575 0.454123 0.888618 -0.140722
C156  C     C_R   0.780367 0.009401 0.046902 -0.123727
C157  C     C_R   0.195514 0.928134 0.938042 -0.122684
C158  C     C_R   0.280370 0.509401 0.046903 -0.123731
C159  C     C_R   0.695515 0.428138 0.938043 -0.122680
C160  C     C_R   0.732504 0.962015 0.022884 0.041880
C161  C     C_R   0.242754 0.882476 0.964648 0.039840
C162  C     C_R   0.232507 0.462019 0.022884 0.041875
C163  C     C_R   0.779179 0.844122 0.822230 0.566908
C164  C     C_R   0.742754 0.382477 0.964648 0.039845
C165  C     C_R   0.686627 0.919842 0.051538 -0.103535
C166  C     C_R   0.294722 0.857032 0.939037 -0.114546
C167  C     C_R   0.186628 0.419849 0.051537 -0.103543
C168  C     C_R   0.794722 0.357032 0.939036 -0.114546
C169  C     C_R   0.555534 0.156179 0.176469 0.560611
C170  C     C_R   0.447247 0.157567 0.821687 0.553372
C171  C     C_R   0.055532 0.656179 0.176470 0.560679
C172  C     C_R   0.947246 0.657567 0.821688 0.553558
C173  C     C_R   0.689254 0.923664 0.102900 -0.107051
C174  C     C_R   0.479506 0.165975 0.869017 -0.017867
C175  C     C_R   0.301742 0.888002 0.889929 -0.111073
C176  C     C_R   0.189253 0.423670 0.102899 -0.107052
C177  C     C_R   0.801741 0.388000 0.889928 -0.111071
C178  C     C_R   0.714805 0.849481 0.951465 -0.128803
C179  C     C_R   0.289609 0.874933 0.049890 -0.123581
C180  C     C_R   0.214813 0.349479 0.951468 -0.128795
C181  C     C_R   0.789610 0.374933 0.049890 -0.123587
C182  C     C_R   0.724025 0.819379 0.902979 -0.048517
C183  C     C_R   0.285373 0.867327 0.101766 -0.028076
C184  C     C_R   0.224033 0.319375 0.902982 -0.048522
C185  C     C_R   0.532240 0.156788 0.125091 -0.010891
C186  C     C_R   0.785374 0.367327 0.101766 -0.028077
C187  C     C_R   0.776360 0.980704 0.887686 0.257990
C188  C     C_R   0.177791 0.870321 0.092235 0.259535
C189  C     C_R   0.276362 0.480703 0.887687 0.257969
C190  C     C_R   0.677792 0.370325 0.092235 0.259564
C191  C     C_R   0.763143 0.011007 0.936353 -0.103168
C192  C     C_R   0.183355 0.863221 0.041379 -0.104383
C193  C     C_R   0.263147 0.511008 0.936353 -0.103157
C194  C     C_R   0.683356 0.363224 0.041379 -0.104396
C195  C     C_R   0.735039 0.943162 0.969054 -0.023634
C196  C     C_R   0.979500 0.665973 0.869021 -0.017822
C197  C     C_R   0.238880 0.869634 0.019205 -0.033603
C198  C     C_R   0.235044 0.443162 0.969055 -0.023635
C199  C     C_R   0.738880 0.369635 0.019205 -0.033608
C200  C     C_R   0.757669 0.883354 0.870586 0.030316
C201  C     C_R   0.228570 0.864053 0.123527 0.025789
C202  C     C_R   0.257672 0.383352 0.870587 0.030218
C203  C     C_R   0.728571 0.364055 0.123527 0.025879
C204  C     C_R   0.526684 0.169482 0.371042 -0.027696
C205  C     C_R   0.475823 0.168899 0.630003 -0.029464
C206  C     C_R   0.024828 0.667660 0.370299 -0.029312
C207  C     C_R   0.032235 0.656787 0.125094 -0.010929
C208  C     C_R   0.973258 0.670746 0.628994 -0.027092
C209  C     C_R   0.537127 0.256226 0.401761 -0.020391
C210  C     C_R   0.469357 0.257035 0.599344 -0.026291
C211  C     C_R   0.030824 0.756104 0.400490 -0.026162
C212  C     C_R   0.961312 0.756170 0.597402 -0.020397
C213  C     C_R   0.535555 0.241718 0.452913 -0.169414
C214  C     C_R   0.477085 0.245065 0.548437 -0.167130
C215  C     C_R   0.022761 0.744472 0.451419 -0.166549
C216  C     C_R   0.963142 0.740494 0.546422 -0.170572
C217  C     C_R   0.730649 0.004922 0.178540 0.545606
C218  C     C_R   0.515940 0.248673 0.101876 -0.127046
C219  C     C_R   0.268026 0.998984 0.819426 0.532610
C220  C     C_R   0.230649 0.504922 0.178540 0.545499
C221  C     C_R   0.768026 0.498984 0.819426 0.532571
C222  C     C_R   0.510783 0.153605 0.474106 0.055765
C223  C     C_R   0.500137 0.154828 0.528241 0.057506
C224  C     C_R   0.000293 0.653889 0.472088 0.057731
C225  C     C_R   0.989272 0.653113 0.526122 0.056279
C226  C     C_R   0.491721 0.072797 0.443350 0.313159
C227  C     C_R   0.514771 0.072018 0.559604 0.317104
C228  C     C_R   0.986645 0.570276 0.441288 0.315989
Cr1   Cr    Cr6+3 0.756570 0.170940 0.251190 0.992684
Cr2   Cr    Cr6+3 0.374010 0.036240 0.749520 1.029119
Cr3   Cr    Cr6+3 0.125990 0.536240 0.250480 1.021784
Cr4   Cr    Cr6+3 0.874010 0.536240 0.749520 1.029775
Cr5   Cr    Cr6+3 0.243430 0.170940 0.748810 0.984025
Cr6   Cr    Cr6+3 0.256570 0.670940 0.251190 0.992673
Cr7   Cr    Cr6+3 0.743430 0.670940 0.748810 0.983904
Cr8   Cr    Cr6+3 0.623740 0.299110 0.249580 1.013515
Cr9   Cr    Cr6+3 0.376260 0.299110 0.750420 1.004617
Cr10  Cr    Cr6+3 0.123740 0.799110 0.249580 1.013116
Cr11  Cr    Cr6+3 0.876260 0.799110 0.750420 1.004640
Cr12  Cr    Cr6+3 0.625990 0.036240 0.250480 1.022316
H1    H     H_    0.648585 0.883501 0.034396 0.104092
H2    H     H_    0.488933 0.018982 0.367581 0.117602
H3    H     H_    0.420819 0.567648 0.626969 0.153569
H4    H     H_    0.496571 0.554652 0.649251 0.150781
H5    H     H_    0.481330 0.619306 0.591424 0.136623
H6    H     H_    0.520144 0.443616 0.577185 0.159577
H7    H     H_    0.445002 0.459331 0.554122 0.151942
H8    H     H_    0.404391 0.365772 0.624598 0.184832
H9    H     H_    0.475663 0.371287 0.656285 0.169867
H10   H     H_    0.079416 0.066257 0.370183 0.151777
H11   H     H_    0.002664 0.054174 0.350443 0.149006
H12   H     H_    0.020933 0.118655 0.407471 0.136415
H13   H     H_    0.013413 0.522331 0.633925 0.118667
H14   H     H_    0.981827 0.942979 0.423324 0.158268
H15   H     H_    0.057840 0.958264 0.444465 0.152537
H16   H     H_    0.095410 0.864359 0.373682 0.188355
H17   H     H_    0.023276 0.870644 0.343370 0.167692
H18   H     H_    0.922449 0.072486 0.609577 0.150850
H19   H     H_    0.984897 0.054018 0.651413 0.151369
H20   H     H_    0.995738 0.113004 0.591738 0.139145
H21   H     H_    0.030056 0.930864 0.592282 0.162190
H22   H     H_    0.969737 0.953580 0.549318 0.150624
H23   H     H_    0.897761 0.877342 0.608935 0.164495
H24   H     H_    0.990468 0.514708 0.366027 0.119177
H25   H     H_    0.956424 0.873412 0.654881 0.187694
H26   H     H_    0.478135 0.891768 0.569925 0.118705
H27   H     H_    0.553234 0.880828 0.596657 0.111442
H28   H     H_    0.536105 0.831561 0.536837 0.125940
H29   H     H_    0.524956 0.891308 0.433639 0.117298
H30   H     H_    0.449039 0.883157 0.408469 0.109821
H31   H     H_    0.467001 0.834136 0.468380 0.126030
H32   H     H_    0.978510 0.391750 0.569593 0.117511
H33   H     H_    0.054763 0.386764 0.594254 0.112206
H34   H     H_    0.036603 0.335663 0.534993 0.126186
H35   H     H_    0.551617 0.301861 0.477016 0.106416
H36   H     H_    0.026263 0.391654 0.433872 0.119115
H37   H     H_    0.952261 0.376736 0.405625 0.107607
H38   H     H_    0.967993 0.329551 0.466291 0.126917
H39   H     H_    0.555794 0.673763 0.504850 0.131736
H40   H     H_    0.616399 0.611927 0.474890 0.149738
H41   H     H_    0.583528 0.553803 0.528521 0.137549
H42   H     H_    0.675044 0.630254 0.557778 0.180930
H43   H     H_    0.614759 0.710250 0.578367 0.151608
H44   H     H_    0.632811 0.823800 0.503125 0.164726
H45   H     H_    0.696137 0.746873 0.488587 0.146552
H46   H     H_    0.465173 0.306918 0.523576 0.107539
H47   H     H_    0.444515 0.672901 0.496005 0.132076
H48   H     H_    0.383480 0.604305 0.522242 0.151240
H49   H     H_    0.419874 0.554713 0.468507 0.139521
H50   H     H_    0.327639 0.630565 0.439388 0.182128
H51   H     H_    0.387960 0.713438 0.421029 0.149265
H52   H     H_    0.367693 0.821632 0.496531 0.161023
H53   H     H_    0.305368 0.741495 0.510611 0.147913
H54   H     H_    0.054856 0.174274 0.505388 0.131914
H55   H     H_    0.115513 0.109012 0.477091 0.150669
H56   H     H_    0.080959 0.054740 0.530941 0.140187
H57   H     H_    0.033962 0.806826 0.475976 0.107709
H58   H     H_    0.172811 0.130107 0.560171 0.181433
H59   H     H_    0.112998 0.212855 0.579179 0.149697
H60   H     H_    0.133086 0.322061 0.502965 0.160234
H61   H     H_    0.195755 0.242637 0.489674 0.147591
H62   H     H_    0.939817 0.178482 0.503664 0.135884
H63   H     H_    0.881029 0.090886 0.518427 0.151132
H64   H     H_    0.927834 0.065808 0.466717 0.138347
H65   H     H_    0.829809 0.132013 0.438228 0.180798
H66   H     H_    0.889807 0.217253 0.422061 0.150145
H67   H     H_    0.866808 0.322164 0.497534 0.164458
H68   H     H_    0.946355 0.799552 0.521760 0.106590
H69   H     H_    0.804719 0.240385 0.510283 0.146841
H70   H     H_    0.549020 0.449074 0.913163 0.106053
H71   H     H_    0.547237 0.517216 0.972111 0.141279
H72   H     H_    0.507566 0.565413 0.918995 0.123818
H73   H     H_    0.424025 0.491883 0.098167 0.111244
H74   H     H_    0.398533 0.389928 0.059742 0.112505
H75   H     H_    0.414771 0.515179 0.032852 0.163454
H76   H     H_    0.049014 0.949071 0.913168 0.106093
H77   H     H_    0.047229 0.017211 0.972117 0.141278
H78   H     H_    0.007559 0.065411 0.919000 0.123819
H79   H     H_    0.641208 0.021634 0.387202 0.142591
H80   H     H_    0.924016 0.991895 0.098165 0.111252
H81   H     H_    0.898522 0.889939 0.059741 0.112512
H82   H     H_    0.914769 0.015188 0.032849 0.163457
H83   H     H_    0.584749 0.696880 0.921980 0.125369
H84   H     H_    0.598711 0.829287 0.906370 0.175934
H85   H     H_    0.549017 0.753967 0.868373 0.155219
H86   H     H_    0.646649 0.778143 0.828503 0.175034
H87   H     H_    0.632589 0.646145 0.842039 0.154936
H88   H     H_    0.735958 0.671581 0.871852 0.180924
H89   H     H_    0.691445 0.667525 0.923327 0.120217
H90   H     H_    0.358121 0.019012 0.612274 0.141805
H91   H     H_    0.357830 0.695211 0.065321 0.152830
H92   H     H_    0.415650 0.789713 0.064007 0.140450
H93   H     H_    0.429238 0.668749 0.093394 0.133359
H94   H     H_    0.412208 0.777706 0.161837 0.119416
H95   H     H_    0.343758 0.711405 0.153483 0.199459
H96   H     H_    0.371676 0.931352 0.116199 0.117563
H97   H     H_    0.332189 0.900684 0.170281 0.124084
H98   H     H_    0.084763 0.196830 0.921992 0.125364
H99   H     H_    0.098716 0.329248 0.906398 0.175898
H100  H     H_    0.049022 0.253941 0.868394 0.155224
H101  H     H_    0.141704 0.520269 0.387378 0.142103
H102  H     H_    0.146648 0.278148 0.828519 0.175005
H103  H     H_    0.132598 0.146142 0.842044 0.155016
H104  H     H_    0.235968 0.171580 0.871852 0.180907
H105  H     H_    0.191462 0.167516 0.923332 0.120227
H106  H     H_    0.857831 0.195202 0.065322 0.152821
H107  H     H_    0.915641 0.289724 0.064002 0.140448
H108  H     H_    0.929248 0.168765 0.093390 0.133369
H109  H     H_    0.912210 0.277707 0.161835 0.119409
H110  H     H_    0.843761 0.211405 0.153482 0.199445
H111  H     H_    0.871676 0.431354 0.116200 0.117568
H112  H     H_    0.331058 0.817568 0.957362 0.093534
H113  H     H_    0.857797 0.521911 0.612119 0.141747
H114  H     H_    0.832190 0.400682 0.170282 0.124136
H115  H     H_    0.788972 0.066983 0.545081 0.109826
H116  H     H_    0.205898 0.057383 0.457071 0.111430
H117  H     H_    0.291884 0.561626 0.543354 0.111285
H118  H     H_    0.706835 0.558693 0.456759 0.112285
H119  H     H_    0.810452 0.023746 0.631589 0.124612
H120  H     H_    0.185925 0.018484 0.370047 0.119394
H121  H     H_    0.312601 0.520937 0.630280 0.123102
H122  H     H_    0.686488 0.519259 0.369816 0.119292
H123  H     H_    0.528167 0.912046 0.946308 0.145457
H124  H     H_    0.148586 0.383511 0.034393 0.104095
H125  H     H_    0.542451 0.906267 0.034110 0.136953
H126  H     H_    0.028161 0.412044 0.946311 0.145456
H127  H     H_    0.042445 0.406264 0.034114 0.136954
H128  H     H_    0.644329 0.998738 0.476334 0.158071
H129  H     H_    0.354379 0.992555 0.523538 0.155706
H130  H     H_    0.145264 0.495504 0.476345 0.156729
H131  H     H_    0.854163 0.495439 0.523338 0.156434
H132  H     H_    0.701185 0.754688 0.618363 0.134550
H133  H     H_    0.301442 0.757221 0.380579 0.134269
H134  H     H_    0.199745 0.255974 0.619230 0.134942
H135  H     H_    0.831057 0.317565 0.957362 0.093532
H136  H     H_    0.801398 0.257041 0.380757 0.133733
H137  H     H_    0.827648 0.905697 0.468396 0.112074
H138  H     H_    0.171058 0.899787 0.533544 0.112351
H139  H     H_    0.328316 0.401358 0.467282 0.112292
H140  H     H_    0.671641 0.398168 0.533518 0.112017
H141  H     H_    0.825876 0.934326 0.378031 0.113881
H142  H     H_    0.173425 0.932360 0.623479 0.113830
H143  H     H_    0.326159 0.432140 0.377074 0.112689
H144  H     H_    0.673880 0.430618 0.623485 0.115180
H145  H     H_    0.459066 0.326262 0.878445 0.173340
H146  H     H_    0.653236 0.890990 0.123901 0.171832
H147  H     H_    0.512098 0.317273 0.124013 0.186380
H148  H     H_    0.959060 0.826260 0.878448 0.173345
H149  H     H_    0.012092 0.817272 0.124017 0.186388
H150  H     H_    0.819900 0.052460 0.115633 0.117988
H151  H     H_    0.164821 0.991319 0.869951 0.114837
H152  H     H_    0.319903 0.552454 0.115635 0.117999
H153  H     H_    0.664822 0.491326 0.869953 0.114784
H154  H     H_    0.693883 0.795858 0.976488 0.108238
H155  H     H_    0.332761 0.886830 0.033709 0.117208
H156  H     H_    0.193893 0.295855 0.976492 0.108240
H157  H     H_    0.343980 0.874794 0.872296 0.140428
H158  H     H_    0.832762 0.386830 0.033708 0.117209
H159  H     H_    0.816338 0.041690 0.025913 0.085281
H160  H     H_    0.154820 0.950931 0.955581 0.081281
H161  H     H_    0.316342 0.541688 0.025915 0.085283
H162  H     H_    0.654821 0.450937 0.955582 0.081282
H163  H     H_    0.776122 0.086487 0.948957 0.116478
H164  H     H_    0.142980 0.856431 0.019663 0.126521
H165  H     H_    0.276124 0.586489 0.948956 0.116483
H166  H     H_    0.642981 0.356435 0.019663 0.126520
H167  H     H_    0.605693 0.008804 0.865194 0.120788
H168  H     H_    0.153234 0.390997 0.123900 0.171838
H169  H     H_    0.566745 0.067262 0.812581 0.120831
H170  H     H_    0.575488 0.931128 0.816395 0.134813
H171  H     H_    0.471491 0.904838 0.101429 0.104370
H172  H     H_    0.476484 0.963532 0.162078 0.126711
H173  H     H_    0.514839 0.845762 0.149582 0.130131
H174  H     H_    0.105689 0.508754 0.865234 0.120781
H175  H     H_    0.066778 0.567252 0.812613 0.120882
H176  H     H_    0.075496 0.431111 0.816418 0.134803
H177  H     H_    0.971494 0.404813 0.101437 0.104389
H178  H     H_    0.976479 0.463546 0.162080 0.126708
H179  H     H_    0.843979 0.374791 0.872296 0.140424
H180  H     H_    0.014844 0.345773 0.149603 0.130124
H181  H     H_    0.886952 0.997774 0.882429 0.163359
H182  H     H_    0.861377 0.121756 0.905235 0.105394
H183  H     H_    0.886866 0.108643 0.843182 0.134867
H184  H     H_    0.100764 0.013195 0.071965 0.127847
H185  H     H_    0.138816 0.031594 0.131208 0.099846
H186  H     H_    0.062614 0.993153 0.129237 0.157294
H187  H     H_    0.386955 0.497760 0.882418 0.163356
H188  H     H_    0.361387 0.621742 0.905234 0.105371
H189  H     H_    0.386866 0.608640 0.843176 0.134935
H190  H     H_    0.511513 0.017113 0.635279 0.119711
H191  H     H_    0.600769 0.513204 0.071963 0.127871
H192  H     H_    0.638820 0.531601 0.131208 0.099844
H193  H     H_    0.562617 0.493166 0.129235 0.157222
H194  H     H_    0.574141 0.572670 0.382801 0.148605
H195  H     H_    0.507159 0.551904 0.346524 0.148883
H196  H     H_    0.503289 0.613553 0.405994 0.139661
H197  H     H_    0.469614 0.431119 0.410831 0.161302
H198  H     H_    0.534568 0.456607 0.448410 0.150845
H199  H     H_    0.599481 0.377081 0.385257 0.171140
H200  H     H_    0.536413 0.371661 0.343316 0.180934
O1    O     O_R   0.769900 0.064540 0.196060 -0.535081
O2    O     O_R   0.433710 0.069580 0.694600 -0.528704
O3    O     O_R   0.066290 0.569580 0.305400 -0.533338
O4    O     O_R   0.933710 0.569580 0.694600 -0.527689
O5    O     O_R   0.680760 0.993330 0.302620 -0.508245
O6    O     O_R   0.319240 0.993330 0.697380 -0.504862
O7    O     O_R   0.180760 0.493330 0.302620 -0.508493
O8    O     O_R   0.819240 0.493330 0.697380 -0.504465
O9    O     O_3   0.668770 0.168760 0.250420 -0.243016
O10   O     O_3   0.331230 0.168760 0.749580 -0.244895
O11   O     O_3   0.168770 0.668760 0.250420 -0.242847
O12   O     O_R   0.230100 0.064540 0.803940 -0.545307
O13   O     O_3   0.831230 0.668760 0.749580 -0.245195
O14   O     O_R   0.750800 0.274080 0.199250 -0.515854
O15   O     O_R   0.249200 0.274080 0.800750 -0.528249
O16   O     O_R   0.250800 0.774080 0.199250 -0.515766
O17   O     O_R   0.749200 0.774080 0.800750 -0.528284
O18   O     O_R   0.669990 0.371670 0.194150 -0.473269
O19   O     O_R   0.330010 0.371670 0.805850 -0.475827
O20   O     O_R   0.169990 0.871670 0.194150 -0.472842
O21   O     O_R   0.830010 0.871670 0.805850 -0.476301
O22   O     O_R   0.574600 0.238480 0.197800 -0.486482
O23   O     O_R   0.269900 0.564540 0.196060 -0.535110
O24   O     O_R   0.425400 0.238480 0.802200 -0.524784
O25   O     O_R   0.074600 0.738480 0.197800 -0.486063
O26   O     O_R   0.925400 0.738480 0.802200 -0.524965
O27   O     O_R   0.566130 0.068680 0.194240 -0.469951
O28   O     O_R   0.433870 0.068680 0.805760 -0.456768
O29   O     O_R   0.066130 0.568680 0.194240 -0.469954
O30   O     O_R   0.933870 0.568680 0.805760 -0.456701
O31   O     O_R   0.680610 0.992490 0.199570 -0.489303
O32   O     O_R   0.319390 0.992490 0.800430 -0.495835
O33   O     O_R   0.180610 0.492490 0.199570 -0.489378
O34   O     O_R   0.730100 0.564540 0.803940 -0.545376
O35   O     O_R   0.819390 0.492490 0.800430 -0.495839
O36   O     O_R   0.770060 0.065440 0.307230 -0.522822
O37   O     O_R   0.229940 0.065440 0.692770 -0.522096
O38   O     O_R   0.270060 0.565440 0.307230 -0.522601
O39   O     O_R   0.729940 0.565440 0.692770 -0.522298
O40   O     O_R   0.750960 0.274920 0.302300 -0.510462
O41   O     O_R   0.249040 0.274920 0.697700 -0.508592
O42   O     O_R   0.250960 0.774920 0.302300 -0.510069
O43   O     O_R   0.749040 0.774920 0.697700 -0.508726
O44   O     O_R   0.670160 0.372580 0.305320 -0.533504
O45   O     O_R   0.574760 0.239320 0.300850 -0.516914
O46   O     O_R   0.329840 0.372580 0.694680 -0.527166
O47   O     O_R   0.170160 0.872580 0.305320 -0.537281
O48   O     O_R   0.829840 0.872580 0.694680 -0.523999
O49   O     O_3   0.513636 0.989802 0.863775 -0.567911
O50   O     O_3   0.552101 0.973261 0.118019 -0.567702
O51   O     O_3   0.013628 0.489799 0.863779 -0.567894
O52   O     O_3   0.052099 0.473260 0.118021 -0.567696
O53   O     O_3   0.804230 0.047874 0.855512 -0.557195
O54   O     O_3   0.121396 0.879214 0.111080 -0.542392
O55   O     O_3   0.304230 0.547874 0.855512 -0.557193
O56   O     O_R   0.425240 0.239320 0.699150 -0.515457
O57   O     O_3   0.621397 0.379223 0.111080 -0.542383
O58   O     O_3   0.544037 0.987851 0.539828 -0.556846
O59   O     O_3   0.461384 0.990634 0.464264 -0.555631
O60   O     O_3   0.040733 0.492423 0.537489 -0.556131
O61   O     O_3   0.958118 0.485428 0.461550 -0.556587
O62   O     O_3   0.469324 0.440647 0.952025 -0.591496
O63   O     O_3   0.489110 0.434648 0.053889 -0.589127
O64   O     O_3   0.969316 0.940644 0.952028 -0.591508
O65   O     O_3   0.989103 0.934646 0.053893 -0.589135
O66   O     O_R   0.074760 0.739320 0.300850 -0.517258
O67   O     O_R   0.925240 0.739320 0.699150 -0.516250
O68   O     O_R   0.566290 0.069580 0.305400 -0.532605

loop_
_geom_bond_atom_site_label_1
_geom_bond_atom_site_label_2
_ccdc_geom_bond_type
C120  H47   S    
C21   C26   A    
Cr6   O42   S    
C34   C56   A    
C126  C127  S    
C216  H68   S    
C57   C145  A    
C94   H187  S    
C101  C113  A    
Cr11  O21   S    
C118  H53   S    
C112  C202  S    
C95   H192  S    
C145  C146  A    
C36   H116  S    
C129  H74   S    
C192  H164  S    
C170  O24   A    
Cr3   O11   S    
C35   C124  A    
Cr1   O9    S    
C154  C158  A    
C109  O58   S    
C106  C107  S    
C218  H147  S    
C96   H199  S    
C143  C144  S    
C29   C33   A    
C119  H51   S    
C136  H96   S    
C24   H148  S    
C79   C90   A    
C137  H94   S    
C213  H35   S    
C106  H25   S    
C20   H131  S    
C25   C60   S    
C140  H102  S    
C81   C86   A    
C36   C44   A    
C217  O31   A    
C128  O62   S    
C89   O51   S    
C156  H159  S    
C131  H80   S    
C224  C225  S    
C37   H117  S    
C103  H16   S    
C92   H183  S    
C120  H49   S    
C80   C83   A    
C224  C228  A    
C104  C105  S    
C9    C31   A    
C25   C29   A    
C43   H119  S    
C73   O8    A    
C27   C31   A    
C183  C201  A    
C67   O66   A    
C41   O47   A    
C164  C168  A    
C184  C202  A    
C140  C141  S    
C65   O68   A    
C47   C64   A    
C151  H150  S    
C17   C21   A    
C70   O5    A    
C19   C23   A    
C111  O60   S    
C147  C217  S    
C21   C56   S    
C213  C222  A    
C156  C160  A    
C16   C20   A    
C227  O58   S    
C87   H169  S    
C44   H120  S    
Cr4   O30   S    
C97   H198  S    
C107  H21   S    
C42   O43   A    
C104  H15   S    
Cr1   O36   S    
Cr2   O28   S    
Cr6   O38   S    
C88   H172  S    
Cr2   O6    S    
C172  O26   A    
C22   C27   A    
C150  C221  S    
Cr12  O9    S    
C172  C196  S    
C102  H4    S    
C148  C153  A    
C125  H69   S    
C136  H97   S    
C146  O64   S    
C68   C146  A    
C43   C61   A    
C170  C174  S    
C52   C115  S    
C162  C198  S    
C69   C208  S    
C49   C62   A    
C124  C135  A    
C91   H177  S    
C51   C64   A    
C22   C58   S    
C53   C58   A    
Cr12  O68   S    
C82   C85   A    
C138  H91   S    
C139  H105  S    
C3    C7    A    
C187  C200  A    
C100  H7    S    
C190  C194  A    
C132  H89   S    
C77   C82   A    
C115  H45   S    
C49   C53   A    
C136  C183  S    
Cr7   O17   S    
C51   C55   A    
C148  C219  S    
C92   O53   S    
C180  C198  A    
Cr11  O67   S    
Cr4   O8    S    
C142  H111  S    
C48   C52   A    
Cr12  O31   S    
C169  O22   A    
C116  H43   S    
C6    H24   S    
Cr12  O5    S    
C163  O21   A    
C33   H144  S    
C70   O36   A    
C193  C198  A    
Cr3   O29   S    
C93   O54   S    
C99   H9    S    
C47   H122  S    
C123  H55   S    
C151  C156  A    
C97   C98   S    
C87   H170  S    
C81   C101  A    
C88   H173  S    
C23   C59   S    
Cr11  O48   S    
C69   O4    A    
C105  H10   S    
C223  C227  A    
C13   C57   A    
C115  C116  S    
C215  H57   S    
C17   H128  S    
Cr9   O19   S    
C121  H60   S    
C144  H107  S    
C122  H59   S    
Cr7   O13   S    
Cr1   O14   S    
C157  H160  S    
C1    O14   A    
C221  O34   A    
C134  H85   S    
C107  C108  S    
C194  H166  S    
C219  O32   A    
C88   O50   S    
C164  C199  S    
C74   C185  A    
C143  H110  S    
Cr9   O10   S    
C75   C174  A    
C117  H41   S    
C50   C63   A    
C226  O59   S    
Cr3   O33   S    
C4    H2    S    
C75   O49   S    
C54   C59   A    
C176  H168  S    
C139  C140  S    
C130  H76   S    
C188  O54   S    
C185  C218  A    
C155  C159  A    
C171  O29   A    
C92   H182  S    
C11   C33   A    
C126  H65   S    
C137  H95   S    
C103  C211  S    
C127  H64   S    
C110  H30   S    
C66   C205  S    
C53   C118  S    
C152  O20   A    
C112  O19   A    
C98   H195  S    
C5    C227  A    
C12   C17   A    
C147  C151  A    
C83   C84   A    
C130  H77   S    
C8    C12   A    
C28   H139  S    
C89   H174  S    
C23   C28   A    
Cr11  O13   S    
C97   H197  S    
C219  O12   A    
C37   C59   A    
C150  C177  A    
C38   C60   A    
C54   C121  S    
C142  H114  S    
C150  C155  A    
C167  H124  S    
C171  C207  S    
C181  C199  A    
C77   O51   S    
C40   O41   A    
C120  H48   S    
C95   H191  S    
C94   H188  S    
C18   C22   A    
C95   H193  S    
C34   C43   A    
C82   C113  A    
C136  C137  S    
C181  C186  A    
C26   C30   A    
C129  H73   S    
C189  C202  A    
C57   C101  A    
C112  O15   A    
C8    C70   S    
C188  C192  A    
C87   H167  S    
Cr2   O2    S    
C205  C210  A    
C96   H200  S    
C172  O30   A    
C1    O18   A    
C35   C79   A    
C134  H83   S    
C187  O53   S    
C67   O3    A    
C186  C203  A    
C191  C195  A    
C93   H186  S    
C6    C206  A    
C131  H82   S    
C100  H6    S    
C214  C223  A    
C189  C193  A    
C132  H88   S    
Cr10  O20   S    
C85   H126  S    
C12   H79   S    
C159  C164  A    
C108  H19   S    
Cr8   O18   S    
C228  O61   S    
C159  H162  S    
C91   O52   S    
C139  C184  S    
C10   C72   S    
C29   H140  S    
Cr5   O41   S    
C141  H99   S    
C116  H42   S    
C141  H100  S    
Cr5   O15   S    
C109  H27   S    
C72   O38   A    
C215  C224  A    
C127  H62   S    
C34   H115  S    
C114  H36   S    
C173  H146  S    
C133  H87   S    
C15   C19   A    
C39   C64   S    
C214  H46   S    
C166  C175  A    
C50   C54   A    
C40   C63   S    
C95   O57   S    
Cr2   O10   S    
C191  H163  S    
C117  H40   S    
Cr7   O39   S    
Cr8   O45   S    
C109  H28   S    
Cr5   O10   S    
Cr4   O4    S    
C20   C25   A    
C24   C196  A    
C40   O46   A    
C168  C177  A    
C189  O55   S    
Cr12  O27   S    
Cr3   O3    S    
C89   H176  S    
C111  H34   S    
C166  H112  S    
C163  O17   A    
C114  H37   S    
C132  C182  S    
C46   C135  A    
C55   C125  S    
C6    C228  A    
C204  C209  A    
Cr9   O24   S    
C180  C184  A    
Cr4   O35   S    
C144  H106  S    
C4    C226  A    
Cr7   O34   S    
Cr9   O46   S    
C68   C113  A    
C124  O63   S    
C38   H118  S    
C55   C60   A    
C118  H52   S    
C102  H5    S    
C41   C62   S    
C141  H98   S    
C83   H123  S    
C51   H136  S    
C129  H75   S    
Cr10  O25   S    
C69   O67   A    
C94   O55   S    
C182  C200  A    
C105  H12   S    
C158  H161  S    
Cr6   O16   S    
C220  O33   A    
C11   C73   S    
C7    C208  A    
C31   H142  S    
C85   C86   A    
C217  O1    A    
C125  H67   S    
C149  C154  A    
C178  H154  S    
C71   O37   A    
C5    H190  S    
C28   C32   A    
C192  C197  A    
C121  C122  S    
C67   C206  S    
C190  O57   S    
C160  C195  S    
Cr5   O37   S    
C32   H143  S    
C138  H93   S    
C133  C134  S    
C153  H151  S    
Cr9   O56   S    
C154  H152  S    
C1    C203  S    
C157  C161  A    
C110  O59   S    
C2    H145  S    
C152  O16   A    
C134  H84   S    
C137  C138  S    
Cr10  O11   S    
Cr8   O9    S    
C9    C71   S    
C65   O45   A    
Cr5   O12   S    
C119  C120  S    
C147  C173  A    
C46   C90   A    
C26   H137  S    
C74   O50   S    
C72   O7    A    
C216  C225  A    
C161  C197  S    
C139  H104  S    
C15   H101  S    
C149  C176  A    
C8    C30   A    
C160  C165  A    
C39   O40   A    
C135  O62   S    
C65   C204  S    
C138  H92   S    
C18   H129  S    
C106  H23   S    
C45   H121  S    
C144  H108  S    
C107  H22   S    
C153  C157  A    
C190  C203  A    
C209  C213  A    
C24   C68   A    
C88   H171  S    
C129  O63   S    
C181  H158  S    
C74   C78   A    
C103  C104  S    
C142  C143  S    
C102  H3    S    
C140  H103  S    
C165  C173  A    
C2    C174  A    
C143  H109  S    
C211  C215  A    
C14   C18   A    
C108  H18   S    
C9    C14   A    
C168  H135  S    
C104  H14   S    
C76   O52   S    
C155  H153  S    
C2    C46   A    
C39   O44   A    
Cr1   O1    S    
C119  H50   S    
C77   C196  A    
C126  H66   S    
C36   C58   A    
C10   C15   A    
C66   O2    A    
C127  H63   S    
C110  H31   S    
C91   H180  S    
C4    C204  A    
C222  C226  A    
C98   H196  S    
C188  C201  A    
C128  H70   S    
C116  C117  S    
Cr8   O22   S    
C11   C16   A    
Cr6   O23   S    
C41   O42   A    
Cr8   O44   S    
C66   O56   A    
C118  C119  S    
C13   H149  S    
C206  C211  A    
C130  H78   S    
C132  C133  S    
C13   C207  A    
C75   C80   A    
C3    C225  A    
C187  C191  A    
C161  C166  A    
C87   O49   S    
C76   C207  A    
C208  C212  A    
C86   H127  S    
C50   H134  S    
C7    H13   S    
C103  H17   S    
C123  H56   S    
Cr1   O40   S    
Cr2   O32   S    
C179  C183  A    
C3    O60   S    
C71   O6    A    
C142  C186  S    
C148  C175  A    
Cr3   O7    S    
C94   H189  S    
C212  C216  A    
C170  O28   A    
C105  H11   S    
C73   O39   A    
C78   C79   A    
C179  C197  A    
C44   C62   A    
C210  C214  A    
C45   C63   A    
C121  H61   S    
C131  O65   S    
C122  H58   S    
C149  C220  S    
C42   O48   A    
C128  H71   S    
Cr6   O11   S    
C10   C32   A    
C175  H157  S    
C99   C100  S    
C221  O35   A    
C106  C212  S    
C96   C97   S    
C100  C102  S    
Cr11  O26   S    
C220  O23   A    
C178  C182  A    
C42   C61   S    
C93   H185  S    
C38   C47   A    
C131  H81   S    
C14   H90   S    
C145  O65   S    
C163  C200  S    
C193  H165  S    
C108  H20   S    
C114  O61   S    
Cr10  O47   S    
C35   C218  A    
C96   C209  S    
C180  H156  S    
C92   H181  S    
C49   H133  S    
C16   H113  S    
C84   H125  S    
C93   H184  S    
C109  H26   S    
C179  H155  S    
C76   C81   A    
C110  H29   S    
C91   H178  S    
C133  H86   S    
C115  H44   S    
C98   H194  S    
C178  C195  A    
C128  H72   S    
C48   H132  S    
C99   H8    S    
C30   H141  S    
C169  C185  S    
C117  H39   S    
Cr10  O66   S    
C48   C61   A    
C125  C126  S    
C171  O25   A    
C114  H38   S    
C27   H138  S    
C89   H175  S    
C111  H33   S    
C80   C90   A    
C222  C223  S    
C152  C201  S    
C177  H179  S    
C158  C162  A    
C5    C205  A    
C162  C167  A    
C194  C199  A    
C78   C84   A    
C165  H1    S    
Cr4   O13   S    
C111  H32   S    
C169  O27   A    
C130  O64   S    
C19   H130  S    
C122  C123  S    
C123  H54   S    
C37   C45   A    
C52   C56   A    
C167  C176  A    
C99   C210  S    
Cr7   O43   S    
