data_mof_unit_29806.cif
_audit_creation_date              2012-12-11T15:46:47-0500
_audit_creation_method            fapswitch 2.2
_symmetry_space_group_name_H-M    P1
_symmetry_Int_Tables_number       1
_space_group_crystal_system       triclinic
_cell_length_a                    11.551239
_cell_length_b                    11.54049
_cell_length_c                    19.547773
_cell_angle_alpha                 90.507036
_cell_angle_beta                  90.120197
_cell_angle_gamma                 59.954791
_cell_volume                      2255.61061063

loop_
_atom_site_label
_atom_site_type_symbol
_atom_type_description
_atom_site_fract_x
_atom_site_fract_y
_atom_site_fract_z
_atom_type_partial_charge
C1    C     C_R   0.640498 0.117333 0.599243 0.551653
C2    C     C_1   0.641380 0.703883 0.667994 0.008127
C3    C     C_1   0.126680 0.198734 0.859305 0.003765
C4    C     C_1   0.171523 0.170300 0.727703 -0.030109
C5    C     C_1   0.150144 0.182248 0.798944 -0.030528
C6    C     C_1   0.195327 0.160951 0.667370 0.005261
C7    C     C_1   0.678539 0.191249 0.860801 0.003920
C8    C     C_1   0.658593 0.167196 0.729032 -0.029840
C9    C     C_1   0.665647 0.180880 0.800347 -0.030889
C10   C     C_1   0.653066 0.149637 0.668629 0.006339
C11   C     C_R   0.651968 0.685258 0.188762 0.021199
C12   C     C_R   0.612519 0.745981 0.598623 0.555917
C13   C     C_R   0.535282 0.712793 0.223866 0.013424
C14   C     C_R   0.532644 0.717918 0.293418 0.014298
C15   C     C_R   0.749607 0.697945 0.296140 -0.139356
C16   C     C_R   0.753826 0.691826 0.224759 -0.180702
C17   C     C_3   0.451582 0.646301 0.223530 -0.271128
C18   C     C_3   0.451927 0.650785 0.300680 -0.273281
C19   C     C_R   0.641430 0.702174 0.331090 0.054539
C20   C     C_R   0.166908 0.188557 0.186193 0.018666
C21   C     C_R   0.180674 0.282365 0.225309 -0.018679
C22   C     C_R   0.221940 0.257114 0.292058 0.025095
C23   C     C_R   0.241031 0.145299 0.598178 0.569002
C24   C     C_R   0.259348 0.033242 0.281289 -0.139088
C25   C     C_R   0.215496 0.059583 0.213020 -0.120012
C26   C     C_3   0.077778 0.423771 0.241150 -0.235141
C27   C     C_3   0.120834 0.396196 0.314875 0.044753
C28   C     C_R   0.256615 0.135026 0.322384 0.040041
C29   C     C_R   0.687082 0.193376 0.198324 -0.013444
C30   C     C_R   0.798832 0.103365 0.236215 0.104050
C31   C     C_R   0.790831 0.088045 0.305185 0.003780
C32   C     C_R   0.559376 0.264553 0.303368 -0.164311
C33   C     C_R   0.568638 0.280315 0.233109 -0.184120
C34   C     C_R   0.644905 0.113370 0.402921 0.543780
C35   C     C_3   0.891765 0.957003 0.223976 0.154841
C36   C     C_3   0.886064 0.940391 0.300492 -0.216828
C37   C     C_R   0.668324 0.160496 0.338826 0.012270
C38   C     C_R   0.081761 0.231142 0.928606 0.544270
C39   C     C_R   0.683899 0.604395 0.929518 0.544135
C40   C     C_R   0.708367 0.206644 0.930161 0.545256
C41   C     C_R   0.086444 0.234436 0.124220 0.550218
C42   C     C_R   0.681094 0.614817 0.124354 0.550273
C43   C     C_R   0.709649 0.211796 0.127533 0.543899
C44   C     C_R   0.616474 0.739884 0.402035 0.564147
C45   C     C_R   0.297951 0.116596 0.393857 0.566537
C46   C     C_1   0.670285 0.646474 0.860150 0.003639
C47   C     C_1   0.654858 0.683668 0.728441 -0.029952
C48   C     C_1   0.663402 0.666679 0.799708 -0.031224
Cr1   Cr    Cr6+3 0.404720 0.198220 0.499960 1.041617
Cr2   Cr    Cr6+3 0.698290 0.897110 0.500380 1.042507
Cr3   Cr    Cr6+3 0.396970 0.904720 0.499610 1.038435
Cr4   Cr    Cr6+3 0.926290 0.152010 0.028150 1.017957
Cr5   Cr    Cr6+3 0.921440 0.451830 0.027490 1.014853
Cr6   Cr    Cr6+3 0.626370 0.446880 0.028730 1.010919
H1    H     H_    0.832712 0.693422 0.323935 0.154827
H2    H     H_    0.103395 0.494241 0.217345 0.100693
H3    H     H_    0.167626 0.454190 0.333955 0.123493
H4    H     H_    0.463434 0.325681 0.328121 0.133560
H5    H     H_    0.482013 0.354911 0.205749 0.119263
H6    H     H_    0.844129 0.909595 0.193653 0.079835
H7    H     H_    0.838505 0.881066 0.313714 0.106906
H8    H     H_    0.981754 0.910647 0.327408 0.168207
H9    H     H_    0.842518 0.677226 0.198764 0.111694
H10   H     H_    0.504147 0.542223 0.203696 0.177665
H11   H     H_    0.351663 0.712538 0.201096 0.136761
H12   H     H_    0.351326 0.716634 0.323158 0.143146
H13   H     H_    0.509533 0.550234 0.324273 0.157074
H14   H     H_    0.287712 0.937206 0.302877 0.138562
H15   H     H_    0.212591 0.982438 0.182963 0.153465
H16   H     H_    0.974800 0.443344 0.231490 0.190519
O1    O     O_R   0.267750 0.231960 0.575440 -0.490363
O2    O     O_R   0.685950 0.784660 0.430010 -0.498634
O3    O     O_R   0.502510 0.767000 0.423980 -0.529230
O4    O     O_R   0.288320 0.026340 0.429250 -0.488707
O5    O     O_3   0.499990 0.000020 0.499980 -0.287692
O6    O     O_R   0.821590 0.119350 0.952850 -0.514192
O7    O     O_R   0.037230 0.162540 0.957390 -0.500167
O8    O     O_R   0.056530 0.344750 0.951370 -0.506678
O9    O     O_R   0.798000 0.560370 0.957490 -0.495256
O10   O     O_R   0.596230 0.579400 0.952760 -0.507831
O11   O     O_R   0.639160 0.321170 0.958690 -0.493260
O12   O     O_R   0.527290 0.186640 0.570530 -0.494692
O13   O     O_R   0.821370 0.124220 0.104400 -0.513616
O14   O     O_R   0.037020 0.167050 0.097880 -0.490755
O15   O     O_R   0.056310 0.349620 0.102920 -0.523607
O16   O     O_R   0.797790 0.564880 0.097980 -0.508289
O17   O     O_R   0.596000 0.584270 0.104310 -0.530010
O18   O     O_R   0.638950 0.325690 0.099180 -0.507650
O19   O     O_3   0.824700 0.350240 0.028120 -0.247480
O20   O     O_R   0.728110 0.003450 0.576380 -0.499667
O21   O     O_R   0.682980 0.789190 0.570500 -0.485779
O22   O     O_R   0.499300 0.771880 0.575540 -0.503896
O23   O     O_R   0.285350 0.030870 0.569740 -0.487999
O24   O     O_R   0.270960 0.227070 0.423890 -0.475393
O25   O     O_R   0.530270 0.182120 0.430040 -0.526212
O26   O     O_R   0.731320 0.998570 0.424830 -0.517393
Br1   Br    Br    0.980110 0.403962 0.373339 -0.510588
O27   O     O_3   0.020056 0.930705 0.202948 -0.558420
C49   C     C_3   0.063394 0.849663 0.143064 0.026273
H17   H     H_    0.146694 0.858268 0.120396 0.137483
H18   H     H_    0.984554 0.884256 0.103129 0.151398
C50   C     C_3   0.113139 0.702782 0.159430 -0.307726
H19   H     H_    0.170822 0.674654 0.207914 0.167423
H20   H     H_    0.024905 0.690422 0.165952 0.135147
C51   C     C_3   0.199900 0.609515 0.101871 -0.465052
H21   H     H_    0.142564 0.634962 0.053298 0.150657
H22   H     H_    0.231642 0.504313 0.114939 0.156910
H23   H     H_    0.290856 0.617773 0.094674 0.150526

loop_
_geom_bond_atom_site_label_1
_geom_bond_atom_site_label_2
_ccdc_geom_bond_type
C21   C26   S    
C1    O20   A    
C34   C37   S    
C43   O13   A    
C14   C18   S    
C12   O21   A    
C35   C36   S    
Cr3   O4    S    
C32   H4    S    
C2    C12   S    
C20   C41   S    
C15   C19   A    
C51   H22   S    
C26   C27   S    
C30   C35   S    
C50   C51   S    
C43   O18   A    
Cr5   O9    S    
Cr3   O5    S    
C17   H10   S    
Cr6   O17   S    
C20   C25   A    
C15   C16   A    
C29   C33   A    
C11   C42   S    
Cr4   O14   S    
Cr2   O2    S    
Cr3   O3    S    
Cr2   O20   S    
C47   C48   S    
C3    C38   S    
C8    C9    S    
C7    C40   S    
Cr1   O5    S    
Cr5   O16   S    
C42   O16   A    
C16   H9    S    
Cr1   O24   S    
C35   O27   S    
C33   H5    S    
C22   C28   A    
C21   C22   A    
C29   C43   S    
Cr4   O19   S    
C50   H19   S    
C36   H8    S    
C45   O24   A    
C14   C19   A    
Cr6   O10   S    
C51   H23   S    
C46   C48   T    
C28   C45   S    
C23   O1    A    
C24   C25   A    
Cr6   O19   S    
C4    C6    T    
C27   H3    S    
C38   O8    A    
Cr4   O6    S    
C18   H13   S    
C41   O14   A    
Cr1   O25   S    
C23   O23   A    
C31   C37   A    
C35   H6    S    
C15   H1    S    
Cr1   O12   S    
Cr4   O13   S    
C29   C30   A    
Cr3   O22   S    
C11   C16   A    
C49   H17   S    
C17   C18   S    
C32   C37   A    
C34   O25   A    
C50   H20   S    
Cr3   O23   S    
C39   C46   S    
C49   H18   S    
C22   C27   S    
Cr5   O19   S    
C26   H16   S    
C25   H15   S    
Cr4   O7    S    
C19   C44   S    
C7    C9    T    
C27   Br1   S    
C40   O11   A    
C12   O22   A    
C1    C10   S    
C24   C28   A    
C34   O26   A    
C4    C5    S    
C3    C5    T    
C26   H2    S    
C38   O7    A    
C2    C47   T    
C18   H12   S    
C41   O15   A    
C51   H21   S    
C17   H11   S    
C13   C17   S    
C32   C33   A    
Cr5   O8    S    
C1    O12   A    
Cr2   O5    S    
C39   O10   A    
Cr6   O18   S    
C11   C13   A    
Cr2   O26   S    
C30   C31   A    
C6    C23   S    
C44   O2    A    
C44   O3    A    
C24   H14   S    
C40   O6    A    
Cr2   O21   S    
C49   C50   S    
C20   C21   A    
C8    C10   T    
O27   C49   S    
Cr1   O1    S    
C31   C36   S    
C45   O4    A    
Cr5   O15   S    
C42   O17   A    
C13   C14   A    
Cr6   O11   S    
C36   H7    S    
C39   O9    A    
