data_mof_unit_37235.cif
_audit_creation_date              2012-12-10T19:46:23-0500
_audit_creation_method            fapswitch 2.2
_symmetry_space_group_name_H-M    P1
_symmetry_Int_Tables_number       1
_space_group_crystal_system       triclinic
_cell_length_a                    10.922295
_cell_length_b                    10.931165
_cell_length_c                    10.498232
_cell_angle_alpha                 92.734408
_cell_angle_beta                  92.034086
_cell_angle_gamma                 88.071384
_cell_volume                      1250.56218524

loop_
_atom_site_label
_atom_site_type_symbol
_atom_type_description
_atom_site_fract_x
_atom_site_fract_y
_atom_site_fract_z
_atom_type_partial_charge
C1    C     C_R   0.498419 0.261551 0.497162 0.787434
C2    C     C_R   0.501144 0.738478 0.502786 0.790427
C3    C     C_R   0.872131 0.501262 0.503618 -0.293187
C4    C     C_R   0.128048 0.496701 0.495748 -0.291221
C5    C     C_R   0.943890 0.467109 0.611236 -0.202542
C6    C     C_R   0.056338 0.530176 0.387845 -0.204270
C7    C     C_R   0.423396 0.188454 0.063189 0.202153
C8    C     C_R   0.570846 0.823632 0.942436 0.196262
C9    C     C_R   0.416105 0.155776 0.190179 -0.095578
C10   C     C_R   0.580197 0.851797 0.813870 -0.136304
C11   C     C_R   0.517890 0.100744 0.252956 0.073273
C12   C     C_R   0.477718 0.899681 0.746146 0.107704
C13   C     C_R   0.625720 0.075442 0.187206 -0.136515
C14   C     C_R   0.367032 0.921802 0.807646 -0.162155
C15   C     C_R   0.632553 0.105544 0.060680 -0.167504
C16   C     C_R   0.358129 0.895711 0.935087 -0.211976
C17   C     C_R   0.532885 0.163788 0.998988 -0.147858
C18   C     C_R   0.458773 0.844796 0.001918 -0.092594
C19   C     C_R   0.513009 0.927225 0.389373 -0.227841
C20   C     C_R   0.485796 0.072849 0.610317 -0.232772
C21   C     C_R   0.502869 0.872138 0.505990 -0.087677
C22   C     C_R   0.495889 0.127932 0.493725 -0.084018
C23   C     C_R   0.261653 0.498714 0.498075 0.864600
C24   C     C_R   0.738408 0.500675 0.501811 0.865958
C25   C     C_R   0.490230 0.946506 0.618353 -0.001511
C26   C     C_R   0.507709 0.053603 0.381123 -0.003995
C27   C     C_1   0.499867 0.499840 0.072140 0.099166
C28   C     C_1   0.499836 0.499878 0.927835 0.076003
C29   C     C_R   0.198012 0.726646 0.152999 -0.148535
C30   C     C_R   0.797607 0.272517 0.844598 -0.146363
C31   C     C_R   0.149741 0.687488 0.264314 -0.114916
C32   C     C_R   0.846190 0.311427 0.733355 -0.119465
C33   C     C_R   0.109892 0.567574 0.269419 0.191676
C34   C     C_R   0.890346 0.429813 0.729657 0.204490
C35   C     C_R   0.118801 0.486083 0.161178 0.219927
C36   C     C_R   0.885656 0.509936 0.839260 0.209202
C37   C     C_R   0.167025 0.526796 0.049598 -0.078209
C38   C     C_R   0.837221 0.469434 0.950820 -0.120343
C39   C     C_R   0.206250 0.646736 0.045346 -0.185733
C40   C     C_R   0.793595 0.351011 0.953673 -0.172613
C41   C     C_R   0.929557 0.534168 0.393195 0.554103
C42   C     C_R   0.070683 0.463000 0.605823 0.549592
Cu1   Cu    Cu3+1 0.500000 0.500000 0.625300 0.996930
Cu2   Cu    Cu3+1 0.500000 0.500000 0.374700 1.007189
H1    H     H_    0.243007 0.677064 0.958405 0.162979
H2    H     H_    0.756640 0.320764 0.040563 0.161028
H3    H     H_    0.703430 0.029143 0.233099 0.149050
H4    H     H_    0.288790 0.963279 0.757846 0.138855
H5    H     H_    0.715152 0.081148 0.010825 0.142388
H6    H     H_    0.273248 0.917795 0.981761 0.135759
H7    H     H_    0.524780 0.871435 0.302518 0.173024
H8    H     H_    0.474364 0.128549 0.697340 0.161183
H9    H     H_    0.228339 0.819346 0.151747 0.124662
H10   H     H_    0.763678 0.181125 0.844569 0.124536
H11   H     H_    0.143304 0.750590 0.346771 0.115861
H12   H     H_    0.849350 0.249388 0.649809 0.114161
H13   H     H_    0.173939 0.465530 0.965924 0.211002
H14   H     H_    0.833548 0.529716 0.035483 0.201865
H15   H     H_    0.540578 0.188167 0.901198 0.126528
H16   H     H_    0.450429 0.824382 0.100747 0.132229
H17   H     H_    0.331101 0.171813 0.239386 0.120657
H18   H     H_    0.667209 0.839831 0.767652 0.110646
N1    N     N_1   0.500010 0.499990 0.186410 -0.132159
N2    N     N_1   0.499990 0.500010 0.813590 -0.138230
O1    O     O_R   0.499990 0.319650 0.605810 -0.584137
O2    O     O_R   0.500010 0.680350 0.394190 -0.580638
O3    O     O_R   0.499990 0.319640 0.394190 -0.582355
O4    O     O_R   0.500010 0.680360 0.605810 -0.583282
O5    O     O_R   0.319640 0.500010 0.605810 -0.513103
O6    O     O_R   0.680360 0.499990 0.394190 -0.511985
O7    O     O_R   0.319650 0.500010 0.394190 -0.595308
O8    O     O_R   0.680350 0.499990 0.605810 -0.596924
N3    N     N_3   0.080797 0.362083 0.163105 -0.592437
H19   H     H_    0.129949 0.319437 0.236850 0.211615
H20   H     H_    0.987805 0.363127 0.183484 0.235745
N4    N     N_3   0.928023 0.632471 0.838634 -0.617948
H21   H     H_    0.879740 0.677701 0.766038 0.203737
H22   H     H_    0.020815 0.628580 0.817311 0.245852
F1    F     F_    0.862773 0.573934 0.290382 -0.675869
F2    F     F_    0.137588 0.422676 0.708323 -0.681442
N5    N     N_3   0.318685 0.244713 0.000539 -0.585548
H23   H     H_    0.339131 0.264687 0.907354 0.235343
H24   H     H_    0.249822 0.180359 0.992932 0.225142
N6    N     N_3   0.675588 0.781136 0.015994 -0.585120
H25   H     H_    0.753253 0.776360 0.960482 0.233714
H26   H     H_    0.659569 0.691973 0.041090 0.228528

loop_
_geom_bond_atom_site_label_1
_geom_bond_atom_site_label_2
_ccdc_geom_bond_type
C38   C40   A    
C5    C42   A    
C42   F2    S    
Cu1   O8    S    
N3    H19   S    
C23   O5    A    
Cu2   O2    S    
N5    H23   S    
C24   O6    A    
C40   H2    S    
C30   H10   S    
C4    C42   A    
C9    H17   S    
C19   C21   A    
N4    H22   S    
C2    O4    A    
C20   C25   A    
Cu2   O7    S    
C7    C9    A    
C19   C26   A    
C36   N4    S    
C1    O3    A    
C38   H14   S    
C35   N3    S    
Cu1   O4    S    
C7    C17   A    
C6    C41   A    
C1    O1    A    
C31   C33   A    
Cu2   O6    S    
C39   H1    S    
C1    C22   S    
Cu1   O5    S    
N3    H20   S    
C3    C24   S    
C10   H18   S    
N5    H24   S    
Cu1   N2    S    
Cu2   N1    S    
C37   C39   A    
C23   O7    A    
N4    H21   S    
C4    C6    A    
C13   H3    S    
C4    C23   S    
C14   H4    S    
C11   C26   S    
C2    O2    A    
C8    C18   A    
C32   C34   A    
Cu1   Cu2   S    
C27   N1    T    
Cu1   O1    S    
C5    C34   S    
C29   C39   A    
C2    C21   S    
C30   C40   A    
N6    H25   S    
C9    C11   A    
C10   C12   A    
C17   H15   S    
C28   N2    T    
C18   H16   S    
C7    N5    S    
C20   C22   A    
C13   C15   A    
C14   C16   A    
C24   O8    A    
C15   C17   A    
C21   C25   A    
C3    C41   A    
C35   C37   A    
C8    N6    S    
C8    C10   A    
C12   C14   A    
C3    C5    A    
C41   F1    S    
C6    C33   S    
C12   C25   S    
C20   H8    S    
C36   C38   A    
C29   C31   A    
C30   C32   A    
C11   C13   A    
C29   H9    S    
C33   C35   A    
C34   C36   A    
C15   H5    S    
C16   H6    S    
C19   H7    S    
C16   C18   A    
C22   C26   A    
C27   C28   S    
N6    H26   S    
Cu2   O3    S    
C31   H11   S    
C32   H12   S    
C37   H13   S    
