data_mof_unit_39246.cif
_audit_creation_date              2012-12-10T16:51:28-0500
_audit_creation_method            fapswitch 2.2
_symmetry_space_group_name_H-M    P1
_symmetry_Int_Tables_number       1
_space_group_crystal_system       triclinic
_cell_length_a                    7.833467
_cell_length_b                    8.559048
_cell_length_c                    12.541387
_cell_angle_alpha                 92.66747
_cell_angle_beta                  102.923756
_cell_angle_gamma                 93.555443
_cell_volume                      816.406209054

loop_
_atom_site_label
_atom_site_type_symbol
_atom_type_description
_atom_site_fract_x
_atom_site_fract_y
_atom_site_fract_z
_atom_type_partial_charge
C1    C     C_R   0.044672 0.794650 0.499101 0.979303
C2    C     C_R   0.190615 0.603486 0.819082 -0.129819
C3    C     C_2   0.060203 0.957598 0.490903 -0.476277
C4    C     C_R   0.114896 0.537378 0.706217 0.864311
C5    C     C_2   0.949926 0.044952 0.530922 0.288226
C6    C     C_R   0.959211 0.206151 0.509030 0.858468
C7    C     C_R   0.889304 0.487610 0.291615 0.867729
C8    C     C_R   0.856043 0.422429 0.991546 -0.190219
C9    C     C_R   0.825398 0.483348 0.174743 -0.056752
C10   C     C_R   0.084076 0.668715 0.882578 -0.198798
C11   C     C_R   0.148915 0.701559 0.994676 -0.123349
C12   C     C_R   0.429752 0.603929 0.980543 0.078049
C13   C     C_R   0.316569 0.661088 0.044820 -0.195632
C14   C     C_3   0.695220 0.012727 0.598316 0.139279
C15   C     C_3   0.660972 0.119061 0.691639 -0.364973
C16   C     C_3   0.465126 0.135180 0.680522 -0.878617
C17   C     C_R   0.371591 0.598631 0.866121 0.094942
C18   C     C_R   0.597310 0.549167 0.023603 0.075930
C19   C     C_R   0.700022 0.493121 0.951601 0.165842
C20   C     C_R   0.650978 0.518355 0.841383 -0.296570
C21   C     C_R   0.496785 0.586284 0.802373 -0.185043
C22   C     C_R   0.664393 0.544696 0.135066 -0.257995
C23   C     C_R   0.919988 0.418908 0.103579 -0.205405
H1    H     H_    0.043520 0.368340 0.134442 0.163749
H2    H     H_    0.145365 0.001970 0.439688 0.133243
H3    H     H_    0.627632 0.896065 0.601121 0.138679
H4    H     H_    0.635132 0.055811 0.516841 0.150509
H5    H     H_    0.715405 0.069146 0.771384 0.223652
H6    H     H_    0.728398 0.236906 0.691677 0.244138
H7    H     H_    0.409609 0.188512 0.602626 0.299743
H8    H     H_    0.444635 0.212030 0.749673 0.273744
H9    H     H_    0.395190 0.018515 0.681841 0.251850
H10   H     H_    0.367451 0.276203 0.379518 0.333109
H11   H     H_    0.528208 0.641380 0.565196 0.112686
H12   H     H_    0.733619 0.490342 0.786120 0.181210
H13   H     H_    0.931564 0.375709 0.936374 0.151317
H14   H     H_    0.594627 0.591018 0.192775 0.164766
H15   H     H_    0.951007 0.693405 0.845881 0.169554
H16   H     H_    0.353637 0.678567 0.132796 0.135692
H17   H     H_    0.065210 0.749977 0.043833 0.153209
H18   H     H_    0.475990 0.629382 0.722328 0.164029
N1    N     N_2   0.434800 0.456690 0.470850 0.093807
N2    N     N_2   0.565200 0.543310 0.529150 -0.080302
O1    O     O_R   0.893060 0.738880 0.507150 -0.588147
O2    O     O_3   0.480088 0.335785 0.414254 -0.652055
O3    O     O_R   0.172250 0.711130 0.488470 -0.657510
O4    O     O_R   0.944700 0.520730 0.667600 -0.641195
O5    O     O_R   0.223890 0.492980 0.648920 -0.632986
O6    O     O_R   0.827750 0.288870 0.511530 -0.571732
O7    O     O_R   0.106940 0.261120 0.492850 -0.652523
O8    O     O_R   0.776110 0.507020 0.351080 -0.577302
O9    O     O_R   0.055300 0.479270 0.332400 -0.630254
O10   O     O_3   0.877230 0.993166 0.616211 -0.639626
Zn1   Zn    Zn3+2 0.813580 0.518530 0.512470 0.992836
Zn2   Zn    Zn3+2 0.186420 0.481470 0.487530 0.939477

loop_
_geom_bond_atom_site_label_1
_geom_bond_atom_site_label_2
_ccdc_geom_bond_type
C12   C17   A    
O3    Zn2   S    
O5    Zn2   S    
C2    C4    S    
C23   H1    S    
N1    Zn2   S    
C16   H9    S    
H10   O2    S    
N2    Zn1   S    
C19   C20   A    
O9    Zn2   S    
C10   H15   S    
O8    Zn1   S    
C14   O10   S    
C7    O8    A    
C6    O7    A    
C2    C17   A    
C11   C13   A    
C15   H5    S    
C5    C6    S    
C14   H3    S    
O4    Zn1   S    
C21   H18   S    
C15   C16   S    
C5    O10   S    
C7    O9    A    
C15   H6    S    
C10   C11   A    
C6    O6    A    
C8    H13   S    
C11   H17   S    
C14   H4    S    
C9    C22   A    
C13   H16   S    
C8    C19   A    
N1    N2    D    
N1    O2    S    
C16   H7    S    
O6    Zn1   S    
C2    C10   A    
O1    Zn1   S    
C3    H2    S    
C8    C23   A    
C12   C13   A    
C18   C19   A    
C4    O5    A    
C12   C18   A    
C7    C9    S    
C14   C15   S    
C9    C23   A    
C1    O1    A    
C1    O3    A    
C3    C5    D    
C20   C21   A    
C18   C22   A    
C22   H14   S    
C16   H8    S    
C20   H12   S    
C17   C21   A    
H11   N2    S    
O7    Zn2   S    
C1    C3    S    
C4    O4    A    
