data_mof_unit_6935.cif
_audit_creation_date              2012-12-11T15:17:33-0500
_audit_creation_method            fapswitch 2.2
_symmetry_space_group_name_H-M    P1
_symmetry_Int_Tables_number       1
_space_group_crystal_system       triclinic
_cell_length_a                    15.725756
_cell_length_b                    15.749184
_cell_length_c                    34.469098
_cell_angle_alpha                 90.099455
_cell_angle_beta                  89.768993
_cell_angle_gamma                 120.264205
_cell_volume                      7373.33885616

loop_
_atom_site_label
_atom_site_type_symbol
_atom_type_description
_atom_site_fract_x
_atom_site_fract_y
_atom_site_fract_z
_atom_type_partial_charge
C1    C     C_R   0.608096 0.419825 0.559614 0.538182
C2    C     C_R   0.500219 0.991699 0.211136 0.348446
C3    C     C_1   0.700465 0.084610 0.408910 0.223432
C4    C     C_1   0.383187 0.299475 0.409359 0.222436
C5    C     C_1   0.918176 0.617083 0.409493 0.221214
C6    C     C_R   0.491142 0.499645 0.211109 0.348405
C7    C     C_R   0.007647 0.508223 0.211142 0.348508
C8    C     C_R   0.000140 0.426578 0.855293 -0.117642
C9    C     C_R   0.587292 0.560879 0.861208 -0.118261
C10   C     C_R   0.440393 0.027578 0.861982 -0.118189
C11   C     C_R   0.434298 0.016654 0.352164 -0.117881
C12   C     C_R   0.583686 0.564844 0.351847 -0.117717
C13   C     C_R   0.983688 0.418025 0.352002 -0.117870
C14   C     C_R   0.039988 0.443818 0.892336 -0.133597
C15   C     C_R   0.580046 0.188277 0.559620 0.535164
C16   C     C_R   0.562954 0.589873 0.895705 -0.132098
C17   C     C_R   0.411907 0.974453 0.896495 -0.133178
C18   C     C_R   0.447671 0.048258 0.390437 -0.132620
C19   C     C_R   0.601744 0.551673 0.390121 -0.132355
C20   C     C_R   0.951871 0.399663 0.390292 -0.133066
C21   C     C_R   0.055716 0.605522 0.892378 -0.026701
C22   C     C_R   0.397685 0.448044 0.892661 -0.027362
C23   C     C_R   0.551071 0.948072 0.891693 -0.027367
C24   C     C_R   0.609134 0.062776 0.390612 -0.026712
C25   C     C_R   0.453455 0.390531 0.390788 -0.026784
C26   C     C_R   0.862613 0.421369 0.555099 0.531744
C27   C     C_R   0.939035 0.547228 0.390914 -0.026286
C28   C     C_R   0.015670 0.587415 0.855079 -0.118648
C29   C     C_R   0.422994 0.419578 0.857988 -0.118677
C30   C     C_R   0.579214 0.001912 0.856988 -0.118338
C31   C     C_R   0.594832 0.030804 0.352087 -0.118283
C32   C     C_R   0.435954 0.404629 0.352260 -0.118360
C33   C     C_R   0.971185 0.565012 0.352366 -0.118313
C34   C     C_R   0.992542 0.500203 0.835554 0.019967
C35   C     C_R   0.516674 0.477290 0.841317 0.018456
C36   C     C_R   0.522391 0.039170 0.841196 0.018953
C37   C     C_R   0.441487 0.578218 0.054847 0.551259
C38   C     C_R   0.509907 0.012882 0.332051 0.020411
C39   C     C_R   0.503628 0.489352 0.331985 0.020329
C40   C     C_R   0.988232 0.497686 0.332097 0.020402
C41   C     C_R   0.073346 0.535078 0.910555 0.003385
C42   C     C_R   0.467386 0.536214 0.911363 0.002892
C43   C     C_R   0.464354 0.931109 0.911304 0.003007
C44   C     C_R   0.537172 0.077454 0.409433 0.003959
C45   C     C_R   0.540598 0.462482 0.409384 0.003916
C46   C     C_R   0.923252 0.460131 0.409495 0.003633
C47   C     C_R   0.577631 0.442178 0.445496 0.564562
C48   C     C_R   0.136548 0.558291 0.054825 0.550306
C49   C     C_R   0.557745 0.135412 0.445495 0.563021
C50   C     C_R   0.864729 0.422457 0.445510 0.552760
C51   C     C_R   0.442140 0.577948 0.945199 0.549323
C52   C     C_R   0.135398 0.557650 0.945535 0.548393
C53   C     C_R   0.422276 0.864067 0.945173 0.547715
C54   C     C_R   0.912019 0.451859 0.592866 0.025149
C55   C     C_R   0.595079 0.425054 0.601766 0.018178
C56   C     C_R   0.574920 0.169994 0.601783 0.018054
C57   C     C_R   0.456232 0.918811 0.091193 0.023039
C58   C     C_R   0.462136 0.543818 0.091215 0.023189
C59   C     C_R   0.421748 0.863301 0.054841 0.550718
C60   C     C_R   0.080551 0.537007 0.091152 0.023146
C61   C     C_R   0.933598 0.387914 0.613197 -0.134684
C62   C     C_R   0.673520 0.495204 0.624122 -0.125749
C63   C     C_R   0.486779 0.138708 0.622350 -0.127897
C64   C     C_R   0.398464 0.951120 0.110065 -0.127673
C65   C     C_R   0.552770 0.601369 0.109818 -0.127593
C66   C     C_R   0.047483 0.446644 0.109881 -0.127742
C67   C     C_R   0.953349 0.400853 0.652700 -0.123122
C68   C     C_R   0.665176 0.496424 0.664396 -0.112274
C69   C     C_R   0.484071 0.128681 0.662560 -0.118458
C70   C     C_R   0.959683 0.483379 0.715114 0.346231
C71   C     C_R   0.416932 0.981266 0.148579 -0.115974
C72   C     C_R   0.564372 0.582918 0.148307 -0.115946
C73   C     C_R   0.017102 0.434896 0.148415 -0.116063
C74   C     C_R   0.952762 0.478482 0.672527 0.035137
C75   C     C_R   0.577671 0.427771 0.683136 0.035502
C76   C     C_R   0.569214 0.148939 0.683115 0.036525
C77   C     C_R   0.493485 0.979602 0.168759 0.034805
C78   C     C_R   0.485515 0.506599 0.168752 0.034732
C79   C     C_R   0.019332 0.513346 0.168743 0.034855
C80   C     C_R   0.940829 0.548007 0.651445 -0.119983
C81   C     C_R   0.566091 0.433371 0.725467 0.349621
C82   C     C_R   0.499169 0.357427 0.660717 -0.113798
C83   C     C_R   0.657516 0.180289 0.662622 -0.110825
C84   C     C_R   0.557234 0.956728 0.148686 -0.116064
C85   C     C_R   0.398180 0.443181 0.148966 -0.115967
C86   C     C_R   0.042729 0.600133 0.148792 -0.116101
C87   C     C_R   0.921122 0.535016 0.611783 -0.134182
C88   C     C_R   0.507817 0.356054 0.620459 -0.128798
C89   C     C_R   0.660383 0.191163 0.622330 -0.131574
C90   C     C_R   0.538717 0.926520 0.110129 -0.128679
C91   C     C_R   0.386572 0.461675 0.110425 -0.128683
C92   C     C_R   0.563749 0.132190 0.725399 0.347678
C93   C     C_R   0.073148 0.611885 0.110212 -0.128556
C94   C     C_R   0.972260 0.490718 0.793606 0.353431
C95   C     C_R   0.537292 0.456232 0.801653 0.349354
C96   C     C_R   0.542004 0.080633 0.801517 0.347905
C97   C     C_R   0.504072 0.000003 0.289691 0.351244
C98   C     C_R   0.496360 0.495274 0.289643 0.351210
C99   C     C_R   0.000671 0.504495 0.289714 0.351264
C100  C     C_1   0.082109 0.698918 0.909983 0.221758
C101  C     C_1   0.298526 0.387009 0.907072 0.219898
C102  C     C_1   0.610520 0.908011 0.905143 0.220608
Cr1   Cr    Cr6+3 0.522350 0.263930 0.500020 1.049486
Cr2   Cr    Cr6+3 0.736070 0.258420 0.500020 1.050655
Cr3   Cr    Cr6+3 0.741580 0.477650 0.500020 1.044607
Cr4   Cr    Cr6+3 0.263930 0.522350 0.000020 1.052096
Cr5   Cr    Cr6+3 0.258420 0.736070 0.000020 1.052699
Cr6   Cr    Cr6+3 0.477650 0.741580 0.000020 1.051838
H1    H     H_    0.928436 0.323802 0.599250 0.137031
H2    H     H_    0.585034 0.902906 0.096067 0.131980
H3    H     H_    0.316161 0.415594 0.096586 0.131927
H4    H     H_    0.097290 0.682011 0.096246 0.132355
H5    H     H_    0.049958 0.387299 0.905749 0.162145
H6    H     H_    0.618624 0.656799 0.909446 0.161141
H7    H     H_    0.346164 0.964477 0.910927 0.157085
H8    H     H_    0.389991 0.056077 0.404254 0.160309
H9    H     H_    0.667714 0.609291 0.403741 0.160660
H10   H     H_    0.943305 0.333870 0.403939 0.160388
H11   H     H_    0.964602 0.347282 0.667957 0.142076
H12   H     H_    0.741635 0.548857 0.610420 0.124472
H13   H     H_    0.727072 0.551778 0.680747 0.142691
H14   H     H_    0.414736 0.103894 0.677469 0.140307
H15   H     H_    0.367776 0.000556 0.163076 0.141878
H16   H     H_    0.633349 0.631848 0.162571 0.141810
H17   H     H_    0.997344 0.366295 0.162820 0.141803
H18   H     H_    0.941840 0.609673 0.665837 0.137222
H19   H     H_    0.430648 0.303567 0.674187 0.140012
H20   H     H_    0.724422 0.196832 0.677711 0.142713
H21   H     H_    0.617769 0.956235 0.163332 0.141706
H22   H     H_    0.336615 0.382865 0.163819 0.141765
H23   H     H_    0.419886 0.122984 0.607467 0.135662
H24   H     H_    0.043614 0.661315 0.163558 0.141791
H25   H     H_    0.980755 0.357525 0.841325 0.151194
H26   H     H_    0.660531 0.606508 0.849365 0.149528
H27   H     H_    0.395678 0.056451 0.850879 0.148799
H28   H     H_    0.366726 0.000571 0.337747 0.150053
H29   H     H_    0.635749 0.632236 0.337245 0.150158
H30   H     H_    0.999161 0.366326 0.337400 0.150123
H31   H     H_    0.007575 0.643927 0.840539 0.145169
H32   H     H_    0.367861 0.354016 0.843241 0.144790
H33   H     H_    0.643335 0.010932 0.841444 0.144585
H34   H     H_    0.335136 0.947094 0.095930 0.134604
H35   H     H_    0.652643 0.025200 0.337167 0.144773
H36   H     H_    0.372059 0.346877 0.337539 0.144717
H37   H     H_    0.977512 0.628708 0.337609 0.144741
H38   H     H_    0.612653 0.664460 0.095474 0.134426
H39   H     H_    0.051186 0.387233 0.095628 0.134451
H40   H     H_    0.906893 0.586568 0.596513 0.124179
H41   H     H_    0.446221 0.300555 0.604035 0.131171
H42   H     H_    0.729632 0.216934 0.607255 0.133109
N1    N     N_R   0.963867 0.412305 0.773866 -0.217483
N2    N     N_R   0.428071 0.995891 0.231198 -0.222690
N3    N     N_R   0.568383 0.571411 0.230913 -0.222765
N4    N     N_R   0.003202 0.431877 0.231037 -0.222819
N5    N     N_R   0.966296 0.561138 0.734830 -0.220960
N6    N     N_R   0.479845 0.370306 0.743344 -0.215127
N7    N     N_R   0.632922 0.119855 0.743849 -0.214159
N8    N     N_R   0.574124 0.991114 0.231113 -0.222292
N9    N     N_R   0.416159 0.425837 0.231338 -0.222176
N10   N     N_R   0.009178 0.583096 0.231289 -0.222210
N11   N     N_R   0.973032 0.564977 0.773333 -0.217839
N12   N     N_R   0.624519 0.517631 0.784030 -0.218678
N13   N     N_R   0.465703 0.381568 0.780646 -0.216648
N14   N     N_R   0.622096 0.094277 0.781143 -0.219298
N15   N     N_R   0.576367 0.995856 0.269652 -0.220986
N16   N     N_R   0.419024 0.423346 0.269863 -0.221006
N17   N     N_R   0.005068 0.580942 0.269842 -0.221050
N18   N     N_1   0.103195 0.773820 0.923992 -0.284192
N19   N     N_1   0.219006 0.337917 0.918516 -0.286144
N20   N     N_1   0.658346 0.876022 0.915817 -0.283992
N21   N     N_1   0.773721 0.102067 0.423475 -0.278232
N22   N     N_1   0.326778 0.226438 0.424146 -0.278973
N23   N     N_R   0.474451 0.095816 0.783282 -0.215940
N24   N     N_1   0.901501 0.673163 0.424286 -0.279822
N25   N     N_R   0.430195 0.000402 0.269682 -0.220562
N26   N     N_R   0.571134 0.569042 0.269381 -0.220505
N27   N     N_R   0.999322 0.429835 0.269533 -0.220575
N28   N     N_R   0.957327 0.408545 0.735434 -0.223658
N29   N     N_R   0.638669 0.506371 0.746731 -0.216638
N30   N     N_R   0.485038 0.120963 0.746016 -0.215112
O1    O     O_R   0.498680 0.159540 0.541860 -0.512243
O2    O     O_R   0.358060 0.532760 0.040030 -0.505830
O3    O     O_R   0.174700 0.641940 0.040030 -0.505427
O4    O     O_R   0.467240 0.825300 0.040030 -0.506468
O5    O     O_R   0.498590 0.161190 0.456930 -0.501509
O6    O     O_R   0.838810 0.337400 0.456930 -0.502643
O7    O     O_R   0.662600 0.501410 0.456930 -0.499533
O8    O     O_R   0.161190 0.498590 0.956930 -0.504336
O9    O     O_R   0.337400 0.838810 0.956930 -0.505265
O10   O     O_R   0.501410 0.662600 0.956930 -0.503362
O11   O     O_R   0.532680 0.359580 0.461300 -0.480111
O12   O     O_R   0.840460 0.339140 0.541860 -0.527964
O13   O     O_R   0.640420 0.173100 0.461300 -0.477882
O14   O     O_R   0.826900 0.467320 0.461300 -0.483553
O15   O     O_R   0.359580 0.532680 0.961300 -0.486866
O16   O     O_R   0.173100 0.640420 0.961300 -0.487225
O17   O     O_R   0.467320 0.826900 0.961300 -0.487250
O18   O     O_3   0.666667 0.333333 0.499990 -0.302549
O19   O     O_3   0.333333 0.666667 0.999990 -0.253117
O20   O     O_R   0.660860 0.501320 0.541860 -0.495630
O21   O     O_R   0.159540 0.498680 0.041860 -0.519788
O22   O     O_R   0.339140 0.840460 0.041860 -0.519004
O23   O     O_R   0.501320 0.660860 0.041860 -0.519880
O24   O     O_R   0.532760 0.358060 0.540030 -0.511677
O25   O     O_R   0.641940 0.174700 0.540030 -0.488505
O26   O     O_R   0.825300 0.467240 0.540030 -0.527458

loop_
_geom_bond_atom_site_label_1
_geom_bond_atom_site_label_2
_ccdc_geom_bond_type
C44   C49   S    
C102  N20   T    
C11   C18   A    
C97   N25   A    
C22   C29   A    
C25   C45   A    
C5    N24   T    
Cr1   O5    S    
C14   H5    S    
C83   H20   S    
C61   H1    S    
C32   C39   A    
C40   C99   S    
C20   H10   S    
C6    N9    A    
C85   C91   A    
Cr3   O26   S    
C27   C33   A    
C68   C75   A    
N3    N26   A    
C17   H7    S    
C81   N6    A    
C64   H34   S    
C98   N16   A    
C71   H15   S    
C9    C16   A    
C99   N27   A    
C80   C87   A    
C18   C44   A    
C54   C87   A    
C73   H17   S    
C6    C78   S    
C23   C102  S    
C10   C17   A    
Cr2   O12   S    
C55   C62   A    
C84   H21   S    
Cr6   O17   S    
C23   C43   A    
C69   C76   A    
C88   H41   S    
C64   C71   A    
C91   H3    S    
C55   C88   A    
C36   C96   S    
Cr1   O24   S    
Cr4   O2    S    
C13   C40   A    
C72   C78   A    
C92   N30   A    
C5    C27   S    
N2    N25   A    
C43   C53   S    
Cr3   O20   S    
C63   C69   A    
N6    N13   A    
C52   O16   A    
C70   C74   S    
Cr2   O13   S    
C101  N19   T    
C63   H23   S    
C58   C91   A    
C41   C52   S    
C62   H12   S    
C37   C58   S    
C82   C88   A    
C42   C51   S    
C60   C93   A    
C25   C32   A    
C28   C34   A    
C74   C80   A    
C72   H16   S    
C47   O11   A    
C57   C90   A    
Cr6   O10   S    
C3    C24   S    
C26   O26   A    
C28   H31   S    
C84   C90   A    
N10   N17   A    
C38   C97   S    
C26   C54   S    
C76   C83   A    
Cr5   O16   S    
C48   C60   S    
C99   N17   A    
C45   C47   S    
C2    N2    A    
Cr3   O14   S    
C83   C89   A    
C33   C40   A    
C66   H39   S    
C87   H40   S    
Cr6   O4    S    
C70   N5    A    
C23   C30   A    
C10   H27   S    
C81   N29   A    
Cr5   O22   S    
C96   N23   A    
C95   N12   A    
C18   H8    S    
C21   C100  S    
C26   O12   A    
C75   C81   S    
C39   C98   S    
C7    N10   A    
N23   N30   A    
C94   N1    A    
C66   C73   A    
C48   O21   A    
C12   C39   A    
N5    N11   A    
C96   N14   A    
Cr5   O3    S    
C92   N7    A    
C49   O13   A    
Cr1   O18   S    
C11   C38   A    
C17   C43   A    
C86   C93   A    
C95   N13   A    
C85   H22   S    
C98   N26   A    
C61   C67   A    
C58   C65   A    
N7    N14   A    
C2    N8    A    
Cr5   O9    S    
C37   O23   A    
C56   C63   A    
C67   C74   A    
C8    C34   A    
Cr2   O25   S    
C30   H33   S    
C94   N11   A    
N12   N29   A    
C15   O25   A    
C51   O10   A    
C33   H37   S    
C76   C92   S    
C14   C41   A    
C21   C41   A    
N1    N28   A    
C78   C85   A    
Cr3   O18   S    
C21   C28   A    
C22   C101  S    
C3    N21   T    
C24   C44   A    
C1    O20   A    
Cr1   O11   S    
C90   H2    S    
C47   O7    A    
C50   O6    A    
C16   C42   A    
C71   C77   A    
C27   C46   A    
C57   C64   A    
C7    C79   S    
C29   H32   S    
C56   C89   A    
C89   H42   S    
C8    C14   A    
C4    N22   T    
C13   C20   A    
C8    H25   S    
Cr1   O1    S    
Cr2   O18   S    
C70   N28   A    
C34   C94   S    
C73   C79   A    
C16   H6    S    
C68   H13   S    
C48   O3    A    
C19   C45   A    
C75   C82   A    
Cr4   O15   S    
C54   C61   A    
C35   C95   S    
Cr6   O23   S    
C65   C72   A    
Cr2   O6    S    
C29   C35   A    
C46   C50   S    
C77   C84   A    
N9    N16   A    
C30   C36   A    
C100  N18   T    
C53   O17   A    
C13   H30   S    
Cr3   O7    S    
C31   C38   A    
C67   H11   S    
C4    C25   S    
C1    C55   S    
C24   C31   A    
Cr4   O8    S    
C2    C77   S    
C51   O15   A    
C11   H28   S    
C9    H26   S    
Cr4   O21   S    
Cr5   O19   S    
C50   O14   A    
C59   O22   A    
C86   H24   S    
C22   C42   A    
C7    N4    A    
C80   H18   S    
C69   H14   S    
Cr6   O19   S    
C97   N15   A    
C37   O2    A    
C15   O1    A    
C12   C19   A    
C62   C68   A    
C31   H35   S    
C59   O4    A    
C15   C56   S    
C82   H19   S    
C32   H36   S    
C6    N3    A    
C57   C59   S    
C93   H4    S    
C60   C66   A    
C49   O5    A    
C19   H9    S    
N4    N27   A    
C9    C35   A    
C12   H29   S    
C10   C36   A    
C52   O8    A    
C65   H38   S    
C1    O24   A    
C53   O9    A    
C79   C86   A    
C20   C46   A    
N8    N15   A    
Cr4   O19   S    
