data_mof_unit_23745.cif
_audit_creation_date              2012-12-10T20:51:42-0500
_audit_creation_method            fapswitch 2.2
_symmetry_space_group_name_H-M    P1
_symmetry_Int_Tables_number       1
_space_group_crystal_system       triclinic
_cell_length_a                    8.104247
_cell_length_b                    8.927881
_cell_length_c                    16.811338
_cell_angle_alpha                 89.628255
_cell_angle_beta                  92.936416
_cell_angle_gamma                 89.9951
_cell_volume                      1214.7406336

loop_
_atom_site_label
_atom_site_type_symbol
_atom_type_description
_atom_site_fract_x
_atom_site_fract_y
_atom_site_fract_z
_atom_type_partial_charge
C1    C     C_R   0.499977 0.217991 0.499916 0.935961
C2    C     C_R   0.613144 0.524079 0.135193 -0.079508
C3    C     C_R   0.462650 0.515782 0.900114 0.212083
C4    C     C_R   0.479034 0.605539 0.100216 0.229056
C5    C     C_R   0.531312 0.389399 0.865287 0.180490
C6    C     C_R   0.346023 0.647308 0.145029 0.174946
C7    C     C_R   0.561819 0.390087 0.785029 -0.260485
C8    C     C_R   0.345112 0.605769 0.224588 -0.255187
C9    C     C_1   0.499992 0.065203 0.499567 -0.168320
C10   C     C_1   0.500023 0.934807 0.499374 -0.161199
C11   C     C_1   0.743408 0.386233 0.249042 0.232679
C12   C     C_R   0.499989 0.782006 0.499501 0.940971
C13   C     C_1   0.408312 0.772935 0.722173 0.194082
C14   C     C_1   0.752118 0.485472 0.088178 0.271757
C15   C     C_1   0.336274 0.771759 0.885201 0.280989
C16   C     C_R   0.518672 0.500097 0.653273 0.891099
C17   C     C_R   0.481287 0.501226 0.346076 0.885717
C18   C     C_R   0.520958 0.515282 0.738480 -0.102801
C19   C     C_R   0.476440 0.523140 0.260106 -0.123237
C20   C     C_R   0.451048 0.643317 0.771750 -0.079276
C21   C     C_R   0.610594 0.479444 0.214946 -0.082077
C22   C     C_R   0.419715 0.643754 0.852904 -0.083383
H1    H     H_    0.610346 0.290342 0.758162 0.172828
H2    H     H_    0.243245 0.641538 0.259216 0.190446
I1    I     I_    0.589860 0.192477 0.932255 -0.278376
I2    I     I_    0.142232 0.770079 0.095200 -0.285114
N1    N     N_1   0.073640 0.500030 0.499990 -0.023151
N2    N     N_1   0.926360 0.499970 0.500010 -0.022693
N3    N     N_2   0.445512 0.509079 0.982975 -0.141903
N4    N     N_2   0.471468 0.629908 0.017788 -0.152464
N5    N     N_1   0.849355 0.311943 0.276096 -0.169582
N6    N     N_1   0.373933 0.876504 0.683012 -0.194510
N7    N     N_1   0.862896 0.454547 0.050692 -0.130508
N8    N     N_1   0.269821 0.874768 0.910076 -0.116758
O1    O     O_R   0.636850 0.285340 0.500000 -0.614259
O2    O     O_R   0.363150 0.714660 0.500000 -0.612493
O3    O     O_R   0.363100 0.285350 0.500000 -0.610253
O4    O     O_R   0.636900 0.714650 0.500000 -0.615953
O5    O     O_R   0.652140 0.498630 0.616140 -0.612382
O6    O     O_R   0.347860 0.501370 0.383860 -0.616999
O7    O     O_R   0.378390 0.498650 0.616130 -0.610942
O8    O     O_R   0.621610 0.501350 0.383870 -0.615944
Zn1   Zn    Zn3+2 0.682780 0.499990 0.500010 1.012657
Zn2   Zn    Zn3+2 0.317220 0.500010 0.499990 1.013994

loop_
_geom_bond_atom_site_label_1
_geom_bond_atom_site_label_2
_ccdc_geom_bond_type
C19   C21   A    
C2    C4    A    
C5    C7    A    
C15   N8    T    
N3    N4    D    
C12   O2    A    
O1    Zn1   S    
C9    C10   T    
C13   N6    T    
C1    O3    A    
C7    C18   A    
C14   N7    T    
C11   N5    T    
O4    Zn1   S    
C6    I2    S    
C10   C12   S    
C2    C21   A    
C7    H1    S    
N1    Zn2   S    
C4    C6    A    
C8    H2    S    
C20   C22   A    
C18   C20   A    
C12   O4    A    
C2    C14   S    
O7    Zn2   S    
C5    I1    S    
O2    Zn2   S    
C8    C19   A    
O8    Zn1   S    
C16   O5    A    
O3    Zn2   S    
O6    Zn2   S    
C1    C9    S    
C1    O1    A    
C16   C18   S    
N1    N2    T    
C3    N3    S    
C17   O8    A    
C3    C22   A    
C6    C8    A    
N2    Zn1   S    
C13   C20   S    
C17   C19   S    
O5    Zn1   S    
C16   O7    A    
C11   C21   S    
C15   C22   S    
C4    N4    S    
C3    C5    A    
C17   O6    A    
