data_mof_unit_42997.cif
_audit_creation_date              2012-10-26T19:25:26-0400
_audit_creation_method            fapswitch 2.2
_symmetry_space_group_name_H-M    P1
_symmetry_Int_Tables_number       1
_space_group_crystal_system       triclinic
_cell_length_a                    12.322734
_cell_length_b                    13.193166
_cell_length_c                    19.337421
_cell_angle_alpha                 77.451969
_cell_angle_beta                  101.355269
_cell_angle_gamma                 116.504919
_cell_volume                      2728.14207174

loop_
_atom_site_label
_atom_site_type_symbol
_atom_type_description
_atom_site_fract_x
_atom_site_fract_y
_atom_site_fract_z
_atom_type_partial_charge
C1    C     C_R   0.854899 0.286671 0.505622 0.525904
C2    C     C_R   0.998662 0.506293 0.144833 0.026271
C3    C     C_R   0.272269 0.025841 0.414532 -0.135257
C4    C     C_R   0.999531 0.499456 0.632414 0.536619
C5    C     C_R   0.227955 0.834934 0.477563 -0.002057
C6    C     C_R   0.817142 0.084407 0.547291 -0.129633
C7    C     C_R   0.739261 0.969178 0.559849 -0.135966
C8    C     C_R   0.615298 0.931930 0.536833 -0.112644
C9    C     C_R   0.566771 0.009634 0.497815 0.035870
C10   C     C_R   0.649065 0.124904 0.477804 0.024205
C11   C     C_R   0.439471 0.976742 0.477593 0.034206
C12   C     C_R   0.998675 0.498142 0.708440 0.013921
C13   C     C_R   0.397640 0.056288 0.433414 0.053882
C14   C     C_R   0.481343 0.164378 0.407149 -0.132931
C15   C     C_R   0.605210 0.197284 0.427594 -0.116910
C16   C     C_R   0.145075 0.713468 0.490271 0.554130
C17   C     C_R   0.352037 0.867322 0.500471 -0.125889
C18   C     C_R   0.187688 0.915577 0.436637 -0.139112
C19   C     C_R   0.773129 0.163861 0.508067 -0.001647
C20   C     C_R   0.341485 0.320433 0.608905 -0.146859
C21   C     C_R   0.759530 0.645076 0.402672 0.377797
C22   C     C_R   0.654695 0.665256 0.376412 -0.094350
C23   C     C_R   0.998081 0.502143 0.069200 0.328464
C24   C     C_R   0.546155 0.600062 0.406425 0.182640
C25   C     C_R   0.544460 0.523888 0.470930 -0.030213
C26   C     C_R   0.650407 0.501386 0.494425 0.100679
C27   C     C_R   0.442489 0.468130 0.512453 -0.009372
C28   C     C_R   0.999446 0.499105 0.367591 0.541617
C29   C     C_R   0.441687 0.380102 0.569584 0.036705
C30   C     C_R   0.542087 0.354022 0.588407 -0.168425
C31   C     C_R   0.645289 0.415630 0.553157 -0.097383
C32   C     C_R   0.343154 0.498902 0.502286 0.032021
C33   C     C_R   0.243377 0.349943 0.592888 0.042099
C34   C     C_R   0.997560 0.495185 0.930068 0.337898
C35   C     C_R   0.101286 0.503550 0.757142 -0.131962
C36   C     C_R   0.100961 0.502675 0.829258 -0.117464
C37   C     C_R   0.997444 0.494888 0.854033 0.035194
C38   C     C_R   0.894372 0.488407 0.805383 -0.117363
C39   C     C_R   0.895266 0.490768 0.733092 -0.136280
C40   C     C_3   0.858833 0.752400 0.301157 -0.035431
C41   C     C_3   0.980753 0.796014 0.272290 -0.352515
C42   C     C_R   0.091098 0.489781 0.194815 -0.146153
C43   C     C_R   0.091358 0.486696 0.267311 -0.138474
C44   C     C_R   0.998298 0.498722 0.291399 -0.046027
C45   C     C_R   0.904954 0.513760 0.241807 -0.081309
C46   C     C_R   0.906343 0.521960 0.168893 0.241702
Cu1   Cu    Cu3+1 0.098280 0.475420 0.516260 0.935661
Cu2   Cu    Cu3+1 0.901720 0.524580 0.483740 0.978888
H1    H     H_    0.182334 0.509499 0.739468 0.132974
H2    H     H_    0.542692 0.287664 0.632647 0.112539
H3    H     H_    0.339294 0.251680 0.651928 0.098790
H4    H     H_    0.181515 0.507398 0.865628 0.140131
H5    H     H_    0.342038 0.572410 0.465343 0.179468
H6    H     H_    0.653371 0.727770 0.330126 0.128145
H7    H     H_    0.719147 0.392546 0.573925 0.182725
H8    H     H_    0.813496 0.482909 0.822988 0.137878
H9    H     H_    0.814737 0.485988 0.696669 0.123952
H10   H     H_    0.162695 0.477638 0.177909 0.148908
H11   H     H_    0.164202 0.474513 0.304430 0.146492
H12   H     H_    0.451004 0.223867 0.370414 0.113311
H13   H     H_    0.832364 0.523521 0.259304 0.155044
H14   H     H_    0.091587 0.892337 0.419631 0.162973
H15   H     H_    0.834882 0.826361 0.292993 0.125059
H16   H     H_    0.789248 0.684307 0.270345 0.135470
H17   H     H_    0.018180 0.730861 0.287710 0.173610
H18   H     H_    0.968473 0.815570 0.213212 0.121549
H19   H     H_    0.047318 0.875417 0.293778 0.139163
H20   H     H_    0.377979 0.527159 0.369018 0.313283
H21   H     H_    0.853801 0.594934 0.079267 0.340497
H22   H     H_    0.239875 0.086535 0.381262 0.110724
H23   H     H_    0.377830 0.804547 0.535788 0.120642
H24   H     H_    0.911795 0.111614 0.569841 0.130072
H25   H     H_    0.560790 0.841386 0.549388 0.108049
H26   H     H_    0.774576 0.908587 0.589689 0.123526
H27   H     H_    0.665589 0.279304 0.401878 0.152260
H28   H     H_    0.164987 0.303128 0.622343 0.123012
N1    N     N_R   0.891254 0.460024 0.957609 -0.228260
N2    N     N_R   0.891501 0.462787 0.025958 -0.195527
N3    N     N_R   0.104307 0.535471 0.041966 -0.228186
N4    N     N_R   0.104048 0.532128 0.973674 -0.226222
N5    N     N_R   0.246290 0.438200 0.540910 -0.243540
N6    N     N_R   0.754310 0.561190 0.459520 -0.230002
O1    O     O_R   0.972510 0.318130 0.520450 -0.504817
O2    O     O_3   0.442841 0.606469 0.367119 -0.717337
O3    O     O_3   0.818198 0.548337 0.123478 -0.686622
O4    O     O_R   0.806530 0.359650 0.492990 -0.534835
O5    O     O_R   0.083010 0.479220 0.613590 -0.504798
O6    O     O_R   0.917030 0.520740 0.586130 -0.523574
O7    O     O_R   0.193470 0.640350 0.507010 -0.515027
O8    O     O_R   0.027490 0.681870 0.479550 -0.438909
O9    O     O_R   0.082970 0.479260 0.413870 -0.500343
O10   O     O_R   0.916990 0.520780 0.386410 -0.474760
O11   O     O_3   0.870707 0.709617 0.374593 -0.522236

loop_
_geom_bond_atom_site_label_1
_geom_bond_atom_site_label_2
_ccdc_geom_bond_type
C15   H27   S    
C16   O8    A    
C27   C29   A    
C34   C37   S    
C35   C36   A    
C40   O11   S    
C42   H10   S    
C7    C8    A    
C22   H6    S    
C4    O5    A    
C45   C46   A    
C2    C46   A    
C6    H24   S    
C32   N5    A    
C29   C30   A    
C40   H15   S    
C36   C37   A    
C20   H3    S    
C10   C15   A    
C34   N1    A    
C38   C39   A    
C5    C17   A    
C39   H9    S    
C3    C18   A    
C5    C16   S    
C34   N4    A    
C8    C9    A    
C35   H1    S    
Cu2   O6    S    
Cu1   O1    S    
C4    C12   S    
C9    C10   A    
C3    C13   A    
C43   H11   S    
C46   O3    S    
C30   H2    S    
C26   C31   A    
C26   N6    A    
Cu2   O8    S    
C21   C22   A    
Cu1   O7    S    
C7    H26   S    
C20   C29   A    
C1    C19   S    
H20   O2    S    
C3    H22   S    
C24   C25   A    
C41   H19   S    
C18   H14   S    
C41   H17   S    
C5    C18   A    
C25   C26   A    
N1    N2    A    
C28   C44   S    
Cu1   O5    S    
C43   C44   A    
C37   C38   A    
C6    C19   A    
C33   H28   S    
Cu1   Cu2   S    
C10   C19   A    
C28   O10   A    
C12   C35   A    
C9    C11   A    
C41   H18   S    
C20   C33   A    
C40   C41   S    
C17   H23   S    
Cu2   O4    S    
C25   C27   A    
C42   C43   A    
C32   H5    S    
H21   O3    S    
C44   C45   A    
C1    O4    A    
C11   C17   A    
C27   C32   A    
Cu1   O9    S    
C36   H4    S    
C6    C7    A    
C4    O6    A    
C1    O1    A    
C14   H12   S    
C40   H16   S    
C23   N3    A    
C12   C39   A    
C24   O2    S    
C11   C13   A    
C30   C31   A    
C21   O11   S    
C2    C42   A    
C45   H13   S    
C8    H25   S    
Cu2   N6    S    
C28   O9    A    
C22   C24   A    
Cu1   N5    S    
C23   N2    A    
N3    N4    A    
C16   O7    A    
C38   H8    S    
C21   N6    A    
Cu2   O10   S    
C2    C23   S    
C14   C15   A    
C31   H7    S    
C13   C14   A    
C33   N5    A    
