data_mof_unit_12287.cif
_audit_creation_date              2012-12-10T20:42:44-0500
_audit_creation_method            fapswitch 2.2
_symmetry_space_group_name_H-M    P1
_symmetry_Int_Tables_number       1
_space_group_crystal_system       triclinic
_cell_length_a                    8.894557
_cell_length_b                    10.663201
_cell_length_c                    9.889849
_cell_angle_alpha                 89.678257
_cell_angle_beta                  90.280134
_cell_angle_gamma                 90.310443
_cell_volume                      937.95764998

loop_
_atom_site_label
_atom_site_type_symbol
_atom_type_description
_atom_site_fract_x
_atom_site_fract_y
_atom_site_fract_z
_atom_type_partial_charge
C1    C     C_R   0.506394 0.260017 0.500372 0.850684
C2    C     C_R   0.562069 0.936117 0.379387 -0.243827
C3    C     C_R   0.531976 0.871331 0.500111 -0.100517
C4    C     C_R   0.533327 0.935005 0.622480 0.155191
C5    C     C_3   0.427676 0.926112 0.739170 -0.480326
C6    C     C_3   0.429017 0.068091 0.740429 -0.512542
C7    C     C_R   0.371089 0.475881 0.070268 0.124220
C8    C     C_R   0.621489 0.541057 0.073018 -0.253403
C9    C     C_R   0.623504 0.539795 0.928089 0.516270
C10   C     C_R   0.371121 0.476219 0.928538 0.060719
C11   C     C_3   0.274260 0.362229 0.922037 -0.576170
C12   C     C_R   0.218805 0.499734 0.499780 0.924508
C13   C     C_3   0.271644 0.362661 0.076444 0.326624
C14   C     C_R   0.505459 0.739997 0.499687 0.868160
C15   C     C_R   0.781219 0.500084 0.500221 0.931689
C16   C     C_1   0.065459 0.499743 0.499691 -0.236290
C17   C     C_1   0.934582 0.499887 0.500277 -0.214918
C18   C     C_R   0.534355 0.062893 0.623263 0.139818
C19   C     C_R   0.533712 0.128790 0.501334 -0.115769
C20   C     C_R   0.563471 0.065883 0.380103 -0.220978
H1    H     H_    0.575974 0.115721 0.285054 0.201340
H2    H     H_    0.333999 0.281471 0.878108 0.221898
H3    H     H_    0.160289 0.384939 0.121145 0.057800
H4    H     H_    0.573505 0.887808 0.283944 0.172840
H5    H     H_    0.316618 0.885384 0.710770 0.201666
H6    H     H_    0.481451 0.883616 0.830094 0.212847
H7    H     H_    0.318446 0.109790 0.713347 0.200433
H8    H     H_    0.484428 0.106990 0.832145 0.211325
H9    H     H_    0.717721 0.575065 0.129198 0.156599
H10   H     H_    0.162877 0.381854 0.875842 0.159384
N1    N     N_R   0.499010 0.499140 0.142800 -0.098987
N2    N     N_R   0.499010 0.499180 0.857150 -0.127815
O1    O     O_R   0.500020 0.316790 0.614690 -0.622644
O2    O     O_R   0.500000 0.316760 0.385350 -0.573371
O3    O     O_R   0.285350 0.500020 0.614650 -0.617507
O4    O     O_R   0.285340 0.499980 0.385310 -0.616353
O5    O     O_R   0.500000 0.683240 0.614650 -0.597371
O6    O     O_R   0.499980 0.683210 0.385310 -0.629197
O7    O     O_R   0.714660 0.500020 0.614690 -0.572197
O8    O     O_R   0.714650 0.499980 0.385350 -0.630959
Zn1   Zn    Zn3+2 0.500010 0.500020 0.653130 0.974810
Zn2   Zn    Zn3+2 0.499990 0.499980 0.346870 0.963440
O9    O     O_3   0.346506 0.258781 0.134580 -0.601631
C21   C     C_3   0.247641 0.154559 0.143333 0.082831
H11   H     H_    0.317073 0.068428 0.138131 0.161726
H12   H     H_    0.166667 0.149529 0.056926 0.122718
C22   C     C_3   0.163188 0.154141 0.278286 -0.337070
H13   H     H_    0.244856 0.159699 0.363160 0.232206
H14   H     H_    0.088122 0.236817 0.283853 0.206697
C23   C     C_3   0.068605 0.035285 0.295081 -0.964057
H15   H     H_    0.984459 0.027979 0.212062 0.263970
H16   H     H_    0.008130 0.038237 0.392985 0.268068
H17   H     H_    0.141722 0.951119 0.294560 0.267062
O10   O     O_3   0.743430 0.590489 0.857000 -0.592966
C24   C     C_3   0.883454 0.540625 0.899822 0.103946
H18   H     H_    0.938932 0.498497 0.810732 0.172909
H19   H     H_    0.875300 0.463241 0.975897 0.054678
C25   C     C_3   0.984087 0.645485 0.955531 -0.376236
H20   H     H_    0.923160 0.697882 0.034891 0.214051
H21   H     H_    0.085506 0.603518 0.002948 0.170613
C26   C     C_3   0.033835 0.736596 0.844507 -0.800689
H22   H     H_    0.099970 0.686632 0.766666 0.253175
H23   H     H_    0.105744 0.811218 0.889195 0.226102
H24   H     H_    0.934620 0.781183 0.795834 0.280769

loop_
_geom_bond_atom_site_label_1
_geom_bond_atom_site_label_2
_ccdc_geom_bond_type
C8    C9    A    
C7    C10   A    
C23   H16   S    
N2    Zn1   S    
N1    Zn2   S    
C12   O4    A    
C19   C20   A    
C11   H2    S    
O4    Zn2   S    
C6    H7    S    
O2    Zn2   S    
C21   C22   S    
C13   O9    S    
O9    C21   S    
O1    Zn1   S    
C25   C26   S    
O8    Zn2   S    
C2    C3    A    
C1    O1    A    
O7    Zn1   S    
C20   H1    S    
C12   O3    A    
C2    H4    S    
C11   C13   S    
C15   O7    A    
C5    C6    S    
C3    C14   S    
O3    Zn1   S    
C8    H9    S    
C21   H12   S    
C1    O2    A    
O6    Zn2   S    
C22   C23   S    
C24   H19   S    
O5    Zn1   S    
C26   H22   S    
C6    C18   S    
C5    H5    S    
C15   O8    A    
C1    C19   S    
C23   H17   S    
C14   O6    A    
C10   C11   S    
C24   H18   S    
C25   H21   S    
C5    H6    S    
C26   H24   S    
C10   N2    A    
C7    C13   S    
C7    N1    A    
C21   H11   S    
C13   H3    S    
C22   H14   S    
C18   C19   A    
C24   C25   S    
C15   C17   S    
O10   C24   S    
C16   C17   T    
C9    O10   S    
C12   C16   S    
C9    N2    A    
C23   H15   S    
C25   H20   S    
C8    N1    A    
C2    C20   A    
C4    C18   A    
C26   H23   S    
C6    H8    S    
C3    C4    A    
C22   H13   S    
C11   H10   S    
C4    C5    S    
C14   O5    A    
