data_mof_unit_22480.cif
_audit_creation_date              2012-12-11T18:37:24-0500
_audit_creation_method            fapswitch 2.2
_symmetry_space_group_name_H-M    P1
_symmetry_Int_Tables_number       1
_space_group_crystal_system       triclinic
_cell_length_a                    8.242792
_cell_length_b                    14.287706
_cell_length_c                    26.99335
_cell_angle_alpha                 93.148148
_cell_angle_beta                  92.98632
_cell_angle_gamma                 88.394173
_cell_volume                      3168.90515032

loop_
_atom_site_label
_atom_site_type_symbol
_atom_type_description
_atom_site_fract_x
_atom_site_fract_y
_atom_site_fract_z
_atom_type_partial_charge
Ba1   Ba    Ba6+2 0.849670 0.455410 0.524690 1.713807
Ba2   Ba    Ba6+2 0.340150 0.544510 0.475310 1.693122
C1    C     C_3   0.710605 0.214395 0.753900 -0.270917
C2    C     C_3   0.664653 0.227627 0.699179 0.897683
C3    C     C_3   0.531866 0.675438 0.622290 0.290241
C4    C     C_3   0.528555 0.697302 0.677995 -0.319322
C5    C     C_3   0.091222 0.747046 0.334000 0.341174
C6    C     C_3   0.113660 0.773796 0.281073 -0.303243
C7    C     C_3   0.558821 0.798500 0.358028 0.344293
C8    C     C_3   0.525893 0.895911 0.339126 -0.354168
C9    C     C_R   0.984187 0.427823 0.179457 0.616401
C10   C     C_R   0.932454 0.593294 0.176236 0.568666
C11   C     C_2   0.766242 0.564950 0.270572 -0.018135
C12   C     C_3   0.182833 0.217618 0.664088 0.317546
C13   C     C_3   0.751417 0.592912 0.324816 -0.060017
C14   C     C_1   0.976267 0.481992 0.342997 0.003310
C15   C     C_2   0.014968 0.477009 0.295358 -0.098256
C16   C     C_2   0.902138 0.518174 0.255698 0.210152
C17   C     C_R   0.013926 0.504250 0.101356 -0.079858
C18   C     C_R   0.020357 0.422500 0.128451 -0.040127
C19   C     C_R   0.062551 0.336988 0.103938 -0.052204
C20   C     C_R   0.970345 0.590101 0.125688 -0.020626
C21   C     C_2   0.845760 0.528529 0.358672 -0.191244
C22   C     C_2   0.338905 0.468147 0.640308 -0.263236
C23   C     C_3   0.202649 0.159899 0.709783 -0.214584
C24   C     C_R   0.115883 0.408153 0.973144 0.019792
C25   C     C_R   0.090614 0.580469 0.972777 0.020207
C26   C     C_R   0.120946 0.492374 0.947485 0.050311
C27   C     C_R   0.138411 0.322113 0.945502 -0.099740
C28   C     C_R   0.169579 0.319058 0.895187 -0.063185
C29   C     C_R   0.180872 0.401538 0.869924 -0.029452
C30   C     C_R   0.156652 0.488443 0.895951 -0.079991
C31   C     C_R   0.167846 0.571365 0.870416 -0.036117
C32   C     C_R   0.206308 0.566362 0.819692 0.593901
C33   C     C_R   0.215222 0.398536 0.819036 0.586815
C34   C     C_3   0.170242 0.259043 0.425432 0.313591
C35   C     C_2   0.407670 0.425764 0.728254 -0.094425
C36   C     C_3   0.431330 0.402342 0.673609 -0.077746
C37   C     C_1   0.210264 0.515847 0.656050 0.029897
C38   C     C_2   0.168647 0.521155 0.703190 -0.087002
C39   C     C_2   0.274203 0.475548 0.742537 0.221453
C40   C     C_R   0.087180 0.412468 0.025114 0.019689
C41   C     C_R   0.050131 0.500213 0.049849 0.050691
C42   C     C_R   0.048292 0.584016 0.023606 0.020288
C43   C     C_R   0.094940 0.331903 0.053607 -0.097580
C44   C     C_R   0.964213 0.671584 0.098968 -0.058470
C45   C     C_3   0.216900 0.156709 0.412759 -0.389954
C46   C     C_R   0.104713 0.662341 0.946124 -0.098710
C47   C     C_R   0.142486 0.657721 0.896293 -0.056665
C48   C     C_R   0.002372 0.668821 0.049287 -0.101667
C49   C     C_R   0.690426 0.065380 0.474071 -0.036387
C50   C     C_R   0.514456 0.199668 0.503577 0.086163
C51   C     C_R   0.380039 0.231178 0.529725 -0.250079
C52   C     C_R   0.278502 0.167642 0.549017 -0.039825
C53   C     C_R   0.322071 0.072766 0.548536 -0.074687
C54   C     C_R   0.462924 0.039970 0.525392 0.050087
C55   C     C_R   0.557320 0.102419 0.500628 0.003800
C56   C     C_3   0.031857 0.742195 0.575641 0.308427
C57   C     C_R   0.641384 0.908612 0.500217 -0.028295
C58   C     C_R   0.734994 0.969838 0.474503 0.002384
C59   C     C_R   0.685260 0.812470 0.499504 0.018049
C60   C     C_R   0.817541 0.778372 0.473203 -0.293560
C61   C     C_R   0.917447 0.839142 0.451270 0.017254
C62   C     C_R   0.874984 0.934877 0.450853 -0.138983
C63   C     C_R   0.506657 0.944891 0.525608 -0.004260
C64   C     C_3   0.025265 0.847813 0.586476 -0.376284
C65   C     C_3   0.701873 0.296533 0.375164 0.674479
C66   C     C_3   0.795021 0.216624 0.348911 -0.293977
H1    H     H_    0.327975 0.152347 0.391151 0.152870
H2    H     H_    0.239518 0.118363 0.447023 0.037868
H3    H     H_    0.118213 0.121036 0.390325 0.121293
H4    H     H_    0.909409 0.718008 0.563783 -0.003279
H5    H     H_    0.116395 0.725830 0.545575 0.070383
H6    H     H_    0.931629 0.866018 0.613727 0.138900
H7    H     H_    0.994189 0.884603 0.552067 0.066068
H8    H     H_    0.145335 0.872007 0.601961 0.125997
H9    H     H_    0.786044 0.344042 0.396908 -0.042089
H10   H     H_    0.838183 0.189096 0.758964 0.122791
H11   H     H_    0.860547 0.173984 0.376897 0.042585
H12   H     H_    0.882221 0.244331 0.323727 0.134800
H13   H     H_    0.709688 0.170386 0.326497 0.129976
H14   H     H_    0.533918 0.245870 0.696855 -0.291012
H15   H     H_    0.629818 0.162928 0.768813 0.101021
H16   H     H_    0.407255 0.658365 0.607900 0.007612
H17   H     H_    0.614559 0.613833 0.615754 0.076461
H18   H     H_    0.442911 0.757068 0.685778 0.145358
H19   H     H_    0.488297 0.635216 0.696588 0.070574
H20   H     H_    0.652009 0.715581 0.693303 0.139257
H21   H     H_    0.697253 0.282061 0.775679 0.038355
H22   H     H_    0.219308 0.084489 0.698436 0.142306
H23   H     H_    0.166441 0.682805 0.340734 0.086145
H24   H     H_    0.961242 0.732416 0.337854 -0.064866
H25   H     H_    0.228758 0.811301 0.278637 0.146144
H26   H     H_    0.119669 0.709413 0.256374 0.120074
H27   H     H_    0.010944 0.819930 0.268301 0.123829
H28   H     H_    0.692261 0.784504 0.358155 -0.067741
H29   H     H_    0.517976 0.798495 0.396628 0.072299
H30   H     H_    0.596424 0.948118 0.362731 0.064178
H31   H     H_    0.394835 0.915132 0.340593 0.151021
H32   H     H_    0.153917 0.291668 0.675827 0.044242
H33   H     H_    0.562990 0.897869 0.300241 0.123520
H34   H     H_    0.129280 0.443962 0.284943 0.141866
H35   H     H_    0.070442 0.272874 0.123681 0.125482
H36   H     H_    0.486848 0.392565 0.755782 0.079360
H37   H     H_    0.185668 0.251003 0.876061 0.120045
H38   H     H_    0.129728 0.255086 0.961412 0.070262
H39   H     H_    0.128738 0.263351 0.038349 0.070170
H40   H     H_    0.679245 0.594009 0.243616 0.103713
H41   H     H_    0.929581 0.738720 0.116498 0.123071
H42   H     H_    0.090422 0.731961 0.962925 0.070402
H43   H     H_    0.301222 0.213597 0.646044 -0.015566
H44   H     H_    0.151897 0.722847 0.878000 0.125784
H45   H     H_    0.057510 0.558105 0.713504 0.115012
H46   H     H_    0.991217 0.734787 0.031823 0.070362
H47   H     H_    0.818186 0.532286 0.397609 0.073973
H48   H     H_    0.367425 0.465142 0.601448 0.072134
H49   H     H_    0.346209 0.304971 0.531336 0.046340
H50   H     H_    0.244258 0.024605 0.565140 0.060135
H51   H     H_    0.952141 0.981830 0.433132 0.069796
H52   H     H_    0.850000 0.704415 0.472903 0.060062
H53   H     H_    0.762207 0.109686 0.453232 0.076739
H54   H     H_    0.310302 0.182626 0.733238 0.117240
H55   H     H_    0.433079 0.899899 0.545637 0.093262
H56   H     H_    0.093996 0.169177 0.732085 0.145667
H57   H     H_    0.277941 0.295508 0.442007 0.022520
H58   H     H_    0.073389 0.261857 0.452456 0.039116
N1    N     N_R   0.940776 0.512797 0.203097 -0.426566
N2    N     N_R   0.230811 0.480447 0.794517 -0.423279
O1    O     O_2   0.918080 0.549800 0.616640 -0.450913
O2    O     O_3   0.587044 0.257351 0.403645 -0.647350
O3    O     O_3   0.054256 0.182095 0.632992 -0.521826
O4    O     O_2   0.271610 0.450170 0.383330 -0.397684
O5    O     O_3   0.039630 0.450200 0.443530 -0.510645
O6    O     O_3   0.531440 0.620360 0.408460 -0.470839
O7    O     O_3   0.114069 0.300306 0.381837 -0.622857
O8    O     O_3   0.643350 0.612530 0.521650 -0.480416
O9    O     O_3   0.127390 0.668260 0.431510 -0.500510
O10   O     O_2   0.254241 0.834871 0.458306 -0.492905
O11   O     O_3   0.140605 0.821181 0.367038 -0.601527
O12   O     O_3   0.150070 0.549720 0.556460 -0.502141
O13   O     O_3   0.546340 0.387390 0.478340 -0.466115
O14   O     O_2   0.398940 0.728800 0.517420 -0.469109
O15   O     O_3   0.586727 0.753823 0.599564 -0.630214
O16   O     O_2   0.411606 0.551933 0.320832 -0.435871
O17   O     O_3   0.473274 0.731815 0.327243 -0.609688
O18   O     O_2   0.988717 0.356418 0.202464 -0.575600
O19   O     O_2   0.230109 0.322633 0.796423 -0.628029
O20   O     O_2   0.892393 0.668452 0.196350 -0.625312
O21   O     O_2   0.219942 0.638594 0.798194 -0.591330
O22   O     O_3   0.658250 0.379560 0.591530 -0.445435
O23   O     O_2   0.739667 0.478044 0.674935 -0.499558
O24   O     O_3   0.084512 0.699518 0.619116 -0.625990
O25   O     O_3   0.765246 0.295524 0.681047 -0.589719
O26   O     O_2   0.790750 0.271170 0.482550 -0.496913
O27   O     O_3   0.062300 0.331660 0.568480 -0.482262
O28   O     O_2   0.941464 0.164796 0.541035 -0.441911
P1    P     P_3+3 0.090020 0.577590 0.608380 0.990770
P2    P     P_3+3 0.614340 0.285150 0.467650 0.988156
P3    P     P_3+3 0.083719 0.210500 0.572071 1.025066
P4    P     P_3+3 0.099670 0.422330 0.391610 1.019314
P5    P     P_3+3 0.109639 0.790760 0.427612 0.934521
P6    P     P_3+3 0.648249 0.388767 0.656461 0.999525
P7    P     P_3+3 0.582657 0.728806 0.535327 0.941460
P8    P     P_3+3 0.540259 0.620294 0.344205 1.009544
S1    S     S_3+6 0.686327 0.119031 0.663692 -0.063218
O29   O     O_2   0.542468 0.059382 0.670134 -0.338446
O30   O     O_2   0.693736 0.138957 0.609851 -0.295782
O31   O     O_3   0.856498 0.060928 0.682666 -0.523681
H59   H     H_    0.883541 0.017873 0.654136 0.362238
Cl1   Cl    Cl    0.594044 0.360586 0.328790 -0.681529

loop_
_geom_bond_atom_site_label_1
_geom_bond_atom_site_label_2
_ccdc_geom_bond_type
C25   C46   A    
C66   H12   S    
C46   H42   S    
C53   C54   A    
C38   C39   S    
S1    O29   D    
C14   P4    S    
C17   C18   A    
C65   H9    S    
C41   C42   A    
O1    P1    D    
C5    C6    S    
C10   N1    Am   
C29   C30   A    
C51   C52   A    
C2    S1    S    
C23   H22   S    
O4    P4    D    
C62   H51   S    
C11   C16   D    
C66   H13   S    
Ba1   P2    S    
O26   P2    D    
Ba1   O1    S    
C28   C29   A    
O12   P1    S    
C51   H49   S    
C3    O15   S    
C5    H24   S    
C31   C47   A    
C54   C63   A    
C64   H6    S    
C10   C20   A    
C22   C37   D    
C4    H20   S    
C54   C55   A    
C34   C45   S    
C8    H30   S    
Ba1   Ba2   S    
Ba1   O27   S    
C45   H1    S    
C52   P3    S    
C52   C53   A    
C25   C42   A    
C56   C64   S    
C34   H57   S    
C56   O24   S    
C14   C15   D    
C22   C36   S    
C49   C55   A    
Ba1   O8    S    
C7    C8    S    
C60   H52   S    
C3    H17   S    
C66   H11   S    
C13   C21   S    
C2    O25   S    
C64   H8    S    
C57   C58   A    
S1    O30   D    
O16   P8    D    
C39   N2    S    
C33   N2    Am   
C6    H27   S    
C11   H40   S    
Ba1   O5    S    
O15   P7    S    
C32   O21   D    
C17   C41   A    
C58   C62   A    
C31   C32   A    
C19   C43   A    
C12   O3    S    
O28   P3    D    
C65   Cl1   S    
C50   P2    S    
C12   H43   S    
O22   P6    S    
C9    C18   A    
C57   C59   A    
Ba2   O5    S    
O27   P3    S    
C65   C66   S    
C13   P8    S    
O11   P5    S    
C17   C20   A    
C6    H26   S    
C37   C38   D    
C3    H16   S    
C21   H47   S    
Ba2   O8    S    
C4    H19   S    
C48   H46   S    
C40   C43   A    
C9    N1    Am   
C15   H34   S    
C45   H2    S    
C35   C36   S    
C16   N1    S    
Ba2   O4    S    
C38   H45   S    
C26   C30   A    
O23   P6    D    
C5    H23   S    
O9    P5    S    
C60   C61   A    
C15   C16   S    
Ba1   O22   S    
C33   O19   D    
O3    P3    S    
C7    H28   S    
C45   H3    S    
Ba1   O12   S    
C47   H44   S    
Ba2   P4    S    
O31   H59   S    
C20   C44   A    
C22   H48   S    
S1    O31   S    
C11   C13   S    
C28   H37   S    
C1    H15   S    
Ba2   O14   S    
C29   C33   A    
C27   H38   S    
C65   O2    S    
C40   C41   A    
C1    C2    S    
C34   O7    S    
O14   P7    D    
C50   C51   A    
C24   C40   A    
C23   H54   S    
C42   C48   A    
C61   P5    S    
O24   P1    S    
C46   C47   A    
C7    H29   S    
O7    P4    S    
C59   P7    S    
Ba2   O9    S    
C8    H33   S    
C34   H58   S    
C6    H25   S    
C35   H36   S    
Ba1   O26   S    
Ba2   O6    S    
C9    O18   D    
C12   H32   S    
O17   P8    S    
C14   C21   D    
C44   C48   A    
C24   C26   A    
C4    H18   S    
C1    H21   S    
O25   P6    S    
O2    P2    S    
O5    P4    S    
Ba2   O12   S    
C30   C31   A    
C10   O20   D    
Ba1   P1    S    
C57   C63   A    
C5    O11   S    
C56   H4    S    
C3    C4    S    
C49   H53   S    
C64   H7    S    
C7    O17   S    
O6    P8    S    
C8    H31   S    
O10   P5    D    
C63   H55   S    
C12   C23   S    
C35   C39   D    
C59   C60   A    
C23   H56   S    
Ba1   O13   S    
C50   C55   A    
C27   C28   A    
C61   C62   A    
C19   H35   S    
O13   P2    S    
C36   P6    S    
C2    H14   S    
C18   C19   A    
C24   C27   A    
C32   N2    Am   
C44   H41   S    
C25   C26   A    
Ba2   O13   S    
C49   C58   A    
C1    H10   S    
O8    P7    S    
C37   P1    S    
C43   H39   S    
C56   H5    S    
C53   H50   S    
