data_mof_unit_60288.cif
_audit_creation_date              2012-12-10T17:39:32-0500
_audit_creation_method            fapswitch 2.2
_symmetry_space_group_name_H-M    P1
_symmetry_Int_Tables_number       1
_space_group_crystal_system       triclinic
_cell_length_a                    47.359714
_cell_length_b                    47.359711
_cell_length_c                    47.359712
_cell_angle_alpha                 89.999985
_cell_angle_beta                  89.999938
_cell_angle_gamma                 89.999979
_cell_volume                      106225.104585

loop_
_atom_site_label
_atom_site_type_symbol
_atom_type_description
_atom_site_fract_x
_atom_site_fract_y
_atom_site_fract_z
_atom_type_partial_charge
C1    C     C_R   0.000000 0.445528 0.500000 0.799427
C2    C     C_R   0.000000 0.500000 0.445528 0.799424
C3    C     C_R   0.000000 0.554472 0.500000 0.799427
C4    C     C_R   1.000000 0.500000 0.554472 0.799423
C5    C     C_R   0.445528 0.500000 0.000000 0.799426
C6    C     C_R   0.500000 0.554472 0.000000 0.799424
C7    C     C_R   0.554472 0.500000 1.000000 0.799426
C8    C     C_R   0.500000 0.445528 0.000000 0.799423
C9    C     C_R   0.500000 0.000000 0.554472 0.799427
C10   C     C_R   0.554472 1.000000 0.500000 0.799423
C11   C     C_R   0.500000 1.000000 0.445528 0.799427
C12   C     C_R   0.445528 0.000000 0.500000 0.799423
C13   C     C_R   0.500000 0.945528 1.000000 0.799428
C14   C     C_R   0.500000 0.000000 0.945528 0.799422
C15   C     C_R   0.500000 0.054472 1.000000 0.799428
C16   C     C_R   0.500000 1.000000 0.054472 0.799425
C17   C     C_R   0.945528 0.000000 0.500000 0.799426
C18   C     C_R   0.000000 0.054472 0.500000 0.799423
C19   C     C_R   0.054472 1.000000 0.500000 0.799428
C20   C     C_R   0.000000 0.945528 0.500000 0.799424
C21   C     C_R   0.000000 0.500000 0.054472 0.799426
C22   C     C_R   0.054472 0.500000 0.000000 0.799423
C23   C     C_R   1.000000 0.500000 0.945528 0.799426
C24   C     C_R   0.945528 0.500000 0.000000 0.799423
C25   C     C_R   0.005060 0.474821 0.369723 0.378794
C26   C     C_R   0.005055 0.630277 0.474821 0.378796
C27   C     C_R   0.005059 0.525180 0.630277 0.378795
C28   C     C_R   0.005056 0.369723 0.525180 0.378796
C29   C     C_R   0.994941 0.525179 0.369723 0.378796
C30   C     C_R   0.994943 0.369723 0.474821 0.378794
C31   C     C_R   0.994940 0.474822 0.630277 0.378794
C32   C     C_R   0.994945 0.630277 0.525180 0.378795
C33   C     C_R   0.474822 0.630277 0.994940 0.378795
C34   C     C_R   0.630277 0.525180 0.994944 0.378796
C35   C     C_R   0.525178 0.369723 0.994941 0.378794
C36   C     C_R   0.369723 0.474820 0.994945 0.378795
C37   C     C_R   0.525179 0.630277 0.005059 0.378795
C38   C     C_R   0.369723 0.525179 0.005056 0.378794
C39   C     C_R   0.474820 0.369723 0.005059 0.378797
C40   C     C_R   0.630277 0.474821 0.005056 0.378796
C41   C     C_R   0.630277 0.005060 0.525179 0.378796
C42   C     C_R   0.525180 0.005054 0.369723 0.378795
C43   C     C_R   0.369723 0.005059 0.474821 0.378797
C44   C     C_R   0.474821 0.005056 0.630277 0.378795
C45   C     C_R   0.630277 0.994940 0.474822 0.378795
C46   C     C_R   0.525180 0.994945 0.630277 0.378796
C47   C     C_R   0.369723 0.994940 0.525179 0.378795
C48   C     C_R   0.474820 0.994946 0.369723 0.378795
C49   C     C_R   0.505059 0.974821 0.869723 0.378798
C50   C     C_R   0.505055 0.130277 0.974820 0.378794
C51   C     C_R   0.505061 0.025179 0.130277 0.378795
C52   C     C_R   0.505055 0.869723 0.025180 0.378796
C53   C     C_R   0.494941 0.025179 0.869723 0.378795
C54   C     C_R   0.494946 0.869723 0.974820 0.378796
C55   C     C_R   0.494939 0.974822 0.130277 0.378796
C56   C     C_R   0.494944 0.130277 0.025179 0.378796
C57   C     C_R   0.974821 0.130277 0.494941 0.378796
C58   C     C_R   0.130277 0.025180 0.494945 0.378796
C59   C     C_R   0.025180 0.869723 0.494940 0.378797
C60   C     C_R   0.869723 0.974820 0.494945 0.378796
C61   C     C_R   0.025179 0.130277 0.505059 0.378794
C62   C     C_R   0.869723 0.025180 0.505056 0.378797
C63   C     C_R   0.974822 0.869723 0.505061 0.378793
C64   C     C_R   0.130277 0.974820 0.505056 0.378795
C65   C     C_R   0.130277 0.505058 0.025180 0.378796
C66   C     C_R   0.025179 0.505056 0.869723 0.378795
C67   C     C_R   0.869723 0.505059 0.974821 0.378796
C68   C     C_R   0.974820 0.505056 0.130277 0.378796
C69   C     C_R   0.130277 0.494941 0.974822 0.378795
C70   C     C_R   0.025180 0.494944 0.130277 0.378796
C71   C     C_R   0.869723 0.494941 0.025179 0.378795
C72   C     C_R   0.974819 0.494945 0.869723 0.378798
C73   C     C_R   0.009225 0.475878 0.399305 0.067653
C74   C     C_R   0.009222 0.600695 0.475877 0.067653
C75   C     C_R   0.009225 0.524122 0.600695 0.067652
C76   C     C_R   0.009222 0.399305 0.524123 0.067652
C77   C     C_R   0.990775 0.524121 0.399305 0.067652
C78   C     C_R   0.990777 0.399305 0.475878 0.067653
C79   C     C_R   0.990775 0.475879 0.600695 0.067654
C80   C     C_R   0.990779 0.600695 0.524123 0.067654
C81   C     C_R   0.475879 0.600695 0.990775 0.067653
C82   C     C_R   0.600695 0.524123 0.990778 0.067653
C83   C     C_R   0.524121 0.399305 0.990775 0.067653
C84   C     C_R   0.399305 0.475877 0.990778 0.067653
C85   C     C_R   0.524122 0.600695 0.009225 0.067652
C86   C     C_R   0.399305 0.524122 0.009222 0.067653
C87   C     C_R   0.475878 0.399305 0.009225 0.067653
C88   C     C_R   0.600695 0.475878 0.009222 0.067653
C89   C     C_R   0.600695 0.009226 0.524122 0.067650
C90   C     C_R   0.524123 0.009221 0.399305 0.067654
C91   C     C_R   0.399305 0.009225 0.475879 0.067651
C92   C     C_R   0.475877 0.009222 0.600695 0.067653
C93   C     C_R   0.600695 0.990774 0.475879 0.067651
C94   C     C_R   0.524123 0.990778 0.600695 0.067654
C95   C     C_R   0.399305 0.990775 0.524122 0.067652
C96   C     C_R   0.475877 0.990780 0.399305 0.067653
C97   C     C_R   0.509225 0.975878 0.899305 0.067651
C98   C     C_R   0.509222 0.100695 0.975877 0.067652
C99   C     C_R   0.509227 0.024121 0.100695 0.067650
C100  C     C_R   0.509221 0.899305 0.024123 0.067655
C101  C     C_R   0.490775 0.024122 0.899305 0.067653
C102  C     C_R   0.490779 0.899305 0.975877 0.067653
C103  C     C_R   0.490773 0.975879 0.100695 0.067651
C104  C     C_R   0.490778 0.100695 0.024123 0.067653
C105  C     C_R   0.975878 0.100695 0.490775 0.067652
C106  C     C_R   0.100695 0.024123 0.490778 0.067653
C107  C     C_R   0.024122 0.899305 0.490774 0.067652
C108  C     C_R   0.899305 0.975877 0.490778 0.067653
C109  C     C_R   0.024121 0.100695 0.509225 0.067653
C110  C     C_R   0.899305 0.024123 0.509222 0.067653
C111  C     C_R   0.975879 0.899305 0.509226 0.067654
C112  C     C_R   0.100695 0.975877 0.509222 0.067653
C113  C     C_R   0.100695 0.509225 0.024122 0.067652
C114  C     C_R   0.024122 0.509222 0.899305 0.067654
C115  C     C_R   0.899305 0.509225 0.975878 0.067652
C116  C     C_R   0.975877 0.509222 0.100695 0.067654
C117  C     C_R   0.100695 0.490775 0.975879 0.067654
C118  C     C_R   0.024123 0.490778 0.100695 0.067652
C119  C     C_R   0.899305 0.490775 0.024122 0.067652
C120  C     C_R   0.975877 0.490778 0.899305 0.067651
C121  C     C_R   0.000000 0.500000 0.414383 -0.219796
C122  C     C_R   0.000000 0.585617 0.500000 -0.219792
C123  C     C_R   1.000000 0.500000 0.585617 -0.219797
C124  C     C_R   0.000000 0.414383 0.500000 -0.219792
C125  C     C_R   0.500000 0.585617 1.000000 -0.219797
C126  C     C_R   0.585617 0.500000 1.000000 -0.219794
C127  C     C_R   0.500000 0.414383 1.000000 -0.219797
C128  C     C_R   0.414383 0.500000 0.000000 -0.219793
C129  C     C_R   0.585617 1.000000 0.500000 -0.219797
C130  C     C_R   0.500000 0.000000 0.414383 -0.219792
C131  C     C_R   0.414383 0.000000 0.500000 -0.219795
C132  C     C_R   0.500000 0.000000 0.585617 -0.219792
C133  C     C_R   0.500000 0.000000 0.914383 -0.219796
C134  C     C_R   0.500000 0.085617 1.000000 -0.219792
C135  C     C_R   0.500000 0.000000 0.085617 -0.219797
C136  C     C_R   0.500000 0.914383 1.000000 -0.219792
C137  C     C_R   1.000000 0.085617 0.500000 -0.219796
C138  C     C_R   0.085617 1.000000 0.500000 -0.219792
C139  C     C_R   0.000000 0.914383 0.500000 -0.219795
C140  C     C_R   0.914383 1.000000 0.500000 -0.219792
C141  C     C_R   0.085617 0.500000 0.000000 -0.219797
C142  C     C_R   1.000000 0.500000 0.914383 -0.219793
C143  C     C_R   0.914383 0.500000 0.000000 -0.219796
C144  C     C_R   0.000000 0.500000 0.085617 -0.219793
C145  C     C_R   0.013019 0.478505 0.190614 0.693562
C146  C     C_R   0.013016 0.809386 0.478504 0.693562
C147  C     C_R   0.013017 0.521496 0.809386 0.693564
C148  C     C_R   0.013015 0.190614 0.521497 0.693563
C149  C     C_R   0.986982 0.521495 0.190614 0.693562
C150  C     C_R   0.986984 0.190614 0.478504 0.693564
C151  C     C_R   0.986980 0.478506 0.809386 0.693563
C152  C     C_R   0.986987 0.809386 0.521498 0.693565
C153  C     C_R   0.478506 0.809386 0.986980 0.693560
C154  C     C_R   0.809386 0.521497 0.986985 0.693563
C155  C     C_R   0.521494 0.190614 0.986981 0.693562
C156  C     C_R   0.190614 0.478502 0.986985 0.693563
C157  C     C_R   0.521495 0.809386 0.013019 0.693562
C158  C     C_R   0.190614 0.521495 0.013017 0.693563
C159  C     C_R   0.478504 0.190614 0.013018 0.693563
C160  C     C_R   0.809386 0.478504 0.013016 0.693564
C161  C     C_R   0.809386 0.013019 0.521495 0.693563
C162  C     C_R   0.521498 0.013014 0.190614 0.693565
C163  C     C_R   0.190614 0.013019 0.478506 0.693563
C164  C     C_R   0.478503 0.013015 0.809386 0.693564
C165  C     C_R   0.809386 0.986981 0.478506 0.693563
C166  C     C_R   0.521497 0.986985 0.809386 0.693564
C167  C     C_R   0.190614 0.986981 0.521495 0.693563
C168  C     C_R   0.478502 0.986986 0.190614 0.693565
C169  C     C_R   0.513019 0.978506 0.690614 0.693561
C170  C     C_R   0.513014 0.309386 0.978502 0.693564
C171  C     C_R   0.513020 0.021494 0.309386 0.693563
C172  C     C_R   0.513016 0.690614 0.021497 0.693564
C173  C     C_R   0.486982 0.021495 0.690614 0.693562
C174  C     C_R   0.486986 0.690614 0.978503 0.693564
C175  C     C_R   0.486979 0.978507 0.309386 0.693562
C176  C     C_R   0.486983 0.309386 0.021496 0.693563
C177  C     C_R   0.978504 0.309386 0.486983 0.693565
C178  C     C_R   0.309386 0.021497 0.486985 0.693563
C179  C     C_R   0.021495 0.690614 0.486982 0.693563
C180  C     C_R   0.690614 0.978503 0.486986 0.693562
C181  C     C_R   0.021495 0.309386 0.513019 0.693562
C182  C     C_R   0.690614 0.021497 0.513016 0.693561
C183  C     C_R   0.978506 0.690614 0.513020 0.693563
C184  C     C_R   0.309386 0.978503 0.513016 0.693562
C185  C     C_R   0.309386 0.513017 0.021496 0.693564
C186  C     C_R   0.021495 0.513017 0.690614 0.693562
C187  C     C_R   0.690614 0.513019 0.978506 0.693563
C188  C     C_R   0.978503 0.513015 0.309386 0.693564
C189  C     C_R   0.309386 0.486980 0.978506 0.693564
C190  C     C_R   0.021497 0.486984 0.309386 0.693565
C191  C     C_R   0.690614 0.486982 0.021495 0.693563
C192  C     C_R   0.978502 0.486986 0.690614 0.693563
C193  C     C_R   0.983804 0.520035 0.220232 -0.087470
C194  C     C_R   0.983809 0.779768 0.520040 -0.087470
C195  C     C_R   0.983802 0.479966 0.779768 -0.087470
C196  C     C_R   0.983806 0.220232 0.479963 -0.087470
C197  C     C_R   0.016196 0.479965 0.220232 -0.087470
C198  C     C_R   0.016193 0.220232 0.520038 -0.087470
C199  C     C_R   0.016195 0.520037 0.779768 -0.087472
C200  C     C_R   0.016194 0.779768 0.479963 -0.087470
C201  C     C_R   0.520035 0.779768 0.016196 -0.087470
C202  C     C_R   0.779768 0.479963 0.016194 -0.087471
C203  C     C_R   0.479963 0.220232 0.016195 -0.087471
C204  C     C_R   0.220232 0.520036 0.016195 -0.087470
C205  C     C_R   0.479966 0.779768 0.983803 -0.087471
C206  C     C_R   0.220232 0.479961 0.983808 -0.087470
C207  C     C_R   0.520034 0.220232 0.983803 -0.087471
C208  C     C_R   0.779768 0.520038 0.983807 -0.087470
C209  C     C_R   0.779768 0.983803 0.479965 -0.087470
C210  C     C_R   0.479961 0.983809 0.220232 -0.087471
C211  C     C_R   0.220232 0.983804 0.520036 -0.087469
C212  C     C_R   0.520038 0.983807 0.779768 -0.087471
C213  C     C_R   0.779768 0.016196 0.520036 -0.087471
C214  C     C_R   0.479962 0.016193 0.779768 -0.087470
C215  C     C_R   0.220232 0.016196 0.479965 -0.087469
C216  C     C_R   0.520039 0.016192 0.220232 -0.087472
C217  C     C_R   0.483804 0.020036 0.720232 -0.087470
C218  C     C_R   0.483805 0.279768 0.020037 -0.087470
C219  C     C_R   0.483802 0.979966 0.279768 -0.087470
C220  C     C_R   0.483808 0.720232 0.979961 -0.087471
C221  C     C_R   0.516197 0.979965 0.720232 -0.087471
C222  C     C_R   0.516193 0.720232 0.020038 -0.087472
C223  C     C_R   0.516197 0.020035 0.279768 -0.087470
C224  C     C_R   0.516192 0.279768 0.979961 -0.087470
C225  C     C_R   0.020035 0.279768 0.516196 -0.087469
C226  C     C_R   0.279768 0.979962 0.516193 -0.087471
C227  C     C_R   0.979966 0.720232 0.516198 -0.087470
C228  C     C_R   0.720232 0.020038 0.516193 -0.087469
C229  C     C_R   0.979964 0.279768 0.483805 -0.087470
C230  C     C_R   0.720232 0.979961 0.483808 -0.087470
C231  C     C_R   0.020036 0.720232 0.483804 -0.087470
C232  C     C_R   0.279768 0.020038 0.483807 -0.087470
C233  C     C_R   0.279768 0.483803 0.979965 -0.087470
C234  C     C_R   0.979961 0.483808 0.720232 -0.087470
C235  C     C_R   0.720232 0.483805 0.020036 -0.087471
C236  C     C_R   0.020038 0.483807 0.279768 -0.087473
C237  C     C_R   0.279768 0.516195 0.020037 -0.087471
C238  C     C_R   0.979962 0.516193 0.279768 -0.087470
C239  C     C_R   0.720232 0.516197 0.979965 -0.087471
C240  C     C_R   0.020036 0.516195 0.720232 -0.087471
C241  C     C_R   0.000000 0.500000 0.235114 -0.167994
C242  C     C_R   0.000001 0.764886 0.500001 -0.167994
C243  C     C_R   0.999998 0.500001 0.764886 -0.167993
C244  C     C_R   1.000000 0.235114 0.500000 -0.167994
C245  C     C_R   0.500001 0.764886 1.000000 -0.167993
C246  C     C_R   0.764886 0.500001 0.000000 -0.167993
C247  C     C_R   0.499999 0.235114 0.999999 -0.167994
C248  C     C_R   0.235114 0.499999 0.000001 -0.167993
C249  C     C_R   0.764886 1.000000 0.500001 -0.167994
C250  C     C_R   0.500000 0.000000 0.235114 -0.167992
C251  C     C_R   0.235114 0.000000 0.500000 -0.167995
C252  C     C_R   0.500000 0.000000 0.764886 -0.167992
C253  C     C_R   0.500000 0.000000 0.735114 -0.167994
C254  C     C_R   0.499999 0.264886 0.999999 -0.167993
C255  C     C_R   0.500000 0.000000 0.264886 -0.167994
C256  C     C_R   0.500001 0.735114 1.000000 -0.167992
C257  C     C_R   1.000000 0.264886 0.500001 -0.167994
C258  C     C_R   0.264886 1.000000 0.500000 -0.167993
C259  C     C_R   0.000001 0.735114 0.500001 -0.167994
C260  C     C_R   0.735114 1.000000 0.500001 -0.167995
C261  C     C_R   0.264886 0.499999 0.000001 -0.167993
C262  C     C_R   0.999999 0.500001 0.735114 -0.167993
C263  C     C_R   0.735114 0.500001 0.000000 -0.167993
C264  C     C_R   0.000000 0.500000 0.264886 -0.167992
C265  C     C_R   0.965436 0.538228 0.235219 0.337187
C266  C     C_R   0.965444 0.764780 0.538236 0.337187
C267  C     C_R   0.965434 0.461773 0.764780 0.337186
C268  C     C_R   0.965440 0.235220 0.461768 0.337187
C269  C     C_R   0.034565 0.461772 0.235219 0.337188
C270  C     C_R   0.034559 0.235219 0.538233 0.337188
C271  C     C_R   0.034563 0.538230 0.764780 0.337187
C272  C     C_R   0.034559 0.764780 0.461767 0.337186
C273  C     C_R   0.538228 0.764780 0.034565 0.337187
C274  C     C_R   0.764780 0.461767 0.034559 0.337187
C275  C     C_R   0.461770 0.235219 0.034563 0.337187
C276  C     C_R   0.235220 0.538232 0.034561 0.337187
C277  C     C_R   0.461773 0.764780 0.965434 0.337187
C278  C     C_R   0.235219 0.461766 0.965442 0.337188
C279  C     C_R   0.538227 0.235220 0.965435 0.337189
C280  C     C_R   0.764780 0.538234 0.965441 0.337187
C281  C     C_R   0.764780 0.965434 0.461773 0.337188
C282  C     C_R   0.461764 0.965445 0.235220 0.337187
C283  C     C_R   0.235219 0.965436 0.538229 0.337187
C284  C     C_R   0.538234 0.965442 0.764780 0.337187
C285  C     C_R   0.764781 0.034565 0.538228 0.337188
C286  C     C_R   0.461767 0.034559 0.764780 0.337187
C287  C     C_R   0.235219 0.034564 0.461772 0.337187
C288  C     C_R   0.538236 0.034556 0.235220 0.337188
C289  C     C_R   0.465436 0.038228 0.735220 0.337188
C290  C     C_R   0.465440 0.264780 0.038232 0.337188
C291  C     C_R   0.465433 0.961775 0.264780 0.337186
C292  C     C_R   0.465443 0.735220 0.961765 0.337187
C293  C     C_R   0.534565 0.961772 0.735220 0.337188
C294  C     C_R   0.534558 0.735220 0.038234 0.337187
C295  C     C_R   0.534567 0.038226 0.264780 0.337186
C296  C     C_R   0.534557 0.264780 0.961766 0.337186
C297  C     C_R   0.038229 0.264780 0.534564 0.337186
C298  C     C_R   0.264780 0.961766 0.534559 0.337189
C299  C     C_R   0.961774 0.735220 0.534567 0.337187
C300  C     C_R   0.735220 0.038234 0.534558 0.337187
C301  C     C_R   0.961770 0.264781 0.465437 0.337188
C302  C     C_R   0.735220 0.961765 0.465443 0.337187
C303  C     C_R   0.038228 0.735219 0.465436 0.337187
C304  C     C_R   0.264780 0.038234 0.465442 0.337187
C305  C     C_R   0.264780 0.465435 0.961773 0.337187
C306  C     C_R   0.961765 0.465443 0.735220 0.337187
C307  C     C_R   0.735219 0.465437 0.038229 0.337189
C308  C     C_R   0.038234 0.465441 0.264780 0.337189
C309  C     C_R   0.264781 0.534563 0.038230 0.337186
C310  C     C_R   0.961767 0.534559 0.264780 0.337187
C311  C     C_R   0.735220 0.534565 0.961772 0.337187
C312  C     C_R   0.038232 0.534560 0.735220 0.337187
C313  C     C_R   0.000000 0.500000 0.354621 0.150642
C314  C     C_R   0.000000 0.645379 0.500001 0.150643
C315  C     C_R   0.999999 0.500001 0.645379 0.150642
C316  C     C_R   1.000000 0.354621 0.500000 0.150642
C317  C     C_R   0.500000 0.645379 1.000000 0.150642
C318  C     C_R   0.645379 0.500001 0.000000 0.150641
C319  C     C_R   0.499999 0.354621 0.999999 0.150641
C320  C     C_R   0.354621 0.499999 0.000000 0.150643
C321  C     C_R   0.645379 1.000000 0.500001 0.150641
C322  C     C_R   0.500000 0.000000 0.354621 0.150643
C323  C     C_R   0.354621 1.000000 0.500000 0.150641
C324  C     C_R   0.500000 0.000000 0.645379 0.150642
C325  C     C_R   0.500000 1.000000 0.854621 0.150640
C326  C     C_R   0.499999 0.145379 1.000000 0.150643
C327  C     C_R   0.500000 0.000000 0.145379 0.150640
C328  C     C_R   0.500000 0.854621 1.000000 0.150641
C329  C     C_R   1.000000 0.145379 0.500000 0.150641
C330  C     C_R   0.145379 1.000000 0.500000 0.150642
C331  C     C_R   0.000001 0.854621 0.500001 0.150640
C332  C     C_R   0.854621 1.000000 0.500000 0.150640
C333  C     C_R   0.145379 0.499999 0.000001 0.150641
C334  C     C_R   0.999999 0.500001 0.854621 0.150641
C335  C     C_R   0.854621 0.500000 0.000000 0.150642
C336  C     C_R   0.000000 0.500000 0.145379 0.150642
Cu1   Cu    Cu3+1 0.971840 0.500000 0.500000 0.958207
Cu2   Cu    Cu3+1 0.028160 0.500000 0.500000 0.958207
Cu3   Cu    Cu3+1 0.500000 0.500000 0.028160 0.958207
Cu4   Cu    Cu3+1 0.500000 0.500000 0.971840 0.958207
Cu5   Cu    Cu3+1 0.500000 0.971840 0.500000 0.958208
Cu6   Cu    Cu3+1 0.500000 0.028160 0.500000 0.958207
Cu7   Cu    Cu3+1 0.471840 0.000000 0.000000 0.958206
Cu8   Cu    Cu3+1 0.528160 0.000000 0.000000 0.958206
Cu9   Cu    Cu3+1 0.000000 0.000000 0.528160 0.958206
Cu10  Cu    Cu3+1 1.000000 0.000000 0.471840 0.958207
Cu11  Cu    Cu3+1 0.000000 0.471840 0.000000 0.958208
Cu12  Cu    Cu3+1 0.000000 0.528160 0.000000 0.958208
N1    N     N_R   0.000000 0.500000 0.176127 -0.452818
N2    N     N_R   0.000001 0.823873 0.500001 -0.452818
N3    N     N_R   0.999999 0.500001 0.823873 -0.452819
N4    N     N_R   1.000000 0.176127 0.500000 -0.452818
N5    N     N_R   0.500001 0.823873 1.000000 -0.452818
N6    N     N_R   0.823873 0.500000 0.000000 -0.452818
N7    N     N_R   0.499999 0.176127 0.999999 -0.452817
N8    N     N_R   0.176127 0.499999 0.000001 -0.452819
N9    N     N_R   0.823873 1.000000 0.500000 -0.452819
N10   N     N_R   0.500000 0.000000 0.176127 -0.452818
N11   N     N_R   0.176127 0.000000 0.500000 -0.452818
N12   N     N_R   0.500000 0.000000 0.823873 -0.452819
N13   N     N_R   0.500001 0.000000 0.676127 -0.452817
N14   N     N_R   0.499999 0.323873 0.999999 -0.452818
N15   N     N_R   0.500000 0.000000 0.323873 -0.452818
N16   N     N_R   0.500001 0.676127 1.000000 -0.452817
N17   N     N_R   1.000000 0.323873 0.500001 -0.452818
N18   N     N_R   0.323873 1.000000 0.500000 -0.452818
N19   N     N_R   0.000001 0.676127 0.500001 -0.452818
N20   N     N_R   0.676127 1.000000 0.500001 -0.452818
N21   N     N_R   0.323873 0.499999 0.000001 -0.452818
N22   N     N_R   0.999999 0.500001 0.676127 -0.452818
N23   N     N_R   0.676127 0.500001 0.000000 -0.452818
N24   N     N_R   0.000000 0.500000 0.323873 -0.452818
O1    O     O_R   0.976220 0.458920 0.500000 -0.579277
O2    O     O_R   0.976220 0.500000 0.458920 -0.579278
O3    O     O_R   0.976220 0.541080 0.500000 -0.579278
O4    O     O_R   0.976220 0.500000 0.541080 -0.579278
O5    O     O_R   0.023780 0.541080 0.500000 -0.579278
O6    O     O_R   0.023780 0.500000 0.458920 -0.579278
O7    O     O_R   0.023780 0.458920 0.500000 -0.579278
O8    O     O_R   0.023780 0.500000 0.541080 -0.579278
O9    O     O_R   0.458920 0.500000 0.023780 -0.579278
O10   O     O_R   0.500000 0.541080 0.023780 -0.579278
O11   O     O_R   0.541080 0.500000 0.023780 -0.579277
O12   O     O_R   0.500000 0.458920 0.023780 -0.579279
O13   O     O_R   0.541080 0.500000 0.976220 -0.579277
O14   O     O_R   0.500000 0.541080 0.976220 -0.579278
O15   O     O_R   0.458920 0.500000 0.976220 -0.579277
O16   O     O_R   0.500000 0.458920 0.976220 -0.579278
O17   O     O_R   0.500000 0.976220 0.541080 -0.579277
O18   O     O_R   0.541080 0.976220 0.500000 -0.579279
O19   O     O_R   0.500000 0.976220 0.458920 -0.579278
O20   O     O_R   0.458920 0.976220 0.500000 -0.579278
O21   O     O_R   0.500000 0.023780 0.458920 -0.579278
O22   O     O_R   0.541080 0.023780 0.500000 -0.579278
O23   O     O_R   0.500000 0.023780 0.541080 -0.579278
O24   O     O_R   0.458920 0.023780 0.500000 -0.579279
O25   O     O_R   0.476220 0.958920 0.000000 -0.579278
O26   O     O_R   0.476220 0.000000 0.958920 -0.579278
O27   O     O_R   0.476220 0.041080 0.000000 -0.579277
O28   O     O_R   0.476220 0.000000 0.041080 -0.579279
O29   O     O_R   0.523780 0.041080 0.000000 -0.579279
O30   O     O_R   0.523780 0.000000 0.958920 -0.579279
O31   O     O_R   0.523780 0.958920 0.000000 -0.579278
O32   O     O_R   0.523780 0.000000 0.041080 -0.579278
O33   O     O_R   0.958920 0.000000 0.523780 -0.579277
O34   O     O_R   0.000000 0.041080 0.523780 -0.579278
O35   O     O_R   0.041080 0.000000 0.523780 -0.579277
O36   O     O_R   1.000000 0.958920 0.523780 -0.579278
O37   O     O_R   0.041080 0.000000 0.476220 -0.579279
O38   O     O_R   0.000000 0.041080 0.476220 -0.579278
O39   O     O_R   0.958920 0.000000 0.476220 -0.579277
O40   O     O_R   0.000000 0.958920 0.476220 -0.579279
O41   O     O_R   1.000000 0.476220 0.041080 -0.579276
O42   O     O_R   0.041080 0.476220 0.000000 -0.579277
O43   O     O_R   0.000000 0.476220 0.958920 -0.579277
O44   O     O_R   0.958920 0.476220 0.000000 -0.579278
O45   O     O_R   0.000000 0.523780 0.958920 -0.579277
O46   O     O_R   0.041080 0.523780 0.000000 -0.579278
O47   O     O_R   0.000000 0.523780 0.041080 -0.579278
O48   O     O_R   0.958920 0.523780 0.000000 -0.579278
O49   O     O_2   0.022595 0.455735 0.176430 -0.437447
O50   O     O_2   0.022588 0.823569 0.455732 -0.437448
O51   O     O_2   0.022594 0.544266 0.823570 -0.437448
O52   O     O_2   0.022589 0.176430 0.544268 -0.437448
O53   O     O_2   0.977405 0.544265 0.176430 -0.437448
O54   O     O_2   0.977410 0.176431 0.455732 -0.437449
O55   O     O_2   0.977403 0.455736 0.823569 -0.437448
O56   O     O_2   0.977415 0.823569 0.544270 -0.437447
O57   O     O_2   0.455736 0.823570 0.977403 -0.437447
O58   O     O_2   0.823570 0.544269 0.977411 -0.437448
O59   O     O_2   0.544264 0.176431 0.977404 -0.437447
O60   O     O_2   0.176430 0.455731 0.977412 -0.437448
O61   O     O_2   0.544265 0.823570 0.022596 -0.437447
O62   O     O_2   0.176431 0.544267 0.022591 -0.437447
O63   O     O_2   0.455734 0.176430 0.022594 -0.437448
O64   O     O_2   0.823569 0.455732 0.022589 -0.437449
O65   O     O_2   0.823570 0.022596 0.544265 -0.437448
O66   O     O_2   0.544270 0.022585 0.176431 -0.437448
O67   O     O_2   0.176430 0.022595 0.455735 -0.437449
O68   O     O_2   0.455732 0.022588 0.823569 -0.437449
O69   O     O_2   0.823569 0.977404 0.455736 -0.437449
O70   O     O_2   0.544269 0.977412 0.823569 -0.437449
O71   O     O_2   0.176430 0.977405 0.544265 -0.437448
O72   O     O_2   0.455730 0.977415 0.176430 -0.437448
O73   O     O_2   0.522596 0.955735 0.676430 -0.437447
O74   O     O_2   0.522587 0.323570 0.955731 -0.437448
O75   O     O_2   0.522598 0.044264 0.323570 -0.437448
O76   O     O_2   0.522588 0.676430 0.044269 -0.437448
O77   O     O_2   0.477405 0.044265 0.676430 -0.437448
O78   O     O_2   0.477413 0.676430 0.955731 -0.437448
O79   O     O_2   0.477401 0.955737 0.323570 -0.437449
O80   O     O_2   0.477410 0.323569 0.044267 -0.437448
O81   O     O_2   0.955734 0.323570 0.477407 -0.437448
O82   O     O_2   0.323569 0.044269 0.477412 -0.437448
O83   O     O_2   0.044265 0.676430 0.477405 -0.437449
O84   O     O_2   0.676431 0.955731 0.477414 -0.437448
O85   O     O_2   0.044265 0.323569 0.522595 -0.437447
O86   O     O_2   0.676431 0.044269 0.522588 -0.437446
O87   O     O_2   0.955736 0.676431 0.522598 -0.437448
O88   O     O_2   0.323569 0.955731 0.522589 -0.437448
O89   O     O_2   0.323570 0.522594 0.044266 -0.437449
O90   O     O_2   0.044267 0.522590 0.676431 -0.437448
O91   O     O_2   0.676430 0.522596 0.955735 -0.437448
O92   O     O_2   0.955732 0.522588 0.323569 -0.437449
O93   O     O_2   0.323569 0.477404 0.955735 -0.437448
O94   O     O_2   0.044269 0.477412 0.323569 -0.437448
O95   O     O_2   0.676430 0.477406 0.044266 -0.437448
O96   O     O_2   0.955730 0.477413 0.676430 -0.437447
O97   O     O_3   0.950622 0.558702 0.220644 -0.658489
H1    H     H_    0.947171 0.574904 0.233417 0.339875
O98   O     O_3   0.950634 0.779356 0.558713 -0.658488
H2    H     H_    0.947186 0.766583 0.574915 0.339874
O99   O     O_3   0.950620 0.441299 0.779356 -0.658489
H3    H     H_    0.947169 0.425098 0.766583 0.339874
O100  O     O_3   0.950628 0.220644 0.441292 -0.658490
H4    H     H_    0.947180 0.233417 0.425090 0.339874
O101  O     O_3   0.049379 0.441298 0.220644 -0.658490
H5    H     H_    0.052830 0.425096 0.233417 0.339874
O102  O     O_3   0.049371 0.220644 0.558709 -0.658490
H6    H     H_    0.052819 0.233417 0.574911 0.339875
O103  O     O_3   0.049377 0.558703 0.779356 -0.658490
H7    H     H_    0.052827 0.574905 0.766583 0.339875
O104  O     O_3   0.049369 0.779356 0.441290 -0.658489
H8    H     H_    0.052817 0.766582 0.425088 0.339874
O105  O     O_3   0.558701 0.779356 0.049380 -0.658491
H9    H     H_    0.574903 0.766583 0.052831 0.339875
O106  O     O_3   0.779356 0.441292 0.049371 -0.658491
H10   H     H_    0.766582 0.425089 0.052819 0.339875
O107  O     O_3   0.441296 0.220644 0.049377 -0.658490
H11   H     H_    0.425095 0.233417 0.052828 0.339874
O108  O     O_3   0.220644 0.558708 0.049372 -0.658489
H12   H     H_    0.233417 0.574910 0.052820 0.339874
O109  O     O_3   0.441300 0.779356 0.950619 -0.658490
H13   H     H_    0.425099 0.766583 0.947168 0.339875
O110  O     O_3   0.220644 0.441290 0.950631 -0.658490
H14   H     H_    0.233417 0.425088 0.947183 0.339874
O111  O     O_3   0.558701 0.220644 0.950620 -0.658490
H15   H     H_    0.574902 0.233417 0.947170 0.339875
O112  O     O_3   0.779356 0.558710 0.950630 -0.658492
H16   H     H_    0.766583 0.574912 0.947182 0.339875
O113  O     O_3   0.779356 0.950620 0.441300 -0.658491
H17   H     H_    0.766583 0.947168 0.425098 0.339875
O114  O     O_3   0.441287 0.950635 0.220644 -0.658490
H18   H     H_    0.425084 0.947188 0.233417 0.339875
O115  O     O_3   0.220644 0.950621 0.558702 -0.658491
H19   H     H_    0.233417 0.947171 0.574904 0.339875
O116  O     O_3   0.558710 0.950631 0.779356 -0.658491
H20   H     H_    0.574913 0.947183 0.766583 0.339875
O117  O     O_3   0.779356 0.049380 0.558701 -0.658490
H21   H     H_    0.766583 0.052831 0.574903 0.339875
O118  O     O_3   0.441291 0.049370 0.779356 -0.658490
H22   H     H_    0.425088 0.052818 0.766583 0.339875
O119  O     O_3   0.220644 0.049379 0.441298 -0.658489
H23   H     H_    0.233417 0.052830 0.425097 0.339875
O120  O     O_3   0.558713 0.049366 0.220644 -0.658489
H24   H     H_    0.574916 0.052812 0.233417 0.339873
O121  O     O_3   0.450622 0.058702 0.720644 -0.658490
H25   H     H_    0.447171 0.074904 0.733417 0.339875
O122  O     O_3   0.450628 0.279356 0.058708 -0.658491
H26   H     H_    0.447180 0.266583 0.074910 0.339875
O123  O     O_3   0.450617 0.941302 0.279356 -0.658490
H27   H     H_    0.447165 0.925101 0.266583 0.339874
O124  O     O_3   0.450633 0.720644 0.941289 -0.658490
H28   H     H_    0.447185 0.733417 0.925086 0.339874
O125  O     O_3   0.549380 0.941298 0.720644 -0.658490
H29   H     H_    0.552830 0.925097 0.733417 0.339874
O126  O     O_3   0.549369 0.720644 0.058710 -0.658489
H30   H     H_    0.552816 0.733417 0.074913 0.339874
O127  O     O_3   0.549383 0.058699 0.279356 -0.658490
H31   H     H_    0.552835 0.074900 0.266583 0.339875
O128  O     O_3   0.549369 0.279356 0.941290 -0.658490
H32   H     H_    0.552817 0.266583 0.925087 0.339874
O129  O     O_3   0.058703 0.279356 0.549378 -0.658490
H33   H     H_    0.074904 0.266583 0.552828 0.339875
O130  O     O_3   0.279356 0.941290 0.549370 -0.658491
H34   H     H_    0.266583 0.925088 0.552818 0.339875
O131  O     O_3   0.941301 0.720644 0.549382 -0.658491
H35   H     H_    0.925099 0.733417 0.552833 0.339875
O132  O     O_3   0.720644 0.058710 0.549369 -0.658489
H36   H     H_    0.733417 0.074913 0.552817 0.339874
O133  O     O_3   0.941296 0.279356 0.450624 -0.658490
H37   H     H_    0.925094 0.266583 0.447173 0.339874
O134  O     O_3   0.720644 0.941289 0.450632 -0.658490
H38   H     H_    0.733417 0.925087 0.447185 0.339875
O135  O     O_3   0.058702 0.720644 0.450621 -0.658490
H39   H     H_    0.074903 0.733417 0.447170 0.339874
O136  O     O_3   0.279356 0.058710 0.450631 -0.658490
H40   H     H_    0.266583 0.074912 0.447183 0.339874
O137  O     O_3   0.279356 0.450621 0.941299 -0.658489
H41   H     H_    0.266583 0.447170 0.925097 0.339874
O138  O     O_3   0.941289 0.450632 0.720644 -0.658490
H42   H     H_    0.925087 0.447183 0.733417 0.339875
O139  O     O_3   0.720644 0.450623 0.058703 -0.658490
H43   H     H_    0.733417 0.447172 0.074905 0.339875
O140  O     O_3   0.058710 0.450630 0.279356 -0.658491
H44   H     H_    0.074912 0.447182 0.266583 0.339875
O141  O     O_3   0.279356 0.549377 0.058704 -0.658489
H45   H     H_    0.266583 0.552827 0.074906 0.339874
O142  O     O_3   0.941291 0.549370 0.279356 -0.658490
H46   H     H_    0.925088 0.552818 0.266583 0.339875
O143  O     O_3   0.720644 0.549379 0.941298 -0.658489
H47   H     H_    0.733417 0.552829 0.925096 0.339874
O144  O     O_3   0.058708 0.549371 0.720644 -0.658489
H48   H     H_    0.074910 0.552820 0.733417 0.339874
O145  O     O_3   0.006006 0.449615 0.355009 -0.678967
H49   H     H_    0.005137 0.433645 0.368488 0.359828
O146  O     O_3   0.005997 0.644991 0.449615 -0.678968
H50   H     H_    0.005125 0.631512 0.433645 0.359827
O147  O     O_3   0.006004 0.550386 0.644990 -0.678968
H51   H     H_    0.005135 0.566355 0.631511 0.359828
O148  O     O_3   0.005999 0.355010 0.550386 -0.678967
H52   H     H_    0.005128 0.368489 0.566356 0.359827
O149  O     O_3   0.993995 0.550385 0.355009 -0.678969
H53   H     H_    0.994864 0.566354 0.368488 0.359828
O150  O     O_3   0.994000 0.355009 0.449615 -0.678967
H54   H     H_    0.994871 0.368488 0.433645 0.359829
O151  O     O_3   0.993994 0.449616 0.644991 -0.678968
H55   H     H_    0.994863 0.433646 0.631512 0.359828
O152  O     O_3   0.994004 0.644990 0.550387 -0.678968
H56   H     H_    0.994875 0.631511 0.566356 0.359828
O153  O     O_3   0.449616 0.644991 0.993994 -0.678969
H57   H     H_    0.433646 0.631512 0.994863 0.359829
O154  O     O_3   0.644990 0.550387 0.994002 -0.678969
H58   H     H_    0.631511 0.566356 0.994874 0.359827
O155  O     O_3   0.550384 0.355009 0.993995 -0.678969
H59   H     H_    0.566354 0.368488 0.994864 0.359829
O156  O     O_3   0.355010 0.449613 0.994002 -0.678968
H60   H     H_    0.368489 0.433644 0.994874 0.359828
O157  O     O_3   0.550385 0.644990 0.006006 -0.678967
H61   H     H_    0.566355 0.631511 0.005137 0.359828
O158  O     O_3   0.355009 0.550385 0.005999 -0.678968
H62   H     H_    0.368488 0.566354 0.005127 0.359828
O159  O     O_3   0.449614 0.355010 0.006004 -0.678969
H63   H     H_    0.433644 0.368489 0.005135 0.359827
O160  O     O_3   0.644991 0.449615 0.005998 -0.678968
H64   H     H_    0.631512 0.433645 0.005127 0.359828
O161  O     O_3   0.644990 0.006007 0.550385 -0.678967
H65   H     H_    0.631511 0.005138 0.566355 0.359828
O162  O     O_3   0.550386 0.005995 0.355010 -0.678968
H66   H     H_    0.566355 0.005122 0.368489 0.359827
O163  O     O_3   0.355009 0.006006 0.449615 -0.678969
H67   H     H_    0.368488 0.005137 0.433646 0.359828
O164  O     O_3   0.449614 0.005997 0.644991 -0.678969
H68   H     H_    0.433645 0.005126 0.631512 0.359828
O165  O     O_3   0.644991 0.993993 0.449616 -0.678967
H69   H     H_    0.631512 0.994862 0.433646 0.359828
O166  O     O_3   0.550387 0.994003 0.644990 -0.678969
H70   H     H_    0.566356 0.994875 0.631511 0.359827
O167  O     O_3   0.355010 0.993994 0.550385 -0.678969
H71   H     H_    0.368488 0.994863 0.566355 0.359829
O168  O     O_3   0.449613 0.994006 0.355010 -0.678969
H72   H     H_    0.433644 0.994879 0.368489 0.359826
O169  O     O_3   0.506005 0.949615 0.855009 -0.678970
H73   H     H_    0.505136 0.933646 0.868488 0.359827
O170  O     O_3   0.505997 0.144990 0.949614 -0.678968
H74   H     H_    0.505126 0.131511 0.933644 0.359828
O171  O     O_3   0.506009 0.050385 0.144990 -0.678965
H75   H     H_    0.505142 0.066354 0.131512 0.359830
O172  O     O_3   0.505996 0.855010 0.050386 -0.678969
H76   H     H_    0.505124 0.868488 0.066355 0.359828
O173  O     O_3   0.493995 0.050385 0.855009 -0.678968
H77   H     H_    0.494864 0.066355 0.868488 0.359828
O174  O     O_3   0.494005 0.855010 0.949614 -0.678970
H78   H     H_    0.494877 0.868489 0.933644 0.359827
O175  O     O_3   0.493991 0.949616 0.144991 -0.678967
H79   H     H_    0.494859 0.933646 0.131512 0.359828
O176  O     O_3   0.494002 0.144990 0.050385 -0.678968
H80   H     H_    0.494873 0.131512 0.066355 0.359828
O177  O     O_3   0.949615 0.144990 0.493996 -0.678968
H81   H     H_    0.933645 0.131511 0.494865 0.359828
O178  O     O_3   0.144990 0.050386 0.494003 -0.678970
H82   H     H_    0.131511 0.066355 0.494874 0.359828
O179  O     O_3   0.050386 0.855010 0.493994 -0.678967
H83   H     H_    0.066355 0.868489 0.494862 0.359829
O180  O     O_3   0.855010 0.949614 0.494003 -0.678969
H84   H     H_    0.868489 0.933645 0.494875 0.359828
O181  O     O_3   0.050385 0.144990 0.506004 -0.678968
H85   H     H_    0.066354 0.131512 0.505135 0.359829
O182  O     O_3   0.855010 0.050386 0.505997 -0.678969
H86   H     H_    0.868489 0.066355 0.505126 0.359827
O183  O     O_3   0.949616 0.855009 0.506008 -0.678966
H87   H     H_    0.933646 0.868487 0.505140 0.359830
O184  O     O_3   0.144990 0.949614 0.505998 -0.678967
H88   H     H_    0.131512 0.933645 0.505127 0.359830
O185  O     O_3   0.144990 0.506003 0.050386 -0.678969
H89   H     H_    0.131511 0.505134 0.066355 0.359827
O186  O     O_3   0.050385 0.505999 0.855009 -0.678969
H90   H     H_    0.066354 0.505127 0.868488 0.359827
O187  O     O_3   0.855009 0.506005 0.949615 -0.678968
H91   H     H_    0.868488 0.505136 0.933646 0.359828
O188  O     O_3   0.949614 0.505998 0.144990 -0.678969
H92   H     H_    0.933645 0.505126 0.131512 0.359828
O189  O     O_3   0.144991 0.493995 0.949616 -0.678969
H93   H     H_    0.131512 0.494864 0.933646 0.359828
O190  O     O_3   0.050386 0.494002 0.144990 -0.678967
H94   H     H_    0.066355 0.494873 0.131511 0.359827
O191  O     O_3   0.855010 0.493995 0.050385 -0.678968
H95   H     H_    0.868488 0.494865 0.066355 0.359828
O192  O     O_3   0.949613 0.494003 0.855010 -0.678969
H96   H     H_    0.933644 0.494875 0.868490 0.359826
N25   N     N_2   0.022554 0.452686 0.413335 -0.437150
H97   H     H_    0.019817 0.451675 0.434823 0.257120
C337  C     C_3   0.051905 0.448504 0.405874 -0.573065
H98   H     H_    0.064626 0.467068 0.412540 0.227877
H99   H     H_    0.054378 0.445277 0.382792 0.272954
H100  H     H_    0.060114 0.429441 0.416789 0.222737
N26   N     N_2   0.022547 0.586665 0.452683 -0.437150
H101  H     H_    0.019811 0.565177 0.451674 0.257114
C338  C     C_3   0.051897 0.594127 0.448496 -0.573068
H102  H     H_    0.064622 0.587463 0.467057 0.227877
H103  H     H_    0.054368 0.617209 0.445267 0.272957
H104  H     H_    0.060103 0.583212 0.429431 0.222737
N27   N     N_2   0.022554 0.547314 0.586665 -0.437150
H105  H     H_    0.019818 0.548324 0.565177 0.257123
C339  C     C_3   0.051905 0.551496 0.594126 -0.573062
H106  H     H_    0.064626 0.532932 0.587463 0.227877
H107  H     H_    0.054377 0.554726 0.617209 0.272954
H108  H     H_    0.060114 0.570559 0.583210 0.222735
N28   N     N_2   0.022549 0.413335 0.547316 -0.437150
H109  H     H_    0.019812 0.434823 0.548326 0.257115
C340  C     C_3   0.051899 0.405874 0.551502 -0.573064
H110  H     H_    0.064623 0.412538 0.532940 0.227876
H111  H     H_    0.054371 0.382791 0.554731 0.272955
H112  H     H_    0.060105 0.416789 0.570566 0.222737
N29   N     N_2   0.977445 0.547314 0.413335 -0.437149
H113  H     H_    0.980182 0.548324 0.434823 0.257122
C341  C     C_3   0.948095 0.551496 0.405874 -0.573063
H114  H     H_    0.935373 0.532932 0.412539 0.227876
H115  H     H_    0.945622 0.554724 0.382792 0.272954
H116  H     H_    0.939886 0.570559 0.416789 0.222737
N30   N     N_2   0.977451 0.413335 0.452684 -0.437150
H117  H     H_    0.980188 0.434823 0.451674 0.257115
C342  C     C_3   0.948101 0.405874 0.448498 -0.573072
H118  H     H_    0.935377 0.412540 0.467060 0.227877
H119  H     H_    0.945628 0.382792 0.445271 0.272955
H120  H     H_    0.939895 0.416788 0.429434 0.222739
N31   N     N_2   0.977446 0.452686 0.586665 -0.437150
H121  H     H_    0.980183 0.451675 0.565178 0.257120
C343  C     C_3   0.948095 0.448504 0.594126 -0.573066
H122  H     H_    0.935374 0.467068 0.587460 0.227877
H123  H     H_    0.945622 0.445277 0.617208 0.272954
H124  H     H_    0.939887 0.429441 0.583211 0.222738
N32   N     N_2   0.977453 0.586664 0.547317 -0.437151
H125  H     H_    0.980189 0.565177 0.548326 0.257116
C344  C     C_3   0.948103 0.594127 0.551505 -0.573067
H126  H     H_    0.935378 0.587463 0.532943 0.227877
H127  H     H_    0.945632 0.617209 0.554734 0.272956
H128  H     H_    0.939897 0.583211 0.570569 0.222737
N33   N     N_2   0.452687 0.586665 0.977445 -0.437148
H129  H     H_    0.451676 0.565178 0.980183 0.257120
C345  C     C_3   0.448505 0.594126 0.948094 -0.573062
H130  H     H_    0.467069 0.587460 0.935373 0.227876
H131  H     H_    0.445277 0.617208 0.945621 0.272953
H132  H     H_    0.429442 0.583211 0.939885 0.222736
N34   N     N_2   0.586665 0.547317 0.977452 -0.437151
H133  H     H_    0.565177 0.548326 0.980188 0.257115
C346  C     C_3   0.594127 0.551504 0.948102 -0.573063
H134  H     H_    0.587464 0.532941 0.935378 0.227877
H135  H     H_    0.617209 0.554734 0.945631 0.272956
H136  H     H_    0.583211 0.570567 0.939895 0.222735
N35   N     N_2   0.547313 0.413335 0.977446 -0.437149
H137  H     H_    0.548324 0.434822 0.980183 0.257121
C347  C     C_3   0.551496 0.405874 0.948095 -0.573063
H138  H     H_    0.532932 0.412539 0.935374 0.227876
H139  H     H_    0.554723 0.382792 0.945622 0.272953
H140  H     H_    0.570559 0.416789 0.939887 0.222737
N36   N     N_2   0.413336 0.452683 0.977452 -0.437150
H141  H     H_    0.434823 0.451674 0.980188 0.257116
C348  C     C_3   0.405874 0.448496 0.948102 -0.573066
H142  H     H_    0.412538 0.467058 0.935378 0.227877
H143  H     H_    0.382791 0.445267 0.945630 0.272955
H144  H     H_    0.416789 0.429432 0.939896 0.222737
N37   N     N_2   0.547314 0.586665 0.022555 -0.437148
H145  H     H_    0.548325 0.565177 0.019817 0.257122
C349  C     C_3   0.551495 0.594125 0.051905 -0.573064
H146  H     H_    0.532932 0.587460 0.064626 0.227877
H147  H     H_    0.554723 0.617207 0.054379 0.272952
H148  H     H_    0.570559 0.583210 0.060114 0.222737
N38   N     N_2   0.413335 0.547316 0.022548 -0.437151
H149  H     H_    0.434823 0.548326 0.019811 0.257114
C350  C     C_3   0.405874 0.551503 0.051898 -0.573067
H150  H     H_    0.412538 0.532941 0.064622 0.227877
H151  H     H_    0.382791 0.554731 0.054370 0.272955
H152  H     H_    0.416789 0.570567 0.060104 0.222737
N39   N     N_2   0.452686 0.413335 0.022554 -0.437150
H153  H     H_    0.451676 0.434823 0.019818 0.257122
C351  C     C_3   0.448503 0.405873 0.051904 -0.573063
H154  H     H_    0.467067 0.412536 0.064626 0.227877
H155  H     H_    0.445273 0.382792 0.054376 0.272954
H156  H     H_    0.429441 0.416790 0.060114 0.222735
N40   N     N_2   0.586665 0.452684 0.022548 -0.437151
H157  H     H_    0.565177 0.451674 0.019812 0.257115
C352  C     C_3   0.594127 0.448497 0.051898 -0.573064
H158  H     H_    0.587462 0.467059 0.064622 0.227876
H159  H     H_    0.617209 0.445268 0.054370 0.272956
H160  H     H_    0.583211 0.429433 0.060104 0.222736
N41   N     N_2   0.586665 0.022556 0.547313 -0.437149
H161  H     H_    0.565177 0.019818 0.548324 0.257123
C353  C     C_3   0.594125 0.051906 0.551494 -0.573062
H162  H     H_    0.587461 0.064627 0.532929 0.227876
H163  H     H_    0.617207 0.054380 0.554723 0.272952
H164  H     H_    0.583209 0.060116 0.570556 0.222736
N42   N     N_2   0.547318 0.022546 0.413335 -0.437151
H165  H     H_    0.548327 0.019810 0.434823 0.257113
C354  C     C_3   0.551506 0.051895 0.405873 -0.573067
H166  H     H_    0.532945 0.064621 0.412536 0.227877
H167  H     H_    0.554736 0.054366 0.382791 0.272957
H168  H     H_    0.570571 0.060100 0.416788 0.222737
N43   N     N_2   0.413335 0.022555 0.452687 -0.437148
H169  H     H_    0.434822 0.019818 0.451676 0.257124
C355  C     C_3   0.405874 0.051905 0.448505 -0.573062
H170  H     H_    0.412539 0.064627 0.467068 0.227876
H171  H     H_    0.382791 0.054378 0.445277 0.272954
H172  H     H_    0.416789 0.060115 0.429441 0.222736
N44   N     N_2   0.452683 0.022548 0.586665 -0.437151
H173  H     H_    0.451674 0.019811 0.565177 0.257115
C356  C     C_3   0.448496 0.051897 0.594127 -0.573064
H174  H     H_    0.467058 0.064622 0.587463 0.227876
H175  H     H_    0.445267 0.054369 0.617209 0.272956
H176  H     H_    0.429432 0.060103 0.583212 0.222737
N45   N     N_2   0.586665 0.977444 0.452687 -0.437148
H177  H     H_    0.565178 0.980181 0.451676 0.257123
C357  C     C_3   0.594126 0.948093 0.448506 -0.573062
H178  H     H_    0.587461 0.935373 0.467070 0.227876
H179  H     H_    0.617209 0.945620 0.445278 0.272954
H180  H     H_    0.583211 0.939884 0.429443 0.222737
N46   N     N_2   0.547317 0.977453 0.586664 -0.437152
H181  H     H_    0.548326 0.980189 0.565177 0.257115
C358  C     C_3   0.551505 0.948103 0.594127 -0.573063
H182  H     H_    0.532943 0.935378 0.587464 0.227877
H183  H     H_    0.554735 0.945632 0.617209 0.272956
H184  H     H_    0.570568 0.939897 0.583210 0.222735
N47   N     N_2   0.413335 0.977445 0.547314 -0.437149
H185  H     H_    0.434823 0.980182 0.548324 0.257122
C359  C     C_3   0.405874 0.948095 0.551495 -0.573065
H186  H     H_    0.412540 0.935373 0.532932 0.227876
H187  H     H_    0.382792 0.945622 0.554723 0.272953
H188  H     H_    0.416789 0.939886 0.570559 0.222737
N48   N     N_2   0.452682 0.977454 0.413335 -0.437151
H189  H     H_    0.451674 0.980189 0.434823 0.257114
C360  C     C_3   0.448493 0.948105 0.405872 -0.573059
H190  H     H_    0.467054 0.935379 0.412534 0.227876
H191  H     H_    0.445262 0.945635 0.382789 0.272957
H192  H     H_    0.429429 0.939900 0.416788 0.222735
N49   N     N_2   0.522555 0.952686 0.913335 -0.437149
H193  H     H_    0.519818 0.951676 0.934823 0.257123
C361  C     C_3   0.551905 0.948504 0.905873 -0.573063
H194  H     H_    0.564627 0.967068 0.912537 0.227876
H195  H     H_    0.554377 0.945275 0.882791 0.272954
H196  H     H_    0.560114 0.929441 0.916789 0.222736
N50   N     N_2   0.522548 0.086665 0.952683 -0.437150
H197  H     H_    0.519812 0.065177 0.951674 0.257115
C362  C     C_3   0.551897 0.094127 0.948496 -0.573063
H198  H     H_    0.564622 0.087463 0.967058 0.227876
H199  H     H_    0.554369 0.117209 0.945267 0.272955
H200  H     H_    0.560104 0.083211 0.929432 0.222736
N51   N     N_2   0.522557 0.047312 0.086665 -0.437149
H201  H     H_    0.519818 0.048324 0.065177 0.257122
C363  C     C_3   0.551908 0.051491 0.094124 -0.573067
H202  H     H_    0.564627 0.032926 0.087457 0.227877
H203  H     H_    0.554383 0.054718 0.117206 0.272951
H204  H     H_    0.560118 0.070554 0.083209 0.222738
N52   N     N_2   0.522546 0.913335 0.047317 -0.437151
H205  H     H_    0.519810 0.934823 0.048327 0.257112
C364  C     C_3   0.551896 0.905874 0.051505 -0.573064
H206  H     H_    0.564621 0.912538 0.032944 0.227876
H207  H     H_    0.554368 0.882791 0.054734 0.272955
H208  H     H_    0.560101 0.916789 0.070570 0.222736
N53   N     N_2   0.477446 0.047314 0.913335 -0.437149
H209  H     H_    0.480183 0.048324 0.934823 0.257121
C365  C     C_3   0.448095 0.051496 0.905874 -0.573062
H210  H     H_    0.435374 0.032932 0.912539 0.227876
H211  H     H_    0.445622 0.054724 0.882792 0.272954
H212  H     H_    0.439886 0.070559 0.916789 0.222736
N54   N     N_2   0.477453 0.913335 0.952683 -0.437150
H213  H     H_    0.480189 0.934823 0.951674 0.257115
C366  C     C_3   0.448104 0.905872 0.948494 -0.573065
H214  H     H_    0.435379 0.912536 0.967056 0.227877
H215  H     H_    0.445633 0.882790 0.945264 0.272957
H216  H     H_    0.439898 0.916788 0.929430 0.222737
N55   N     N_2   0.477443 0.952688 0.086665 -0.437149
H217  H     H_    0.480181 0.951676 0.065178 0.257123
C367  C     C_3   0.448092 0.948508 0.094125 -0.573063
H218  H     H_    0.435372 0.967072 0.087460 0.227877
H219  H     H_    0.445618 0.945280 0.117208 0.272953
H220  H     H_    0.439882 0.929445 0.083211 0.222737
N56   N     N_2   0.477452 0.086665 0.047317 -0.437152
H221  H     H_    0.480189 0.065177 0.048327 0.257113
C368  C     C_3   0.448103 0.094126 0.051504 -0.573065
H222  H     H_    0.435378 0.087461 0.032942 0.227876
H223  H     H_    0.445630 0.117208 0.054732 0.272954
H224  H     H_    0.439896 0.083211 0.070568 0.222737
N57   N     N_2   0.952686 0.086665 0.477446 -0.437149
H225  H     H_    0.951676 0.065177 0.480183 0.257121
C369  C     C_3   0.948503 0.094126 0.448096 -0.573063
H226  H     H_    0.967067 0.087462 0.435374 0.227877
H227  H     H_    0.945275 0.117209 0.445623 0.272954
H228  H     H_    0.929440 0.083211 0.439887 0.222737
N58   N     N_2   0.086665 0.047317 0.477452 -0.437150
H229  H     H_    0.065177 0.048326 0.480188 0.257115
C370  C     C_3   0.094127 0.051504 0.448102 -0.573065
H230  H     H_    0.087463 0.032942 0.435378 0.227877
H231  H     H_    0.117210 0.054733 0.445631 0.272956
H232  H     H_    0.083212 0.070568 0.439896 0.222737
N59   N     N_2   0.047313 0.913335 0.477444 -0.437150
H233  H     H_    0.048324 0.934823 0.480181 0.257122
C371  C     C_3   0.051494 0.905874 0.448094 -0.573065
H234  H     H_    0.032930 0.912540 0.435373 0.227877
H235  H     H_    0.054722 0.882792 0.445620 0.272953
H236  H     H_    0.070557 0.916790 0.439884 0.222737
N60   N     N_2   0.913335 0.952683 0.477452 -0.437152
H237  H     H_    0.934823 0.951674 0.480188 0.257113
C372  C     C_3   0.905873 0.948496 0.448103 -0.573065
H238  H     H_    0.912537 0.967058 0.435378 0.227877
H239  H     H_    0.882791 0.945267 0.445631 0.272956
H240  H     H_    0.916789 0.929432 0.439896 0.222737
N61   N     N_2   0.047314 0.086665 0.522554 -0.437149
H241  H     H_    0.048324 0.065177 0.519817 0.257122
C373  C     C_3   0.051497 0.094126 0.551904 -0.573064
H242  H     H_    0.032933 0.087461 0.564626 0.227876
H243  H     H_    0.054725 0.117208 0.554377 0.272954
H244  H     H_    0.070560 0.083211 0.560113 0.222737
N62   N     N_2   0.913335 0.047317 0.522548 -0.437150
H245  H     H_    0.934823 0.048326 0.519812 0.257115
C374  C     C_3   0.905873 0.051504 0.551897 -0.573065
H246  H     H_    0.912537 0.032942 0.564622 0.227876
H247  H     H_    0.882791 0.054733 0.554369 0.272956
H248  H     H_    0.916788 0.070568 0.560104 0.222737
N63   N     N_2   0.952687 0.913335 0.522555 -0.437147
H249  H     H_    0.951675 0.934822 0.519817 0.257120
C375  C     C_3   0.948507 0.905876 0.551907 -0.573069
H250  H     H_    0.967070 0.912544 0.564627 0.227876
H251  H     H_    0.945282 0.882793 0.554382 0.272952
H252  H     H_    0.929443 0.916789 0.560115 0.222741
N64   N     N_2   0.086665 0.952683 0.522548 -0.437150
H253  H     H_    0.065177 0.951673 0.519810 0.257114
C376  C     C_3   0.094125 0.948497 0.551898 -0.573067
H254  H     H_    0.087459 0.967058 0.564622 0.227876
H255  H     H_    0.117208 0.945269 0.554371 0.272954
H256  H     H_    0.083211 0.929432 0.560104 0.222739
N65   N     N_2   0.086665 0.522554 0.047314 -0.437151
H257  H     H_    0.065177 0.519818 0.048324 0.257123
C377  C     C_3   0.094127 0.551904 0.051497 -0.573066
H258  H     H_    0.087464 0.564626 0.032933 0.227878
H259  H     H_    0.117209 0.554376 0.054728 0.272955
H260  H     H_    0.083210 0.560113 0.070560 0.222736
N66   N     N_2   0.047316 0.522548 0.913335 -0.437151
H261  H     H_    0.048326 0.519812 0.934822 0.257115
C378  C     C_3   0.051503 0.551898 0.905873 -0.573066
H262  H     H_    0.032941 0.564622 0.912538 0.227877
H263  H     H_    0.054732 0.554370 0.882791 0.272956
H264  H     H_    0.070567 0.560104 0.916788 0.222737
N67   N     N_2   0.913335 0.522554 0.952686 -0.437149
H265  H     H_    0.934823 0.519817 0.951675 0.257122
C379  C     C_3   0.905874 0.551904 0.948504 -0.573064
H266  H     H_    0.912539 0.564626 0.967067 0.227876
H267  H     H_    0.882792 0.554377 0.945276 0.272954
H268  H     H_    0.916789 0.560113 0.929440 0.222737
N68   N     N_2   0.952684 0.522548 0.086665 -0.437150
H269  H     H_    0.951674 0.519812 0.065177 0.257115
C380  C     C_3   0.948497 0.551898 0.094127 -0.573065
H270  H     H_    0.967059 0.564622 0.087463 0.227876
H271  H     H_    0.945268 0.554369 0.117209 0.272955
H272  H     H_    0.929433 0.560104 0.083211 0.222736
N69   N     N_2   0.086665 0.477446 0.952686 -0.437150
H273  H     H_    0.065178 0.480183 0.951676 0.257121
C381  C     C_3   0.094126 0.448096 0.948504 -0.573065
H274  H     H_    0.087461 0.435374 0.967067 0.227877
H275  H     H_    0.117208 0.445622 0.945276 0.272954
H276  H     H_    0.083211 0.439887 0.929440 0.222737
N70   N     N_2   0.047317 0.477452 0.086665 -0.437150
H277  H     H_    0.048326 0.480188 0.065177 0.257117
C382  C     C_3   0.051503 0.448102 0.094126 -0.573065
H278  H     H_    0.032941 0.435378 0.087462 0.227876
H279  H     H_    0.054732 0.445630 0.117208 0.272955
H280  H     H_    0.070568 0.439896 0.083211 0.222737
N71   N     N_2   0.913335 0.477446 0.047314 -0.437149
H281  H     H_    0.934823 0.480183 0.048324 0.257121
C383  C     C_3   0.905874 0.448096 0.051496 -0.573064
H282  H     H_    0.912539 0.435374 0.032933 0.227877
H283  H     H_    0.882792 0.445623 0.054725 0.272954
H284  H     H_    0.916789 0.439887 0.070560 0.222737
N72   N     N_2   0.952683 0.477452 0.913336 -0.437152
H285  H     H_    0.951674 0.480187 0.934823 0.257117
C384  C     C_3   0.948496 0.448102 0.905873 -0.573063
H286  H     H_    0.967058 0.435378 0.912535 0.227877
H287  H     H_    0.945265 0.445632 0.882791 0.272956
H288  H     H_    0.929432 0.439896 0.916789 0.222735

loop_
_geom_bond_atom_site_label_1
_geom_bond_atom_site_label_2
_ccdc_geom_bond_type
C357  H180  S    
O146  H50   S    
C1    O7    A    
C242  C259  A    
C46   C324  A    
C338  H102  S    
C11   O19   A    
N55   C367  S    
O155  H59   S    
C9    C132  S    
C335  N6    S    
C349  H146  S    
C184  C226  A    
O162  H66   S    
C45   O165  S    
C26   O146  S    
C239  C311  A    
N59   H233  S    
C349  H148  S    
C224  C254  A    
C240  C312  A    
C277  C292  A    
C342  H118  S    
C348  H144  S    
N34   C346  S    
Cu1   O4    S    
C236  C308  A    
C70   O190  S    
O169  H73   S    
C149  N1    A    
C119  N71   S    
C15   O27   A    
C302  O134  S    
C199  C271  A    
N70   C382  S    
C248  C261  A    
C155  C207  A    
C274  O106  S    
C378  H263  S    
C189  N21   A    
C173  O77   S    
C148  O52   S    
C82   N34   S    
C28   O148  S    
C91   C131  A    
C13   O31   A    
C237  C309  A    
N62   H245  S    
C96   N48   S    
C89   C129  A    
C272  C303  A    
C76   N28   S    
C187  N23   A    
O139  H43   S    
C207  C279  A    
C155  O59   S    
N53   C365  S    
C188  O92   S    
Cu6   O21   S    
C235  C307  A    
C182  O86   S    
C147  C199  A    
O102  H6    S    
C95   N47   S    
O187  H91   S    
C223  C295  A    
C224  C296  A    
C305  O137  S    
C243  C262  A    
C39   C87   A    
C156  C206  A    
C294  O126  S    
C267  O99   S    
C268  O100  S    
C44   C92   A    
C220  C292  A    
N29   C341  S    
C11   O21   A    
N51   C363  S    
C221  C293  A    
N69   C381  S    
C189  O93   S    
N45   H177  S    
C215  C251  A    
C86   N38   S    
N71   C383  S    
C43   C91   A    
C162  N10   A    
C190  C236  A    
C63   C331  A    
C27   C75   A    
C98   N50   S    
C368  H223  S    
C54   C102  A    
N27   H105  S    
C341  H116  S    
C353  H163  S    
C161  O65   S    
C372  H240  S    
C50   C98   A    
C180  N20   A    
C111  C139  A    
N32   H125  S    
C112  C138  A    
N44   H173  S    
C379  H268  S    
C177  O81   S    
C12   O20   A    
C374  H248  S    
C5    O9    A    
O98   H2    S    
C273  O105  S    
C181  C225  A    
C42   C90   A    
O157  H61   S    
C231  C259  A    
O149  H53   S    
O164  H68   S    
C94   C132  A    
C226  C298  A    
C68   C336  A    
C18   C137  S    
C26   C74   A    
C367  H218  S    
C169  N13   A    
C178  C232  A    
C168  O72   S    
C36   O156  S    
C32   C80   A    
C26   C314  A    
C19   O35   A    
N48   H189  S    
C32   C314  A    
C334  N3    S    
N66   H261  S    
C384  H288  S    
C222  C294  A    
C106  N58   S    
C148  N4    A    
C373  H243  S    
C145  O49   S    
C291  O123  S    
C17   O33   A    
O179  H83   S    
C68   C116  A    
C32   O152  S    
C170  C224  A    
C71   O191  S    
C173  N13   A    
C338  H104  S    
C101  C133  A    
N41   C353  S    
O181  H85   S    
C22   O46   A    
O133  H37   S    
C174  C220  A    
C145  C197  A    
C197  C269  A    
O184  H88   S    
C303  O135  S    
C200  C242  A    
O138  H42   S    
C41   O161  S    
C282  O114  S    
C44   C324  A    
C233  C261  A    
C2    C121  S    
Cu12  O46   S    
N44   C356  S    
C35   O155  S    
C198  C270  A    
C320  N21   S    
C79   N31   S    
C286  C289  A    
C379  H267  S    
C65   C113  A    
C79   C123  A    
C6    C125  S    
C233  C305  A    
C268  C301  A    
C355  H171  S    
C207  C247  A    
C8    O16   A    
C171  C223  A    
O188  H92   S    
C12   O24   A    
C13   O25   A    
O171  H75   S    
C205  C245  A    
C71   C119  A    
C75   N27   S    
C198  C244  A    
C271  C312  A    
C40   C88   A    
N42   H165  S    
O99   H3    S    
C10   C129  S    
C309  O141  S    
C350  H151  S    
C267  C306  A    
O173  H77   S    
O148  H52   S    
C170  N14   A    
C62   C332  A    
O121  H25   S    
O172  H76   S    
C213  C285  A    
C225  C257  A    
C315  N22   S    
C35   C319  A    
C5    C128  S    
C215  C287  A    
O152  H56   S    
C216  C288  A    
C7    C126  S    
C146  C200  A    
O153  H57   S    
C66   C334  A    
C208  C246  A    
C1    C124  S    
N70   H277  S    
C64   C112  A    
C49   C97   A    
C365  H210  S    
C318  N23   S    
C147  N3    A    
C6    O10   A    
O110  H14   S    
N51   H201  S    
C205  C277  A    
N60   H237  S    
C345  H131  S    
Cu8   O30   S    
C286  O118  S    
C49   C325  A    
C22   O42   A    
C93   N45   S    
Cu7   O27   S    
Cu10  O39   S    
N25   H97   S    
C150  N4    A    
C65   O185  S    
C20   O36   A    
C331  N2    S    
Cu5   O17   S    
C330  N11   S    
C376  H255  S    
C281  O113  S    
C84   C128  A    
C41   C89   A    
C272  O104  S    
O165  H69   S    
C164  O68   S    
C109  N61   S    
C222  C256  A    
C359  H187  S    
C120  N72   S    
C379  H266  S    
C194  C266  A    
O126  H30   S    
C97   C133  A    
Cu3   O12   S    
C45   C93   A    
C231  C303  A    
N67   H265  S    
C364  H206  S    
C171  O75   S    
C377  H258  S    
C361  H195  S    
C157  O61   S    
C114  N66   S    
C280  C311  A    
C165  N9    A    
N37   H145  S    
C104  C134  A    
C38   C86   A    
C20   C139  S    
C370  H232  S    
C92   C132  A    
C29   C313  A    
C188  C238  A    
N61   C373  S    
C251  C258  A    
C62   O182  S    
N31   C343  S    
N58   C370  S    
C363  H203  S    
C24   C143  S    
O176  H80   S    
C59   C331  A    
Cu4   O13   S    
N37   C349  S    
C209  C281  A    
C280  O112  S    
C186  N22   A    
N43   H169  S    
C175  O79   S    
O144  H48   S    
C366  H215  S    
C317  N16   S    
C166  O70   S    
C8    C127  S    
C369  H226  S    
C352  H159  S    
C116  C144  A    
C159  C203  A    
C156  O60   S    
O142  H46   S    
C52   O172  S    
C159  O63   S    
N62   C374  S    
N68   H269  S    
C381  H275  S    
C213  C249  A    
C285  O117  S    
C380  H271  S    
C189  C233  A    
C356  H174  S    
C84   N36   S    
Cu6   O24   S    
C16   O32   A    
C166  C212  A    
Cu12  O48   S    
C337  H99   S    
C365  H212  S    
C370  H231  S    
O191  H95   S    
C358  H182  S    
C63   C111  A    
C340  H111  S    
C40   O160  S    
C239  C263  A    
C179  O83   S    
O97   H1    S    
C275  O107  S    
Cu2   O8    S    
O103  H7    S    
C313  N24   S    
C163  N11   A    
N57   C369  S    
C183  N19   A    
C218  C254  A    
C383  H284  S    
C221  C253  A    
C7    O13   A    
C188  N24   A    
N38   C350  S    
C237  C261  A    
C78   N30   S    
C76   C124  A    
C377  H259  S    
C5    O15   A    
C65   C333  A    
N60   C372  S    
C104  N56   S    
C94   N46   S    
C42   C322  A    
C64   C330  A    
C375  H252  S    
C362  H200  S    
C164  C214  A    
N47   H185  S    
C88   N40   S    
C37   O157  S    
C110  N62   S    
C52   C100  A    
C59   C107  A    
N30   H117  S    
N54   C366  S    
C375  H251  S    
N68   C380  S    
C206  C248  A    
N64   C376  S    
O105  H9    S    
C91   N43   S    
C343  H123  S    
N39   C351  S    
C37   C317  A    
O160  H64   S    
C46   C94   A    
C351  H154  S    
C53   C325  A    
C72   C120  A    
N48   C360  S    
N35   H137  S    
Cu8   O32   S    
N40   C352  S    
Cu7   O25   S    
Cu10  O37   S    
C39   C319  A    
C367  H219  S    
Cu11  O44   S    
C83   N35   S    
O189  H93   S    
Cu5   O19   S    
C278  C305  A    
C153  C205  A    
Cu9   O34   S    
C16   O28   A    
C327  N10   S    
C162  O66   S    
C287  C304  A    
C369  H227  S    
C285  C300  A    
C23   O43   A    
C154  N6    A    
C80   N32   S    
O113  H17   S    
C196  C268  A    
C157  C201  A    
C249  C260  A    
O120  H24   S    
C307  O139  S    
C40   C318  A    
C160  O64   S    
N65   C377  S    
C278  O110  S    
C325  N12   S    
C53   O173  S    
C332  N9    S    
C31   O151  S    
C48   O168  S    
C195  C243  A    
C115  N67   S    
C97   N49   S    
C77   N29   S    
Cu2   O5    S    
C81   C125  A    
C266  C299  A    
C193  C241  A    
C288  O120  S    
C21   C144  S    
C83   C127  A    
C312  O144  S    
C30   C316  A    
C310  O142  S    
C354  H168  S    
C353  H162  S    
C228  C260  A    
C192  C234  A    
O140  H44   S    
C14   C133  S    
C348  H143  S    
C201  C245  A    
Cu1   O3    S    
Cu4   O15   S    
C185  C237  A    
C363  H204  S    
C102  N54   S    
C42   O162  S    
N52   C364  S    
C229  C301  A    
O163  H67   S    
N50   C362  S    
C378  H262  S    
C212  C284  A    
C295  O127  S    
C24   O48   A    
C51   C327  A    
C70   C118  A    
C220  C256  A    
C153  N5    A    
C58   O178  S    
C351  H156  S    
C113  C141  A    
C99   N51   S    
C25   C73   A    
C152  C194  A    
C347  H139  S    
C107  C139  A    
N53   H209  S    
C356  H176  S    
C165  O69   S    
C342  H120  S    
C77   C121  A    
Cu6   O22   S    
C163  O67   S    
C66   O186  S    
C247  C254  A    
C185  O89   S    
C234  C262  A    
C371  H236  S    
C203  C247  A    
C204  C276  A    
O143  H47   S    
C358  H184  S    
C201  C273  A    
O132  H36   S    
C15   O29   A    
C177  N17   A    
O182  H86   S    
C252  C253  A    
C68   O188  S    
C41   C321  A    
Cu3   O10   S    
O141  H45   S    
O129  H33   S    
O108  H12   S    
C24   O44   A    
C281  C302  A    
C60   C332  A    
O118  H22   S    
N30   C342  S    
N46   H181  S    
C59   O179  S    
C377  H260  S    
C277  O109  S    
C383  H282  S    
Cu3   Cu4   S    
N69   H273  S    
C52   C328  A    
N26   C338  S    
C9    O23   A    
N71   H281  S    
C238  C264  A    
N40   H157  S    
C34   C318  A    
C322  N15   S    
N34   H133  S    
C167  O71   S    
C226  C258  A    
C360  H190  S    
C368  H222  S    
C199  C243  A    
C375  H250  S    
C341  H115  S    
C15   C134  S    
C80   C122  A    
C362  H198  S    
C176  O80   S    
C319  N14   S    
C372  H239  S    
C339  H106  S    
C197  C241  A    
C382  H278  S    
C147  O51   S    
C290  O122  S    
C271  O103  S    
O134  H38   S    
C57   O177  S    
C339  H107  S    
C174  O78   S    
C56   C326  A    
C374  H247  S    
C151  N3    A    
C160  C202  A    
O117  H21   S    
C19   O37   A    
C161  N9    A    
C266  O98   S    
C191  C235  A    
C357  H178  S    
C17   O39   A    
C250  C255  A    
C360  H192  S    
C206  C278  A    
C333  N8    S    
C357  H179  S    
N55   H217  S    
C151  C195  A    
N33   C345  S    
C361  H194  S    
C162  C216  A    
C343  H124  S    
C161  C213  A    
C20   O40   A    
N59   C371  S    
C48   C96   A    
C299  O131  S    
C344  H128  S    
C21   O41   A    
C202  C274  A    
Cu9   O36   S    
C181  O85   S    
C46   O166  S    
O166  H70   S    
C53   C101  A    
C384  H287  S    
C235  C263  A    
C337  H98   S    
C103  N55   S    
C81   N33   S    
C279  O111  S    
C195  C267  A    
C14   O30   A    
C60   C108  A    
C73   N25   S    
N72   H285  S    
C362  H199  S    
C50   C326  A    
C61   C109  A    
C345  H130  S    
C338  H103  S    
C145  N1    A    
C176  C218  A    
O109  H13   S    
C95   C131  A    
C346  H135  S    
C175  C219  A    
Cu12  O45   S    
C93   C129  A    
C217  C289  A    
N27   C339  S    
C27   C315  A    
C274  C307  A    
O167  H71   S    
C328  N5    S    
C342  H119  S    
Cu1   Cu2   S    
C119  C143  A    
C202  C246  A    
C29   O149  S    
N49   H193  S    
C363  H202  S    
C158  O62   S    
C168  C210  A    
C270  O102  S    
O116  H20   S    
C54   C328  A    
C39   O159  S    
N28   C340  S    
C378  H264  S    
Cu11  Cu12  S    
N56   C368  S    
C100  N52   S    
C35   C83   A    
C4    O4    A    
C166  N12   A    
C55   O175  S    
C296  O128  S    
C265  O97   S    
O145  H49   S    
C86   C128  A    
C275  C290  A    
C176  N14   A    
C7    O11   A    
C314  N19   S    
C191  O95   S    
C23   O45   A    
C9    O17   A    
C60   O180  S    
C117  C141  A    
O156  H60   S    
N32   C344  S    
C321  N20   S    
C350  H150  S    
C184  O88   S    
C158  N8    A    
C67   C335  A    
C383  H283  S    
C69   C333  A    
C371  H234  S    
C178  N18   A    
O124  H28   S    
C240  C262  A    
C156  N8    A    
C349  H147  S    
C163  C215  A    
N58   H229  S    
C217  C253  A    
C172  O76   S    
C56   C104  A    
C219  C255  A    
C270  C297  A    
C149  O53   S    
C107  N59   S    
C33   C317  A    
C74   C122  A    
C230  C260  A    
C236  C264  A    
C152  N2    A    
C172  N16   A    
C214  C252  A    
N65   H257  S    
C211  C251  A    
C75   C123  A    
C227  C299  A    
Cu10  O40   S    
N64   H253  S    
C28   C76   A    
C11   C130  S    
C153  O57   S    
N28   H109  S    
C368  H224  S    
C308  O140  S    
C96   C130  A    
O175  H79   S    
N67   C379  S    
C353  H164  S    
C31   C315  A    
C98   C134  A    
C112  N64   S    
C185  N21   A    
C13   C136  S    
C66   C114  A    
N46   C358  S    
C230  C302  A    
C8    O12   A    
C244  C257  A    
C269  O101  S    
C108  N60   S    
C1    O1    A    
C187  C239  A    
O178  H82   S    
C190  N24   A    
N26   H101  S    
C72   O192  S    
C10   O22   A    
C90   N42   S    
C118  C144  A    
C47   O167  S    
C48   C322  A    
C352  H160  S    
N36   C348  S    
C283  O115  S    
C284  O116  S    
C343  H122  S    
C304  O136  S    
C18   O34   A    
N61   H241  S    
C45   C321  A    
C298  O130  S    
Cu7   Cu8   S    
C165  C209  A    
N31   H121  S    
C354  H166  S    
C25   C313  A    
Cu4   O14   S    
O136  H40   S    
C234  C306  A    
C373  H244  S    
C38   C320  A    
C28   C316  A    
C178  O82   S    
C366  H214  S    
C67   O187  S    
C49   O169  S    
C102  C136  A    
C118  N70   S    
C364  H207  S    
C182  N20   A    
N56   H221  S    
C90   C130  A    
C3    O5    A    
C282  C291  A    
C171  N15   A    
C216  C250  A    
C344  H126  S    
C58   C106  A    
O170  H74   S    
C61   O181  S    
C265  C310  A    
C380  H270  S    
O177  H81   S    
C85   N37   S    
C34   O154  S    
C154  C208  A    
C279  C296  A    
C174  N16   A    
C229  C257  A    
O190  H94   S    
C57   C105  A    
N52   H205  S    
C365  H211  S    
C167  N11   A    
C370  H230  S    
C180  O84   S    
C12   C131  S    
C289  O121  S    
C158  C204  A    
C340  H110  S    
C85   C125  A    
O174  H78   S    
C160  N6    A    
C157  N5    A    
C164  N12   A    
C355  H172  S    
C182  C228  A    
C87   C127  A    
O159  H63   S    
C192  N22   A    
C301  O133  S    
O180  H84   S    
N36   H141  S    
C346  H134  S    
N57   H225  S    
C228  C300  A    
C232  C304  A    
C180  C230  A    
O115  H19   S    
O137  H41   S    
O130  H34   S    
C3    O3    A    
C196  C244  A    
O104  H8    S    
C21   O47   A    
C114  C142  A    
C37   C85   A    
C232  C258  A    
C25   O145  S    
C352  H158  S    
C350  H152  S    
C159  N7    A    
N25   C337  S    
C177  C229  A    
C63   O183  S    
N42   C354  S    
C38   O158  S    
C168  N10   A    
O112  H16   S    
C55   C103  A    
C225  C297  A    
C58   C330  A    
O128  H32   S    
C109  C137  A    
O111  H15   S    
C337  H100  S    
C47   C323  A    
C306  O138  S    
C67   C115  A    
C103  C135  A    
C316  N17   S    
C360  H191  S    
C212  C252  A    
Cu8   O31   S    
C169  C221  A    
C341  H114  S    
C89   N41   S    
C376  H254  S    
C241  C264  A    
C54   O174  S    
C345  H132  S    
C88   C126  A    
Cu8   O29   S    
C209  C249  A    
C23   C142  S    
C190  O94   S    
Cu7   O28   S    
Cu10  O38   S    
C173  C217  A    
N39   H153  S    
Cu11  O43   S    
C3    C122  S    
C227  C259  A    
Cu5   O18   S    
C18   O38   A    
C149  C193  A    
C110  C140  A    
C167  C211  A    
Cu9   O33   S    
C50   O170  S    
C219  C291  A    
C30   O150  S    
C359  H188  S    
C340  H112  S    
C351  H155  S    
C155  N7    A    
C150  O54   S    
C293  O125  S    
Cu3   O9    S    
O192  H96   S    
Cu11  O42   S    
Cu2   O6    S    
O107  H11   S    
C361  H196  S    
C101  N53   S    
N38   H149  S    
C51   C99   A    
C245  C256  A    
C115  C143  A    
N63   C375  S    
C99   C135  A    
C210  C282  A    
C381  H274  S    
C10   O18   A    
C120  C142  A    
O101  H5    S    
C43   C323  A    
C27   O147  S    
C187  O91   S    
O100  H4    S    
C108  C140  A    
C154  O58   S    
C364  H208  S    
N72   C384  S    
C203  C275  A    
O131  H35   S    
C300  O132  S    
C117  N69   S    
Cu1   O2    S    
Cu4   O16   S    
C116  N68   S    
C55   C327  A    
O150  H54   S    
C4    C123  S    
N43   C355  S    
C366  H216  S    
C14   O26   A    
O161  H65   S    
Cu1   O1    S    
C223  C255  A    
C111  N63   S    
C269  C308  A    
Cu3   O11   S    
C323  N18   S    
C51   O171  S    
O168  H72   S    
C62   C110  A    
C64   O184  S    
C169  O73   S    
C339  H108  S    
C6    O14   A    
C276  O108  S    
C191  N23   A    
O127  H31   S    
O135  H39   S    
C2    O2    A    
C105  N57   S    
C29   C77   A    
C214  C286  A    
C287  O119  S    
C172  C222  A    
C380  H272  S    
C36   C320  A    
C311  O143  S    
C150  C196  A    
N63   H249  S    
C204  C248  A    
C44   O164  S    
Cu6   O23   S    
C381  H276  S    
Cu12  O47   S    
C184  N18   A    
C371  H235  S    
C106  C138  A    
C218  C290  A    
O151  H55   S    
C382  H280  S    
C358  H183  S    
C200  C272  A    
C152  O56   S    
C292  O124  S    
C186  C240  A    
C324  N13   S    
C355  H170  S    
C356  H175  S    
Cu2   O7    S    
O106  H10   S    
C151  O55   S    
C326  N7    S    
C4    O8    A    
O186  H90   S    
O183  H87   S    
O123  H27   S    
C346  H136  S    
C57   C329  A    
N54   H213  S    
C208  C280  A    
C347  H138  S    
N29   H113  S    
C170  O74   S    
C192  O96   S    
C72   C334  A    
C194  C242  A    
C373  H242  S    
N50   H197  S    
C276  C309  A    
C344  H127  S    
C183  C227  A    
C31   C79   A    
N41   H161  S    
C33   O153  S    
N47   C359  S    
C34   C82   A    
C372  H238  S    
O122  H26   S    
C73   C121  A    
C87   N39   S    
C354  H167  S    
O114  H18   S    
C193  C265  A    
C376  H256  S    
C105  C137  A    
N45   C357  S    
C336  N1    S    
C183  O87   S    
O154  H58   S    
N49   C361  S    
C113  N65   S    
C374  H246  S    
C348  H142  S    
N66   C378  S    
C283  C298  A    
C148  C198  A    
O147  H51   S    
O185  H89   S    
C69   O189  S    
C33   C81   A    
C284  C293  A    
C36   C84   A    
C19   C138  S    
C22   C141  S    
C69   C117  A    
N35   C347  S    
C56   O176  S    
C210  C250  A    
C74   N26   S    
C146  O50   S    
C17   C140  S    
C175  N15   A    
C273  C294  A    
C2    O6    A    
Cu7   O26   S    
N33   H129  S    
C146  N2    A    
C367  H220  S    
C288  C295  A    
Cu11  O41   S    
C92   N44   S    
C297  O129  S    
C186  O90   S    
Cu5   O20   S    
C70   C336  A    
O158  H62   S    
C30   C78   A    
C100  C136  A    
Cu9   O35   S    
C347  H140  S    
C211  C283  A    
C238  C310  A    
C384  H286  S    
C382  H279  S    
C71   C335  A    
C369  H228  S    
C181  N17   A    
C359  H186  S    
C47   C95   A    
C179  N19   A    
C329  N4    S    
C61   C329  A    
Cu9   Cu10  S    
O125  H29   S    
C16   C135  S    
C179  C231  A    
C43   O163  S    
C82   C126  A    
C246  C263  A    
O119  H23   S    
Cu5   Cu6   S    
C78   C124  A    
