data_mof_unit_50011.cif
_audit_creation_date              2012-10-26T19:56:21-0400
_audit_creation_method            fapswitch 2.2
_symmetry_space_group_name_H-M    P1
_symmetry_Int_Tables_number       1
_space_group_crystal_system       triclinic
_cell_length_a                    10.82612
_cell_length_b                    10.623467
_cell_length_c                    9.429359
_cell_angle_alpha                 91.043674
_cell_angle_beta                  90.713736
_cell_angle_gamma                 90.911344
_cell_volume                      1084.07413236

loop_
_atom_site_label
_atom_site_type_symbol
_atom_type_description
_atom_site_fract_x
_atom_site_fract_y
_atom_site_fract_z
_atom_type_partial_charge
C1    C     C_R   0.499921 0.259406 0.498866 0.540227
C2    C     C_3   0.393657 0.041606 0.554148 -0.130413
C3    C     C_3   0.500114 0.877630 0.502824 0.041974
C4    C     C_3   0.499883 0.122370 0.497176 0.041975
C5    C     C_3   0.489403 0.962813 0.634910 -0.115779
C6    C     C_3   0.510594 0.037187 0.365090 -0.115778
C7    C     C_3   0.411976 0.566220 0.049435 0.473545
C8    C     C_3   0.588024 0.433780 0.950565 0.473545
C9    C     C_3   0.396931 0.453727 0.946640 -0.041505
C10   C     C_3   0.603069 0.546273 0.053360 -0.041505
C11   C     C_3   0.513850 0.613572 0.951918 -0.040966
C12   C     C_R   0.500078 0.740593 0.501134 0.540226
C13   C     C_3   0.486150 0.386428 0.048082 -0.040967
C14   C     C_R   0.262493 0.495868 0.498888 0.538778
C15   C     C_R   0.737507 0.504132 0.501112 0.538778
C16   C     C_R   0.113533 0.294915 0.021863 0.374585
C17   C     C_R   0.886470 0.705086 0.978137 0.374587
C18   C     C_R   0.072279 0.373391 0.131355 -0.027663
C19   C     C_R   0.927725 0.626611 0.868645 -0.027664
C20   C     C_R   0.111466 0.355449 0.272260 0.001938
C21   C     C_R   0.888535 0.644551 0.727740 0.001939
C22   C     C_R   0.192382 0.256800 0.301477 -0.083135
C23   C     C_R   0.871569 0.506387 0.502496 0.029737
C24   C     C_R   0.807613 0.743197 0.698524 -0.083130
C25   C     C_R   0.234403 0.179355 0.191232 -0.169576
C26   C     C_R   0.765592 0.820642 0.808769 -0.169575
C27   C     C_R   0.195204 0.198321 0.051759 -0.084389
C28   C     C_R   0.804794 0.801677 0.948242 -0.084390
C29   C     C_R   0.929771 0.440543 0.393105 -0.103141
C30   C     C_R   0.070230 0.559459 0.606894 -0.103141
C31   C     C_R   0.128431 0.493614 0.497504 0.029738
C32   C     C_R   0.942213 0.567493 0.611264 0.002506
C33   C     C_R   0.057787 0.432508 0.388735 0.002505
C34   C     C_3   0.595704 0.045884 0.577817 -0.119792
C35   C     C_3   0.404293 0.954116 0.422183 -0.119792
C36   C     C_3   0.606340 0.958393 0.445852 -0.130413
Cu1   Cu    Cu3+1 0.500030 0.499990 0.643150 1.018505
Cu2   Cu    Cu3+1 0.499970 0.500010 0.356850 1.018505
F1    F     F_    0.318039 0.636819 0.106642 -0.602336
F2    F     F_    0.681961 0.363181 0.893358 -0.602335
F3    F     F_    0.074098 0.312309 0.886670 -0.644975
F4    F     F_    0.925907 0.687693 0.113330 -0.644973
H1    H     H_    0.227726 0.137725 0.967051 0.137430
H2    H     H_    0.778929 0.761502 0.590569 0.114528
H3    H     H_    0.296166 0.103470 0.213569 0.121469
H4    H     H_    0.703825 0.896525 0.786433 0.121468
H5    H     H_    0.874427 0.390964 0.312539 0.137814
H6    H     H_    0.125573 0.609037 0.687461 0.137812
H7    H     H_    0.693432 0.921289 0.401795 0.123815
H8    H     H_    0.306565 0.078711 0.598205 0.123815
H9    H     H_    0.674121 0.087322 0.640746 0.151261
H10   H     H_    0.325876 0.912677 0.359254 0.151261
H11   H     H_    0.479832 0.929868 0.745348 0.120991
H12   H     H_    0.772270 0.862273 0.032950 0.137429
H13   H     H_    0.520165 0.070132 0.254651 0.120991
H14   H     H_    0.310514 0.416829 0.896030 0.158429
H15   H     H_    0.689487 0.583166 0.103969 0.158428
H16   H     H_    0.523961 0.709121 0.907437 0.114739
H17   H     H_    0.476037 0.290880 0.092563 0.114739
H18   H     H_    0.008056 0.447065 0.107156 0.177732
H19   H     H_    0.991954 0.552940 0.892843 0.177729
H20   H     H_    0.221062 0.238494 0.409432 0.114529
N1    N     N_3   0.500090 0.499970 0.858290 -0.264439
N2    N     N_3   0.499910 0.500030 0.141710 -0.264440
O1    O     O_R   0.500060 0.316850 0.620870 -0.468118
O2    O     O_R   0.499940 0.683150 0.379130 -0.468119
O3    O     O_R   0.500000 0.316860 0.379090 -0.524689
O4    O     O_R   0.500000 0.683140 0.620910 -0.524691
O5    O     O_R   0.319670 0.500010 0.620890 -0.516970
O6    O     O_R   0.680330 0.499990 0.379110 -0.516971
O7    O     O_R   0.319620 0.500010 0.379110 -0.442117
O8    O     O_R   0.680380 0.499990 0.620890 -0.442116

loop_
_geom_bond_atom_site_label_1
_geom_bond_atom_site_label_2
_ccdc_geom_bond_type
C2    C35   S    
Cu2   O6    S    
C8    C13   S    
Cu1   O5    S    
C14   O7    A    
C6    H13   S    
C7    C11   S    
C15   O8    A    
C12   O4    A    
C34   H9    S    
C29   H5    S    
C23   C29   A    
C30   H6    S    
C19   C21   A    
C24   C26   A    
C11   N1    S    
C30   C31   A    
Cu1   O4    S    
C29   C33   A    
C6    C35   S    
C9    C13   S    
C17   F4    S    
C3    C12   S    
C2    H8    S    
C1    O3    A    
Cu2   O2    S    
C22   C25   A    
Cu1   O1    S    
C1    O1    A    
C31   C33   A    
C11   H16   S    
C14   C31   S    
C18   C20   A    
C16   C27   A    
C15   C23   S    
Cu1   N1    S    
Cu2   N2    S    
C21   C32   S    
C4    C34   S    
C10   H15   S    
C4    C6    S    
C28   H12   S    
C12   O2    A    
C2    C4    S    
Cu1   Cu2   S    
C22   H20   S    
C3    C35   S    
C5    C34   S    
C9    H14   S    
C20   C33   S    
C18   H18   S    
C20   C22   A    
C24   H2    S    
C14   O5    A    
C21   C24   A    
C2    C5    S    
C25   H3    S    
C5    H11   S    
C7    C9    S    
C15   O6    A    
Cu2   O7    S    
C9    N1    S    
C17   C28   A    
C8    C10   S    
C10   N2    S    
C3    C5    S    
C13   H17   S    
C25   C27   A    
C26   C28   A    
C1    C4    S    
C23   C32   A    
C30   C32   A    
C13   N2    S    
C3    C36   S    
C19   H19   S    
C17   C19   A    
C6    C36   S    
C34   C36   S    
C7    N2    S    
C10   C11   S    
C26   H4    S    
C8    N1    S    
C27   H1    S    
Cu2   O3    S    
C16   C18   A    
Cu1   O8    S    
C35   H10   S    
C7    F1    S    
C8    F2    S    
C16   F3    S    
C36   H7    S    
