data_mof_unit_61800.cif
_audit_creation_date              2013-03-05T16:15:21-0500
_audit_creation_method            fapswitch 2.2
_symmetry_space_group_name_H-M    P1
_symmetry_Int_Tables_number       1
_space_group_crystal_system       triclinic
_cell_length_a                    8.266358
_cell_length_b                    17.377587
_cell_length_c                    18.743132
_cell_angle_alpha                 102.637667
_cell_angle_beta                  91.282419
_cell_angle_gamma                 98.144711
_cell_volume                      2596.73610866

loop_
_atom_site_label
_atom_site_type_symbol
_atom_site_description
_atom_site_fract_x
_atom_site_fract_y
_atom_site_fract_z
_atom_type_partial_charge
P1    P     P_3+3 0.038810 0.422920 0.331160 0.480631
O1    O     O_2   0.871520 0.445720 0.321500 -0.371860
O2    O     O_3   0.121030 0.451930 0.411150 -0.365946
O3    O     O_3   0.662190 0.593100 0.375060 -0.347005
O4    O     O_2   0.779241 0.537892 0.245988 -0.388432
O5    O     O_3   0.999672 0.318544 0.308937 -0.576059
O6    O     O_3   0.687963 0.676018 0.260091 -0.547195
H1    H     H_    0.754980 0.733751 0.367578 0.165192
C1    C     C_3   0.695095 0.816510 0.305010 -0.932179
H2    H     H_    0.729280 0.862969 0.356572 0.237523
H3    H     H_    0.796773 0.820101 0.267166 0.290797
P2    P     P_3+3 0.678260 0.686080 0.568600 0.493219
P3    P     P_3+3 0.125422 0.738298 0.418711 0.505278
O7    O     O_2   0.853880 0.696450 0.547730 -0.373871
O8    O     O_3   0.085100 0.636210 0.413950 -0.325968
O9    O     O_2   0.009674 0.779624 0.473085 -0.390399
O10   O     O_3   0.688749 0.714610 0.664273 -0.563168
O11   O     O_3   0.061613 0.751326 0.333099 -0.480534
C2    C     C_3   0.158565 0.711814 0.280542 0.480448
H4    H     H_    0.148391 0.647334 0.281058 0.088891
H5    H     H_    0.288616 0.740273 0.290694 0.027719
C3    C     C_3   0.101467 0.718077 0.204468 -0.950206
H6    H     H_    0.977630 0.682629 0.188917 0.281707
H7    H     H_    0.096949 0.781624 0.203749 0.264861
C4    C     C_3   0.235069 0.711674 0.631648 0.424742
H8    H     H_    0.358232 0.697758 0.617426 0.092848
H9    H     H_    0.146930 0.687134 0.583846 0.149661
C5    C     C_3   0.239782 0.801705 0.651421 -0.948411
H10   H     H_    0.338464 0.829456 0.694332 0.260381
H11   H     H_    0.263058 0.826907 0.602627 0.229946
H12   H     H_    0.119865 0.816124 0.672028 0.272075
Ba1   Ba    Ba6+2 0.853800 0.535410 0.467450 1.586042
C6    C     C_3   0.954510 0.289509 0.370582 0.418037
H13   H     H_    0.835505 0.307068 0.387306 0.092279
H14   H     H_    0.047294 0.312134 0.416834 0.137884
C7    C     C_3   0.939493 0.198895 0.350295 -0.944615
H15   H     H_    0.841249 0.173871 0.306570 0.265911
H16   H     H_    0.909370 0.173540 0.398431 0.226676
H17   H     H_    0.057696 0.181245 0.330488 0.266929
C8    C     C_3   0.730967 0.652448 0.693672 0.453400
H18   H     H_    0.852983 0.639418 0.676125 0.087673
H19   H     H_    0.638047 0.598038 0.676667 0.119033
C9    C     C_3   0.737872 0.678782 0.776783 -1.029063
H20   H     H_    0.834993 0.731005 0.795631 0.273272
H21   H     H_    0.765227 0.629899 0.802216 0.218387
H22   H     H_    0.617964 0.695497 0.794851 0.261438
P4    P     P_3+3 0.150900 0.577150 0.668860 0.472123
O12   O     O_2   0.318180 0.554310 0.678550 -0.368255
O13   O     O_3   0.068680 0.548140 0.588860 -0.394404
O14   O     O_3   0.527520 0.406960 0.624950 -0.392399
O15   O     O_3   0.188184 0.681490 0.692603 -0.577023
P5    P     P_3+3 0.071028 0.262907 0.585842 0.452791
O16   O     O_3   0.608500 0.402060 0.457050 -0.388908
O17   O     O_3   0.104610 0.363860 0.586060 -0.364698
O18   O     O_2   0.198125 0.222860 0.537161 -0.402147
O19   O     O_3   0.116678 0.251886 0.674519 -0.501667
Ba2   Ba    Ba6+2 0.336030 0.464660 0.532560 1.571339
P6    P     P_3+3 0.639537 0.581503 0.279705 0.454647
C10   C     C_3   0.666066 0.734253 0.322451 0.505720
H23   H     H_    0.539836 0.723575 0.340283 0.008577
H24   H     H_    0.581547 0.828830 0.279002 0.230455
O20   O     O_3   0.581210 0.598010 0.542960 -0.351478
C11   C     C_3   0.464457 0.326701 0.304215 0.445674
H25   H     H_    0.340452 0.338220 0.320887 0.094323
H26   H     H_    0.553674 0.382633 0.319261 0.112180
C12   C     C_3   0.457500 0.297918 0.221404 -1.018889
H27   H     H_    0.368252 0.242355 0.204131 0.277189
H28   H     H_    0.418573 0.344081 0.195010 0.218050
H29   H     H_    0.580284 0.286117 0.203080 0.262418
P7    P     P_3+3 0.519350 0.301001 0.431885 0.440041
O21   O     O_2   0.335820 0.303580 0.452320 -0.366942
O22   O     O_3   0.514258 0.267791 0.336568 -0.565144
H30   H     H_    0.188443 0.694440 0.163585 0.216047
C13   C     C_3   0.996249 0.282200 0.719897 0.352080
H31   H     H_    0.002455 0.347559 0.724296 0.096070
H32   H     H_    0.872864 0.250763 0.698106 -0.041951
C14   C     C_3   0.019460 0.266679 0.796206 -0.112438
H33   H     H_    0.912049 0.281614 0.828222 0.109744
H34   H     H_    0.028443 0.202603 0.792203 0.152254
P8    P     P_3+3 0.552320 0.415344 0.719326 0.471282
C15   C     C_3   0.515256 0.262821 0.673798 0.518934
H35   H     H_    0.638219 0.273164 0.652500 -0.011625
O23   O     O_2   0.419760 0.462785 0.755537 -0.343570
O24   O     O_3   0.499302 0.320500 0.737434 -0.496143
H36   H     H_    0.422665 0.264776 0.631095 0.172182
H37   H     H_    0.601687 0.168662 0.717116 0.221966
C16   C     C_3   0.487796 0.180187 0.690369 -0.908960
H38   H     H_    0.456080 0.133910 0.638244 0.244920
H39   H     H_    0.384541 0.175557 0.727588 0.297889
C17   C     C_R   0.990641 0.465488 0.046546 0.016751
C18   C     C_R   0.889208 0.427233 0.091788 0.119343
C19   C     C_R   0.727148 0.394599 0.067262 -0.190852
C20   C     C_R   0.666784 0.398836 0.998161 -0.166407
C21   C     C_R   0.768029 0.434654 0.951648 0.108153
C22   C     C_R   0.930294 0.468560 0.975913 0.027821
C23   C     C_R   0.709868 0.435495 0.880945 -0.211413
C24   C     C_R   0.812708 0.467587 0.832168 -0.042265
C25   C     C_R   0.974658 0.504252 0.857256 0.020527
C26   C     C_R   0.032328 0.504793 0.929440 0.015316
C27   C     C_R   0.760055 0.462576 0.758579 0.162769
C28   C     C_R   0.869234 0.491727 0.711291 -0.540529
C29   C     C_R   0.025838 0.532413 0.735920 0.274756
C30   C     C_R   0.079550 0.539863 0.810306 -0.023678
C31   C     C_R   0.152811 0.499225 0.071278 -0.005616
C32   C     C_R   0.212802 0.496776 0.142322 0.000150
C33   C     C_R   0.108304 0.460273 0.188926 -0.044262
C34   C     C_R   0.950103 0.422408 0.160966 -0.128165
H40   H     H_    0.646615 0.365973 0.101682 0.137628
H41   H     H_    0.541200 0.373082 0.980694 0.171159
H42   H     H_    0.828737 0.485427 0.654722 0.175392
H43   H     H_    0.584628 0.409425 0.864229 0.219999
H44   H     H_    0.871557 0.389237 0.192566 0.162007
C35   C     C_R   0.235864 0.579970 0.839035 -0.142020
C36   C     C_R   0.295567 0.576970 0.908969 0.130238
C37   C     C_R   0.193889 0.539266 0.954481 0.036261
C38   C     C_R   0.254456 0.535983 0.025022 0.022528
C39   C     C_R   0.457480 0.609794 0.933586 -0.180948
C40   C     C_R   0.518239 0.605184 0.002489 -0.184114
C41   C     C_R   0.417460 0.568951 0.048856 0.120103
C42   C     C_R   0.376970 0.531030 0.166464 -0.040526
C43   C     C_R   0.477825 0.565474 0.118487 -0.220557
C44   C     C_R   0.435316 0.529083 0.237655 0.193080
C45   C     C_R   0.331055 0.492005 0.281933 -0.482986
C46   C     C_R   0.166688 0.462184 0.261482 0.255357
H45   H     H_    0.315298 0.612063 0.806969 0.161978
H46   H     H_    0.538189 0.638159 0.899130 0.134266
H47   H     H_    0.644249 0.630346 0.019673 0.136300
H48   H     H_    0.604629 0.589303 0.134301 0.184922
H49   H     H_    0.379807 0.485048 0.333447 0.191412
C47   C     C_2   0.435228 0.723112 0.481196 -0.033038
C48   C     C_3   0.347873 0.777126 0.445181 0.026845
C49   C     C_2   0.391844 0.864471 0.481294 -0.235518
C50   C     C_2   0.544791 0.888693 0.514428 0.045404
C51   C     C_2   0.641171 0.827612 0.532119 -0.309814
C52   C     C_1   0.574409 0.751482 0.521930 0.237271
C53   C     C_R   0.807249 0.140213 0.538218 -0.276714
C54   C     C_R   0.863787 0.221365 0.547436 0.232806
C55   C     C_R   0.620474 0.238294 0.481068 0.278580
C56   C     C_R   0.564925 0.156565 0.470444 -0.254723
C57   C     C_R   0.656821 0.107387 0.499948 0.122525
C58   C     C_2   0.622525 0.973720 0.530869 -0.098238
C59   C     C_2   0.598709 0.021042 0.484193 -0.147879
C60   C     C_R   0.768058 0.270720 0.521209 -0.502757
H50   H     H_    0.525956 0.996195 0.433012 0.127913
H51   H     H_    0.765987 0.846746 0.554939 0.186149
H52   H     H_    0.884599 0.102580 0.557204 0.143651
H53   H     H_    0.702636 0.996287 0.580536 0.130771
H54   H     H_    0.452374 0.131032 0.437893 0.157164
H55   H     H_    0.813444 0.333541 0.527697 0.167023
Br1   Br    Br    0.213712 0.331795 0.848832 -0.504071
C61   C     C_2   0.274543 0.921548 0.477802 1.064219
O25   O     O_2   0.194357 0.916947 0.421042 -0.620598
O26   O     O_R   0.258775 0.981510 0.539437 -0.801411
H56   H     H_    0.181309 0.018905 0.529537 0.323977
Br2   Br    Br    0.379054 0.612318 0.439701 -0.443634

loop_
_geom_bond_atom_site_label_1
_geom_bond_atom_site_label_2
_geom_bond_distance
_ccdc_geom_bond_type
C12   H28   1.109733 S    
C16   H38   1.120238 S    
C11   H26   1.111657 S    
C20   C21   1.403705 A    
P2    Ba1   3.403371 S    
O12   Ba2   2.855540 S    
C34   H44   1.079440 S    
C47   C52   1.336010 D    
P8    O24   1.752275 S    
C15   O24   1.402164 S    
C15   H35   1.105721 S    
C45   C46   1.397085 A    
P4    O13   1.578280 S    
C14   H33   1.112122 S    
C4    C5    1.521508 S    
C28   C29   1.399973 A    
C7    H17   1.112638 S    
C13   H32   1.109679 S    
O4    P6    1.542235 D    
C1    H24   1.116504 S    
C5    H10   1.110997 S    
C2    H5    1.111544 S    
C57   C59   1.471352 S    
O11   C2    1.406922 S    
C55   C60   1.396620 A    
H1    C10   1.110373 S    
C26   C37   1.408893 A    
C22   C26   1.410314 A    
C12   H29   1.110834 S    
C35   H45   1.078891 S    
C33   C34   1.411532 A    
C37   C38   1.418964 A    
C6    C7    1.523165 S    
O13   Ba2   2.906048 S    
O1    Ba1   2.854987 S    
P1    O1    1.509155 D    
C40   C41   1.403195 A    
C19   C20   1.398247 A    
C31   C38   1.410165 A    
C19   H40   1.082885 S    
C8    C9    1.521830 S    
C2    H4    1.113901 S    
P5    O17   1.735958 S    
C49   C50   1.364191 D    
P2    C52   1.863251 S    
P2    O10   1.749503 S    
C61   O25   1.222197 D    
C32   C42   1.423550 A    
C47   Br2   1.898075 S    
P5    C54   1.827864 S    
C39   H46   1.081916 S    
O6    P6    1.754276 S    
P5    O18   1.546892 D    
C53   C57   1.402220 A    
C8    H19   1.112191 S    
C12   H27   1.109996 S    
C54   C60   1.401017 A    
C11   C12   1.520118 S    
C10   H23   1.105818 S    
O26   H56   1.015945 S    
P4    C29   1.873763 S    
C45   H49   1.075529 S    
O2    Ba1   2.905216 S    
Ba1   Ba2   4.551793 S    
P8    O23   1.544496 D    
O16   P7    1.762089 S    
O6    C10   1.402429 S    
C31   C32   1.421992 A    
C42   C44   1.417678 A    
C15   H36   1.104287 S    
C24   C25   1.420678 A    
C14   H34   1.112700 S    
C23   H43   1.079670 S    
C56   H54   1.083466 S    
P6    C44   1.868543 S    
O19   C13   1.407974 S    
C13   H31   1.114336 S    
P1    O5    1.750751 S    
C18   C34   1.404258 A    
Ba2   O20   2.823027 S    
C2    C3    1.523162 S    
C43   H48   1.080490 S    
C18   C19   1.403809 A    
O16   Ba2   2.902191 S    
H37   C16   1.119833 S    
P4    O15   1.750163 S    
C28   H42   1.082213 S    
C13   C14   1.525255 S    
P1    Ba1   3.394499 S    
O14   P8    1.747803 S    
P1    O2    1.578119 S    
O10   C8    1.396772 S    
C9    H20   1.110635 S    
C4    O15   1.398236 S    
P4    Ba2   3.395161 S    
P2    O20   1.590544 S    
P4    O12   1.509456 D    
C23   C24   1.411763 A    
C6    H13   1.102770 S    
P3    C48   1.882538 S    
C21   C22   1.408795 A    
O3    Ba1   2.756685 S    
Ba2   O21   2.872925 S    
C21   C23   1.403378 A    
C9    H21   1.107594 S    
C17   C31   1.409349 A    
C15   C16   1.521837 S    
C41   C43   1.403514 A    
P3    O11   1.749078 S    
C8    H18   1.106232 S    
P2    O7    1.508366 D    
P7    C55   1.843684 S    
C1    H3    1.115640 S    
C50   C51   1.501047 S    
C3    H7    1.113213 S    
C40   H47   1.083623 S    
C33   C46   1.424690 A    
C48   C49   1.509048 S    
O2    Ba2   2.805937 S    
Ba1   O16   2.823623 S    
C24   C27   1.417489 A    
C42   C43   1.410544 A    
C35   C36   1.404505 A    
C1    H2    1.116858 S    
C49   C61   1.492105 S    
C51   H51   1.085756 S    
C7    H15   1.111073 S    
C30   C35   1.412379 A    
O14   Ba2   2.756180 S    
C5    H12   1.113438 S    
O7    Ba1   2.872721 S    
C53   C54   1.392858 A    
O8    Ba1   2.763158 S    
C14   Br1   1.938482 S    
C56   C57   1.408945 A    
O5    C6    1.396415 S    
C36   C37   1.408572 A    
C51   C52   1.330078 D    
C4    H9    1.109503 S    
C32   C33   1.425671 A    
C50   C58   1.487934 S    
C38   C41   1.409162 A    
P3    O8    1.740161 S    
C47   C48   1.518424 S    
C4    H8    1.104434 S    
P1    C46   1.880404 S    
Ba1   O20   2.903023 S    
C58   C59   1.354012 D    
C7    H16   1.105922 S    
C17   C18   1.408760 A    
C5    H11   1.106566 S    
C27   C28   1.399804 A    
C6    H14   1.109064 S    
C59   H50   1.089824 S    
C61   O26   1.398506 S    
C29   C30   1.426460 A    
C9    H22   1.111362 S    
C53   H52   1.083190 S    
Ba1   O13   2.805338 S    
C36   C39   1.403754 A    
P7    O21   1.577382 D    
C55   C56   1.398208 A    
C58   H53   1.094543 S    
C11   H25   1.110665 S    
P5    O19   1.753083 S    
C60   H55   1.082178 S    
C11   O22   1.401796 S    
C25   C26   1.422017 A    
P3    O9    1.545298 D    
O3    P6    1.756885 S    
C16   H39   1.119547 S    
C3    H6    1.114330 S    
P7    O22   1.750773 S    
C3    H30   1.115099 S    
C1    C10   1.522677 S    
C44   C45   1.398342 A    
C39   C40   1.397921 A    
C17   C22   1.418899 A    
P8    C27   1.855707 S    
C25   C30   1.424623 A    
C20   H41   1.083605 S    
O17   Ba2   2.763763 S    
