data_mof_unit_59627.cif
_audit_creation_date              2012-10-26T21:13:42-0400
_audit_creation_method            fapswitch 2.2
_symmetry_space_group_name_H-M    P1
_symmetry_Int_Tables_number       1
_space_group_crystal_system       triclinic
_cell_length_a                    9.076639
_cell_length_b                    10.875263
_cell_length_c                    9.569314
_cell_angle_alpha                 90.671313
_cell_angle_beta                  90.028636
_cell_angle_gamma                 90.542895
_cell_volume                      944.487575145

loop_
_atom_site_label
_atom_site_type_symbol
_atom_type_description
_atom_site_fract_x
_atom_site_fract_y
_atom_site_fract_z
_atom_type_partial_charge
C1    C     C_R   0.498318 0.262877 0.499117 0.562086
C2    C     C_R   0.629468 0.499360 0.926453 0.212725
C3    C     C_3   0.748019 0.595310 0.923329 0.125484
C4    C     C_R   0.220743 0.499906 0.499941 0.553263
C5    C     C_3   0.748921 0.593381 0.082372 -0.238245
C6    C     C_R   0.500571 0.737406 0.500581 0.548881
C7    C     C_R   0.779246 0.500112 0.500028 0.560637
C8    C     C_1   0.065552 0.499920 0.499846 -0.056947
C9    C     C_1   0.934419 0.500000 0.499933 -0.037907
C10   C     C_R   0.485718 0.064507 0.619045 0.037584
C11   C     C_R   0.496010 0.130429 0.496575 0.003118
C12   C     C_R   0.507957 0.934097 0.371879 -0.168947
C13   C     C_R   0.506396 0.063101 0.370235 -0.169635
C14   C     C_3   0.606447 0.901172 0.981589 -0.165608
C15   C     C_3   0.326248 0.147793 0.953394 -0.125267
C16   C     C_3   0.977456 0.646795 0.840705 -0.125171
C17   C     C_R   0.500373 0.870360 0.499730 -0.000988
C18   C     C_R   0.490315 0.940686 0.621639 0.030008
C19   C     C_3   0.481089 0.937800 0.777745 0.171077
C20   C     C_3   0.473198 0.079984 0.772802 0.177584
C21   C     C_R   0.629251 0.499125 0.073783 0.125378
C22   C     C_R   0.372325 0.488903 0.073832 -0.035180
C23   C     C_R   0.372469 0.488255 0.925673 -0.030794
Cu1   Cu    Cu3+1 0.499990 0.499980 0.640670 0.993637
Cu2   Cu    Cu3+1 0.500010 0.500020 0.359330 0.926800
H1    H     H_    0.513980 0.109271 0.270777 0.127120
H2    H     H_    0.522694 0.834196 0.019750 0.110517
H3    H     H_    0.715069 0.875545 0.024785 0.134600
H4    H     H_    0.583104 0.995214 0.021818 0.105934
H5    H     H_    0.415614 0.211294 0.989768 0.114815
H6    H     H_    0.329583 0.059879 0.011336 0.098956
H7    H     H_    0.219847 0.192403 0.978098 0.154379
H8    H     H_    0.005099 0.697068 0.939398 0.105235
H9    H     H_    0.932035 0.710909 0.762131 0.139189
H10   H     H_    0.080983 0.609712 0.797011 0.146441
H11   H     H_    0.707300 0.681121 0.875435 0.169125
H12   H     H_    0.851589 0.555465 0.127590 0.155568
H13   H     H_    0.711498 0.680292 0.132209 0.097138
H14   H     H_    0.515690 0.884885 0.273364 0.125079
H15   H     H_    0.380400 0.888771 0.815192 0.120831
H16   H     H_    0.569400 0.131974 0.816862 0.133402
H17   H     H_    0.268224 0.481039 0.127601 0.133076
H18   H     H_    0.268834 0.478419 0.871558 0.143553
N1    N     N_R   0.500920 0.500930 0.147930 -0.244332
N2    N     N_R   0.500930 0.500890 0.852020 -0.259932
O1    O     O_R   0.500000 0.319640 0.618810 -0.475502
O2    O     O_3   0.332996 0.126182 0.808082 -0.565910
O3    O     O_3   0.879149 0.548221 0.865270 -0.553203
O4    O     O_R   0.500020 0.319680 0.381230 -0.509759
O5    O     O_R   0.288380 0.499980 0.618770 -0.508949
O6    O     O_R   0.288400 0.500020 0.381190 -0.510837
O7    O     O_R   0.499980 0.680320 0.618770 -0.491983
O8    O     O_R   0.500000 0.680360 0.381190 -0.512976
O9    O     O_R   0.711600 0.499980 0.618810 -0.454678
O10   O     O_R   0.711620 0.500020 0.381230 -0.511406
O11   O     O_3   0.615341 0.897418 0.834609 -0.589063

loop_
_geom_bond_atom_site_label_1
_geom_bond_atom_site_label_2
_ccdc_geom_bond_type
C12   C17   A    
Cu1   O7    S    
C14   O11   S    
Cu2   O6    S    
C15   H6    S    
C13   H1    S    
C23   N2    A    
C5    H12   S    
C16   H8    S    
C21   N1    A    
C19   C20   S    
C1    C11   S    
C19   O11   S    
C7    O10   A    
C4    C8    S    
Cu1   O1    S    
C16   O3    S    
C2    C21   A    
C2    C3    S    
C23   H18   S    
C15   H7    S    
C2    N2    A    
C5    H13   S    
C14   H3    S    
C12   C13   A    
C11   C13   A    
C22   H17   S    
C3    H11   S    
C10   C18   A    
Cu1   N2    S    
C6    O8    A    
Cu2   N1    S    
Cu2   O8    S    
C20   H16   S    
C16   H9    S    
C16   H10   S    
Cu1   O5    S    
C14   H2    S    
Cu2   O4    S    
C1    O1    A    
C20   O2    S    
C10   C11   A    
C14   H4    S    
Cu1   O9    S    
C3    O3    S    
C5    C21   S    
Cu1   Cu2   S    
C15   H5    S    
C17   C18   A    
C18   C19   S    
C19   H15   S    
C4    O5    A    
C7    C9    S    
C6    C17   S    
C22   C23   A    
C15   O2    S    
C4    O6    A    
C7    O9    A    
C6    O7    A    
C1    O4    A    
C12   H14   S    
C22   N1    A    
Cu2   O10   S    
C10   C20   S    
C8    C9    T    
C3    C5    S    
