data_mof_unit_56491.cif
_audit_creation_date              2013-03-05T16:02:01-0500
_audit_creation_method            fapswitch 2.2
_symmetry_space_group_name_H-M    P1
_symmetry_Int_Tables_number       1
_space_group_crystal_system       triclinic
_cell_length_a                    6.934033
_cell_length_b                    17.464705
_cell_length_c                    19.563454
_cell_angle_alpha                 108.493947
_cell_angle_beta                  89.405769
_cell_angle_gamma                 90.660564
_cell_volume                      2246.59545251

loop_
_atom_site_label
_atom_site_type_symbol
_atom_site_description
_atom_site_fract_x
_atom_site_fract_y
_atom_site_fract_z
_atom_type_partial_charge
O1    O     O_R   0.494330 0.415720 0.413720 -0.597062
O2    O     O_R   0.819330 0.430070 0.560210 -0.602789
O3    O     O_R   0.994320 0.584280 0.586280 -0.590766
C1    C     C_R   0.649832 0.414589 0.581353 0.943184
O4    O     O_R   0.823730 0.406300 0.412670 -0.591838
O5    O     O_R   0.998760 0.560340 0.437690 -0.616766
C2    C     C_R   0.655060 0.383319 0.385083 0.935546
O6    O     O_R   0.489890 0.439660 0.562310 -0.587670
O7    O     O_3   0.662340 0.550560 0.508380 -0.266410
V1    V     V_3+5 0.935370 0.490620 0.498450 1.169051
O8    O     O_R   0.328750 0.569930 0.439790 -0.573997
C3    C     C_R   0.161066 0.582467 0.416049 0.951801
O9    O     O_R   0.324340 0.593700 0.587330 -0.587031
C4    C     C_R   0.155013 0.618048 0.614062 0.913543
V2    V     V_3+5 0.435940 0.509380 0.501550 1.188937
O10   O     O_3   0.159100 0.449440 0.491620 -0.269637
H1    H     H_    0.442012 0.876868 0.589712 0.179060
C5    C     C_R   0.997213 0.596318 0.742932 -0.178242
C6    C     C_R   0.916941 0.582995 0.803736 -0.130870
C7    C     C_R   0.901971 0.646152 0.867872 -0.106076
C8    C     C_R   0.968401 0.722925 0.871763 -0.172080
C9    C     C_R   0.048530 0.738718 0.810570 0.111220
C10   C     C_R   0.061777 0.674320 0.744399 0.144470
C11   C     C_R   0.123485 0.816055 0.815616 -0.301357
C12   C     C_R   0.215306 0.828763 0.754735 0.130756
C13   C     C_R   0.213290 0.766923 0.686132 0.014922
C14   C     C_R   0.141909 0.687973 0.681836 -0.308722
C15   C     C_R   0.306497 0.903704 0.760803 -0.060085
C16   C     C_R   0.396159 0.917893 0.702499 -0.102093
C17   C     C_R   0.383660 0.861050 0.635115 -0.076320
C18   C     C_R   0.283819 0.787954 0.625011 -0.082617
H2    H     H_    0.009507 0.544122 0.695334 0.126353
H3    H     H_    0.867851 0.523061 0.801178 0.114949
H4    H     H_    0.841337 0.635374 0.915251 0.110209
H5    H     H_    0.959256 0.769013 0.923789 0.106333
H6    H     H_    0.311269 0.953136 0.810433 0.170770
H7    H     H_    0.467406 0.975282 0.709007 0.157771
C19   C     C_R   0.301104 0.627618 0.315944 -0.214918
C20   C     C_R   0.152439 0.631391 0.366330 -0.108210
C21   C     C_R   0.994561 0.682301 0.369181 -0.183662
C22   C     C_R   0.985606 0.729769 0.323178 0.088229
C23   C     C_R   0.132340 0.724269 0.271622 0.041334
C24   C     C_R   0.290707 0.672735 0.267920 0.172263
C25   C     C_R   0.833192 0.783375 0.328766 -0.298228
C26   C     C_R   0.822525 0.831765 0.283552 0.349272
C27   C     C_R   0.966998 0.824945 0.229758 -0.036494
C28   C     C_R   0.121958 0.770784 0.224211 0.002158
C29   C     C_R   0.269512 0.764130 0.172204 0.232303
C30   C     C_R   0.424950 0.712078 0.168577 -0.182463
C31   C     C_R   0.436164 0.667297 0.216297 -0.237040
C32   C     C_R   0.965625 0.872283 0.182984 -0.167734
C33   C     C_R   0.110407 0.864865 0.130516 -0.182867
C34   C     C_R   0.262040 0.810827 0.125621 -0.170146
H8    H     H_    0.423035 0.588408 0.313247 0.123269
H9    H     H_    0.880511 0.686388 0.408497 0.146450
H10   H     H_    0.721121 0.787898 0.368887 0.197632
H11   H     H_    0.856247 0.917138 0.187703 0.181177
H12   H     H_    0.375005 0.805415 0.085653 0.125309
H13   H     H_    0.539793 0.706933 0.129418 0.125717
H14   H     H_    0.558943 0.628365 0.212820 0.132942
C35   C     C_R   0.481394 0.188594 0.869333 -0.213693
C36   C     C_R   0.625257 0.131540 0.866267 -0.337130
C37   C     C_R   0.774685 0.119941 0.814105 0.337148
C38   C     C_R   0.779707 0.166358 0.766405 -0.077383
C39   C     C_R   0.635107 0.224089 0.770939 0.001060
C40   C     C_R   0.484916 0.234634 0.822298 0.172171
C41   C     C_R   0.924036 0.154914 0.713131 -0.234339
C42   C     C_R   0.930621 0.200903 0.665989 0.325170
C43   C     C_R   0.787161 0.259664 0.671022 -0.025995
C44   C     C_R   0.638751 0.270743 0.723502 0.034186
C45   C     C_R   0.491799 0.327853 0.728089 0.212604
C46   C     C_R   0.343249 0.337326 0.779236 -0.208176
C47   C     C_R   0.339654 0.291050 0.825805 -0.200930
C48   C     C_R   0.784259 0.306001 0.623792 -0.163978
C49   C     C_R   0.641113 0.363901 0.629215 -0.181034
C50   C     C_R   0.494584 0.374228 0.681176 -0.151960
H15   H     H_    0.366553 0.197771 0.909105 0.166908
H16   H     H_    0.034862 0.110230 0.707804 0.212145
H17   H     H_    0.890674 0.296767 0.581304 0.184775
H18   H     H_    0.383466 0.418736 0.685396 0.122385
H19   H     H_    0.229043 0.380368 0.783005 0.128278
H20   H     H_    0.222780 0.299358 0.864629 0.132452
H21   H     H_    0.343946 0.147667 0.426504 0.178724
C51   C     C_R   0.805158 0.398177 0.251031 -0.178670
C52   C     C_R   0.877374 0.407701 0.187486 -0.124313
C53   C     C_R   0.865038 0.344512 0.123095 -0.110278
C54   C     C_R   0.780414 0.271297 0.121731 -0.157565
C55   C     C_R   0.707634 0.259368 0.185524 0.118520
C56   C     C_R   0.720286 0.324226 0.251628 0.122095
C57   C     C_R   0.619612 0.185015 0.183903 -0.306796
C58   C     C_R   0.544111 0.175728 0.248589 0.101393
C59   C     C_R   0.556932 0.240573 0.314707 0.113678
C60   C     C_R   0.644966 0.314913 0.316308 -0.309330
C61   C     C_R   0.458757 0.101864 0.249187 -0.169761
C62   C     C_R   0.386236 0.092429 0.312740 -0.034439
C63   C     C_R   0.399092 0.155546 0.377161 -0.078557
C64   C     C_R   0.484182 0.228676 0.378523 -0.165573
H22   H     H_    0.815548 0.449735 0.299349 0.116835
H23   H     H_    0.942033 0.464675 0.188176 0.114625
H24   H     H_    0.920072 0.352428 0.073760 0.111408
H25   H     H_    0.771318 0.224656 0.069969 0.104208
H26   H     H_    0.448062 0.050345 0.200851 0.144357
H27   H     H_    0.320871 0.035585 0.312048 0.176931
H28   H     H_    0.493518 0.275305 0.430286 0.125943
O11   O     O_R   0.775200 0.060470 0.937800 -0.559938
O12   O     O_R   0.441110 0.093720 0.087350 -0.598616
O13   O     O_R   0.266330 0.939630 0.062280 -0.594393
C65   C     C_R   0.609680 0.116624 0.115086 0.932879
O14   O     O_R   0.445750 0.069950 0.939820 -0.588217
O15   O     O_R   0.271000 0.915700 0.913700 -0.612787
C66   C     C_R   0.615178 0.083981 0.917272 1.003571
O16   O     O_R   0.770530 0.084400 0.086380 -0.594789
O17   O     O_3   0.602830 0.949510 0.991680 -0.282297
V3    V     V_3+5 0.329710 0.009370 0.001550 1.188037
O18   O     O_R   0.940990 0.906170 0.912570 -0.568468
C67   C     C_R   0.110516 0.883530 0.884907 0.993826
O19   O     O_R   0.936350 0.929940 0.060100 -0.605348
C68   C     C_R   0.104091 0.914738 0.081640 0.926131
V4    V     V_3+5 0.829160 0.990450 0.998310 1.203920
O20   O     O_3   0.105910 0.050480 0.008320 -0.261937
N1    N     N_R   0.666780 0.888367 0.294926 0.233521
O21   O     O_R   0.566639 0.894097 0.240991 -0.460542
O22   O     O_R   0.605527 0.925192 0.360077 -0.378068
N2    N     N_R   0.916941 0.059190 0.807824 0.225780
O23   O     O_R   0.094710 0.080009 0.825623 -0.450323
O24   O     O_R   0.867620 0.983219 0.786356 -0.439046
N3    N     N_R   0.082993 0.185871 0.613064 0.232512
O25   O     O_R   0.189177 0.245134 0.606679 -0.437399
O26   O     O_R   0.136697 0.112089 0.579944 -0.378216
C69   C     C_2   0.232849 0.743151 0.549825 0.565532
H29   H     H_    0.097207 0.710543 0.537926 -0.038062
O27   O     O_2   0.337766 0.745858 0.500071 -0.588104

loop_
_geom_bond_atom_site_label_1
_geom_bond_atom_site_label_2
_geom_bond_distance
_ccdc_geom_bond_type
C54   C55   1.416006 A    
C22   C23   1.407573 A    
O2    C1    1.295790 A    
C62   C63   1.389285 A    
C1    O6    1.297585 A    
C37   N2    1.432732 S    
C52   C53   1.389309 A    
C33   C34   1.403140 A    
C12   C15   1.418038 A    
C13   C14   1.436975 A    
C16   C17   1.378769 A    
O12   V3    2.004067 S    
C15   C16   1.382027 A    
C18   C69   1.474760 S    
O19   V4    1.994414 S    
O5    C3    1.295790 A    
C17   C18   1.403721 A    
O18   C67   1.301066 A    
C5    C6    1.392051 A    
C1    C49   1.479021 S    
O17   V4    1.706025 S    
O8    V2    1.994465 S    
C35   C40   1.400805 A    
C36   C66   1.487774 S    
C6    C7    1.386986 A    
C35   H15   1.084524 S    
C42   C43   1.417683 A    
C44   C45   1.416301 A    
C32   H11   1.078794 S    
C10   C14   1.425343 A    
C4    C14   1.493464 S    
C53   H24   1.082617 S    
O7    V1    2.151012 S    
O15   V3    2.002795 S    
O13   C68   1.297055 A    
C46   H19   1.083970 S    
C7    H4    1.082649 S    
C55   C56   1.426160 A    
C35   C36   1.405481 A    
O11   C66   1.298251 A    
C13   C18   1.437435 A    
C54   H25   1.081567 S    
C8    C9    1.417780 A    
H1    C17   1.083815 S    
C61   C62   1.393179 A    
C41   H16   1.082122 S    
C62   H27   1.082780 S    
C59   C64   1.416108 A    
C29   C34   1.404203 A    
C2    C60   1.490893 S    
C48   C49   1.404256 A    
C41   C42   1.402125 A    
C38   C41   1.406614 A    
C19   C20   1.406390 A    
C11   C12   1.421947 A    
C6    H3    1.083005 S    
C20   C21   1.407777 A    
O4    C2    1.298107 A    
C53   C54   1.393361 A    
C26   N1    1.439810 S    
C12   C13   1.431207 A    
C26   C27   1.423607 A    
C40   C47   1.403073 A    
C27   C32   1.414657 A    
V2    O10   2.156598 S    
C32   C33   1.405525 A    
C69   O27   1.221734 D    
C49   C50   1.401682 A    
N3    O26   1.302045 A    
O13   V3    1.995759 S    
C36   C37   1.416944 A    
C52   H23   1.082885 S    
C25   H10   1.084270 S    
C28   C29   1.414786 A    
C19   H8    1.084460 S    
V4    O20   2.156664 S    
C21   H9    1.084408 S    
C63   C64   1.393342 A    
C43   C48   1.408608 A    
C51   C52   1.392897 A    
C42   N3    1.438235 S    
C15   H6    1.075808 S    
N1    O21   1.299744 A    
O3    C4    1.295697 A    
O14   V3    1.999011 S    
O1    V2    2.002435 S    
C21   C22   1.405984 A    
C55   C57   1.419778 A    
C11   C67   1.490261 S    
O6    V2    1.993363 S    
O18   V4    2.003608 S    
C48   H17   1.079985 S    
O9    V2    2.003791 S    
C22   C25   1.400301 A    
C9    C11   1.415796 A    
C5    H2    1.080269 S    
C23   C24   1.414545 A    
N3    O25   1.300593 A    
O2    V1    1.999084 S    
O15   C67   1.291933 A    
C47   H20   1.083850 S    
C58   C59   1.426296 A    
C25   C26   1.406822 A    
N2    O24   1.301064 A    
O17   V3    2.150997 S    
C27   C28   1.420199 A    
C29   C30   1.404720 A    
O1    C2    1.294864 A    
C50   H18   1.084653 S    
C46   C47   1.396418 A    
O5    V1    1.995957 S    
O16   V4    2.008344 S    
C34   H12   1.084441 S    
C24   C31   1.402317 A    
C8    H5    1.080716 S    
C30   H13   1.083702 S    
C31   H14   1.083768 S    
C38   C39   1.412259 A    
C3    C20   1.486387 S    
O14   C66   1.298465 A    
C69   H29   1.082226 S    
O7    V2    1.707901 S    
C51   H22   1.081413 S    
O4    V1    2.004227 S    
O3    V1    2.002803 S    
V1    O10   1.703599 S    
O19   C68   1.299687 A    
C58   C61   1.416466 A    
C57   C58   1.419984 A    
C45   C50   1.403407 A    
O12   C65   1.298214 A    
C5    C10   1.420714 A    
H21   C63   1.082766 S    
C59   C60   1.419719 A    
C23   C28   1.416399 A    
C39   C40   1.411868 A    
C56   C60   1.419590 A    
C43   C44   1.416751 A    
N1    O22   1.301388 A    
C64   H28   1.081599 S    
C57   C65   1.491240 S    
C37   C38   1.416987 A    
C65   O16   1.295017 A    
C19   C24   1.407526 A    
C45   C46   1.402549 A    
C7    C8    1.391935 A    
C61   H26   1.081406 S    
C30   C31   1.398329 A    
C51   C56   1.416491 A    
C16   H7    1.083411 S    
C9    C10   1.423179 A    
O11   V4    1.993714 S    
O9    C4    1.300219 A    
V3    O20   1.703622 S    
C39   C44   1.415827 A    
O8    C3    1.302762 A    
N2    O23   1.300438 A    
C33   C68   1.484912 S    
