data_mof_unit_36709.cif
_audit_creation_date              2012-12-11T15:27:00-0500
_audit_creation_method            fapswitch 2.2
_symmetry_space_group_name_H-M    P1
_symmetry_Int_Tables_number       1
_space_group_crystal_system       triclinic
_cell_length_a                    13.808643
_cell_length_b                    13.939234
_cell_length_c                    27.4018
_cell_angle_alpha                 90.059629
_cell_angle_beta                  90.050174
_cell_angle_gamma                 119.709801
_cell_volume                      4581.01178502

loop_
_atom_site_label
_atom_site_type_symbol
_atom_type_description
_atom_site_fract_x
_atom_site_fract_y
_atom_site_fract_z
_atom_type_partial_charge
C1    C     C_R   0.233644 0.787364 0.568429 0.540318
C2    C     C_R   0.212453 0.446240 0.568480 0.544543
C3    C     C_R   0.553104 0.765563 0.568726 0.540143
C4    C     C_3   0.657660 0.733399 0.789170 -0.212547
C5    C     C_3   0.244192 0.953839 0.782107 -0.212165
C6    C     C_3   0.055625 0.312353 0.784700 -0.212013
C7    C     C_3   0.638078 0.721072 0.733297 -0.213140
C8    C     C_3   0.260330 0.939059 0.727325 -0.212929
C9    C     C_3   0.072745 0.346365 0.730198 -0.212947
C10   C     C_1   0.705186 0.861589 0.858965 -0.077665
C11   C     C_1   0.113570 0.880256 0.851206 -0.077408
C12   C     C_1   0.115448 0.232199 0.850909 -0.077964
C13   C     C_1   0.628784 0.814858 0.658460 -0.075304
C14   C     C_1   0.176414 0.819520 0.655554 -0.075523
C15   C     C_1   0.178581 0.358097 0.655679 -0.075476
C16   C     C_1   0.601387 0.796605 0.616283 -0.017251
C17   C     C_1   0.198630 0.806599 0.614573 -0.016267
C18   C     C_1   0.192822 0.392851 0.614683 -0.016008
C19   C     C_R   0.070303 0.161967 0.941603 0.540307
C20   C     C_R   0.779458 0.886891 0.948978 0.541995
C21   C     C_R   0.091202 0.928837 0.941766 0.537138
C22   C     C_R   0.599472 0.801018 0.382311 -0.000157
C23   C     C_R   0.189552 0.811547 0.386902 0.026374
C24   C     C_R   0.185470 0.372893 0.387836 0.027557
C25   C     C_R   0.551499 0.849880 0.353303 -0.141846
C26   C     C_R   0.089390 0.728242 0.366409 -0.144935
C27   C     C_R   0.272709 0.368214 0.363519 -0.154833
C28   C     C_R   0.575841 0.868924 0.303806 0.232589
C29   C     C_R   0.058861 0.737771 0.318556 0.240071
C30   C     C_R   0.255653 0.317592 0.317541 0.231709
C31   C     C_R   0.651588 0.841077 0.283485 0.026719
C32   C     C_R   0.131310 0.830960 0.291009 0.052691
C33   C     C_R   0.149740 0.271617 0.295640 0.049238
C34   C     C_R   0.232616 0.788012 0.431673 0.559466
C35   C     C_R   0.211567 0.444217 0.431492 0.567981
C36   C     C_R   0.552908 0.765910 0.431092 0.537741
C37   C     C_R   0.705016 0.798462 0.312695 -0.120196
C38   C     C_R   0.226329 0.917529 0.312939 -0.161476
C39   C     C_R   0.060510 0.267614 0.321608 -0.160375
C40   C     C_R   0.678821 0.777070 0.361994 0.078041
C41   C     C_R   0.254324 0.910282 0.360798 0.074797
C42   C     C_R   0.077106 0.317152 0.367504 0.084443
C43   C     C_R   0.654868 0.756444 0.205045 -0.119364
C44   C     C_R   0.140737 0.943095 0.219980 -0.133853
C45   C     C_R   0.039798 0.137438 0.229716 -0.136160
C46   C     C_R   0.680094 0.765391 0.155784 -0.119738
C47   C     C_R   0.148460 0.960215 0.170365 -0.115595
C48   C     C_R   0.018953 0.110675 0.180388 -0.164942
C49   C     C_R   0.726109 0.957765 0.157276 -0.144960
C50   C     C_R   0.087273 0.766737 0.156081 -0.141050
C51   C     C_R   0.184203 0.282583 0.158998 -0.116600
C52   C     C_R   0.702259 0.949123 0.206786 -0.069134
C53   C     C_R   0.086791 0.750874 0.206469 -0.063172
C54   C     C_R   0.205040 0.309627 0.208281 -0.072560
C55   C     C_R   0.669874 0.849303 0.230991 0.065520
C56   C     C_R   0.114110 0.839632 0.238680 0.067351
C57   C     C_R   0.132970 0.237310 0.244017 0.065034
C58   C     C_R   0.720864 0.867486 0.132281 0.012844
C59   C     C_R   0.121216 0.872546 0.138075 0.030312
C60   C     C_R   0.090481 0.183307 0.144925 0.010634
C61   C     C_R   0.066427 0.153247 0.093569 0.562147
C62   C     C_R   0.777565 0.884705 0.085774 0.544383
C63   C     C_R   0.115564 0.894055 0.086656 0.550496
C64   C     C_3   0.563742 0.853311 0.736474 -0.213267
C65   C     C_3   0.141529 0.733148 0.737447 -0.214942
C66   C     C_3   0.272928 0.391594 0.735942 -0.215374
C67   C     C_3   0.768492 0.924740 0.722573 -0.216241
C68   C     C_3   0.053429 0.846949 0.713365 -0.213880
C69   C     C_3   0.123988 0.200243 0.711960 -0.213564
C70   C     C_3   0.787643 0.937136 0.778537 -0.214660
C71   C     C_3   0.036084 0.862304 0.768077 -0.216356
C72   C     C_3   0.106924 0.166652 0.766438 -0.218710
C73   C     C_1   0.733016 0.872299 0.901120 -0.027000
C74   C     C_1   0.102975 0.900734 0.892836 -0.023032
C75   C     C_1   0.097028 0.201258 0.892572 -0.026886
C76   C     C_3   0.649936 0.828742 0.711234 0.072326
C77   C     C_3   0.157762 0.834126 0.707003 0.071868
C78   C     C_3   0.162500 0.324515 0.707027 0.072028
C79   C     C_3   0.583220 0.865461 0.792500 -0.215495
C80   C     C_3   0.123726 0.748983 0.792202 -0.212750
C81   C     C_3   0.255690 0.357508 0.790520 -0.212528
C82   C     C_3   0.683121 0.849661 0.806248 0.073252
C83   C     C_3   0.128743 0.861436 0.799796 0.072249
C84   C     C_3   0.133342 0.266690 0.799564 0.071760
Cr1   Cr    Cr6+3 0.164410 0.584450 0.499910 1.033261
Cr2   Cr    Cr6+3 0.415550 0.579960 0.499910 1.015303
Cr3   Cr    Cr6+3 0.420040 0.835590 0.499910 1.033802
Cr4   Cr    Cr6+3 0.156760 0.076070 0.017830 1.024527
Cr5   Cr    Cr6+3 0.923930 0.080690 0.017830 1.011301
Cr6   Cr    Cr6+3 0.919310 0.843240 0.017830 1.016622
H1    H     H_    0.599589 0.948586 0.804350 0.112871
H2    H     H_    0.041521 0.680527 0.804410 0.114774
H3    H     H_    0.313333 0.326658 0.800924 0.113099
H4    H     H_    0.477523 0.785383 0.728821 0.107949
H5    H     H_    0.215891 0.722446 0.733616 0.107092
H6    H     H_    0.302521 0.481591 0.732929 0.107351
H7    H     H_    0.506701 0.803083 0.811636 0.111445
H8    H     H_    0.189066 0.745218 0.814580 0.114553
H9    H     H_    0.276767 0.431026 0.813635 0.115398
H10   H     H_    0.728434 0.719948 0.798699 0.111200
H11   H     H_    0.252773 0.036409 0.788264 0.104835
H12   H     H_    0.966987 0.248528 0.790874 0.109097
H13   H     H_    0.489106 0.867008 0.368396 0.137157
H14   H     H_    0.037018 0.653609 0.386792 0.124124
H15   H     H_    0.355651 0.408213 0.379220 0.122099
H16   H     H_    0.627083 0.678176 0.223300 0.120828
H17   H     H_    0.159880 0.012305 0.243836 0.133232
H18   H     H_    0.983317 0.080422 0.256681 0.114902
H19   H     H_    0.674385 0.694490 0.136846 0.135258
H20   H     H_    0.173728 0.042316 0.157120 0.140466
H21   H     H_    0.948341 0.032443 0.169857 0.113610
H22   H     H_    0.713773 0.021343 0.226600 0.147663
H23   H     H_    0.068394 0.670692 0.220031 0.159830
H24   H     H_    0.275643 0.388504 0.218432 0.150302
H25   H     H_    0.757530 0.037246 0.139662 0.128688
H26   H     H_    0.064040 0.698008 0.131370 0.111511
H27   H     H_    0.239973 0.339665 0.131875 0.134388
H28   H     H_    0.764868 0.778788 0.296688 0.157124
H29   H     H_    0.282732 0.990318 0.292320 0.129018
H30   H     H_    0.978333 0.230762 0.305179 0.112564
H31   H     H_    0.570637 0.930640 0.721484 0.113113
H32   H     H_    0.068294 0.656399 0.723525 0.112581
H33   H     H_    0.338936 0.377192 0.720206 0.113182
H34   H     H_    0.832116 0.908766 0.705314 0.108648
H35   H     H_    0.063344 0.919538 0.692306 0.110102
H36   H     H_    0.044481 0.150074 0.691705 0.110704
H37   H     H_    0.779310 0.003272 0.707130 0.111927
H38   H     H_    0.978372 0.772630 0.698897 0.112874
H39   H     H_    0.187227 0.182258 0.695786 0.111804
H40   H     H_    0.807986 0.021768 0.789967 0.109444
H41   H     H_    0.952721 0.795221 0.779923 0.109041
H42   H     H_    0.162163 0.133089 0.776373 0.107849
H43   H     H_    0.860160 0.926879 0.788081 0.101191
H44   H     H_    0.036727 0.941322 0.773123 0.099413
H45   H     H_    0.019368 0.100828 0.772195 0.101662
H46   H     H_    0.553314 0.650487 0.725616 0.110957
H47   H     H_    0.337089 0.932820 0.722491 0.111145
H48   H     H_    0.098518 0.435507 0.727083 0.110191
H49   H     H_    0.699381 0.701643 0.716107 0.112419
H50   H     H_    0.272541 0.013141 0.706805 0.113031
H51   H     H_    0.992293 0.298853 0.710290 0.114393
H52   H     H_    0.582394 0.668741 0.808247 0.113426
H53   H     H_    0.311448 0.951448 0.803582 0.115886
H54   H     H_    0.073322 0.385134 0.807706 0.117053
O1    O     O_R   0.137310 0.468260 0.552980 -0.507872
O2    O     O_R   0.531740 0.669050 0.552980 -0.509996
O3    O     O_R   0.330950 0.862690 0.552980 -0.507068
O4    O     O_R   0.180530 0.983530 0.965090 -0.502210
O5    O     O_R   0.016470 0.197000 0.965090 -0.484797
O6    O     O_R   0.803000 0.819470 0.965090 -0.512051
O7    O     O_R   0.174120 0.688790 0.549730 -0.501071
O8    O     O_R   0.311210 0.485330 0.549730 -0.498987
O9    O     O_R   0.514670 0.825880 0.549730 -0.496817
O10   O     O_R   0.139940 0.470480 0.446230 -0.468714
O11   O     O_R   0.529520 0.669460 0.446230 -0.520519
O12   O     O_R   0.330540 0.860060 0.446230 -0.471319
O13   O     O_R   0.176560 0.690850 0.450770 -0.517382
O14   O     O_R   0.309150 0.485710 0.450770 -0.516054
O15   O     O_R   0.514290 0.823440 0.450770 -0.505583
O16   O     O_3   0.333333 0.666667 0.499990 -0.271628
O17   O     O_3   0.000000 0.000000 0.017910 -0.290805
O18   O     O_R   0.149710 0.171070 0.967700 -0.491924
O19   O     O_R   0.828930 0.978640 0.967700 -0.518355
O20   O     O_R   0.021360 0.850290 0.967700 -0.482818
O21   O     O_R   0.178510 0.985930 0.071830 -0.518248
O22   O     O_R   0.014070 0.192580 0.071830 -0.489129
O23   O     O_R   0.807420 0.821490 0.071830 -0.510063
O24   O     O_R   0.147830 0.173300 0.066650 -0.484156
O25   O     O_R   0.826700 0.974530 0.066650 -0.520355
O26   O     O_R   0.025470 0.852170 0.066650 -0.484332
O27   O     O_3   0.521882 0.908032 0.274203 -0.704042
H55   H     H_    0.469913 0.921439 0.294185 0.317978
O28   O     O_3   0.960478 0.657187 0.298036 -0.711985
H56   H     H_    0.919644 0.598101 0.322399 0.323896
O29   O     O_3   0.341252 0.314022 0.293054 -0.715284
H57   H     H_    0.409638 0.349734 0.313414 0.321427
N1    N     N_3   0.733533 0.731347 0.390214 -0.619035
H58   H     H_    0.674698 0.651257 0.400682 0.255913
H59   H     H_    0.767025 0.779627 0.421540 0.235398
N2    N     N_3   0.351031 0.002260 0.381762 -0.589516
H60   H     H_    0.340003 0.071217 0.380405 0.237256
H61   H     H_    0.420112 0.018949 0.360236 0.219735
N3    N     N_3   0.983949 0.312796 0.392544 -0.591720
H62   H     H_    0.923805 0.229779 0.397273 0.227289
H63   H     H_    0.949564 0.349103 0.370233 0.229836

loop_
_geom_bond_atom_site_label_1
_geom_bond_atom_site_label_2
_ccdc_geom_bond_type
C58   C62   S    
C15   C18   T    
O27   H55   S    
Cr6   O23   S    
C2    C18   S    
C24   C42   A    
C41   N2    S    
C35   O10   A    
C70   H40   S    
Cr6   O6    S    
C67   H34   S    
C6    C9    S    
O28   H56   S    
C25   C28   A    
C45   C57   A    
C33   C39   A    
Cr3   O3    S    
C50   C59   A    
Cr1   O1    S    
C37   C40   A    
Cr2   O8    S    
C4    C7    S    
C4    H52   S    
C5    C83   S    
C10   C73   T    
C23   C26   A    
C15   C78   S    
Cr5   O19   S    
C52   H22   S    
C39   H30   S    
C3    O9    A    
Cr3   O16   S    
C12   C84   S    
C45   H18   S    
C61   O22   A    
C14   C77   S    
C36   O15   A    
C26   H14   S    
C37   H28   S    
N2    H61   S    
N1    H59   S    
C22   C25   A    
C70   H43   S    
C24   C27   A    
C72   H42   S    
Cr1   O16   S    
C32   C38   A    
C68   H38   S    
C79   H1    S    
C44   C47   A    
Cr1   O10   S    
C49   C52   A    
Cr5   O5    S    
C62   O23   A    
C21   O20   A    
C46   C58   A    
C27   C30   A    
C32   C56   S    
C64   H4    S    
C14   C17   T    
C69   C78   S    
Cr1   O13   S    
C71   H44   S    
C80   C83   S    
Cr2   O2    S    
Cr5   O17   S    
C53   H23   S    
C64   H31   S    
C48   C60   A    
C39   C42   A    
C71   C83   S    
C2    O8    A    
C66   C78   S    
C5    H11   S    
C24   C35   S    
C6    C84   S    
Cr6   O17   S    
C50   C53   A    
C21   O4    A    
C65   C77   S    
C38   C41   A    
C9    H51   S    
C25   H13   S    
C63   O26   A    
C81   H9    S    
C11   C83   S    
C20   O19   A    
C71   H41   S    
C21   C74   S    
C10   C82   S    
C49   C58   A    
C31   C37   A    
Cr6   O20   S    
C60   C61   S    
C2    O1    A    
C19   O18   A    
C80   H2    S    
C69   C72   S    
Cr2   O11   S    
Cr1   O7    S    
N3    H62   S    
C67   H37   S    
C5    C8    S    
C44   H17   S    
C81   H3    S    
C9    H48   S    
C44   C56   A    
C28   O27   S    
O29   H57   S    
C13   C76   S    
C63   O21   A    
C23   C34   S    
C22   C40   A    
Cr6   O26   S    
Cr3   O9    S    
C64   C76   S    
C65   H32   S    
Cr2   O14   S    
C72   C84   S    
C26   C29   A    
C38   H29   S    
C43   C55   A    
C49   H25   S    
C69   H36   S    
Cr4   O21   S    
C4    H10   S    
C8    C77   S    
C51   H27   S    
C64   C79   S    
C1    O3    A    
C6    H54   S    
Cr3   O15   S    
C30   O29   S    
C81   C84   S    
N2    H60   S    
C66   H6    S    
C45   C48   A    
C68   C77   S    
C62   O25   A    
C33   C57   S    
C30   C33   A    
C80   H8    S    
Cr3   O12   S    
C1    C17   S    
C79   H7    S    
C28   C31   A    
C29   O28   S    
C72   H45   S    
C11   C74   T    
C79   C82   S    
C52   C55   A    
C7    C76   S    
C51   C60   A    
C34   O12   A    
C42   N3    S    
C29   C32   A    
C47   H20   S    
C22   C36   S    
C59   C63   S    
C23   C41   A    
C8    H50   S    
C51   C54   A    
C67   C70   S    
N3    H63   S    
C13   C16   T    
C35   O14   A    
Cr5   O25   S    
C7    H46   S    
C66   C81   S    
C7    H49   S    
Cr4   O4    S    
C61   O24   A    
C68   C71   S    
Cr4   O18   S    
Cr4   O24   S    
C54   H24   S    
C19   C75   S    
C19   O5    A    
C20   O6    A    
C20   C73   S    
C1    O7    A    
C50   H26   S    
C9    C78   S    
C6    H12   S    
C70   C82   S    
C43   C46   A    
C53   C56   A    
Cr5   O22   S    
C5    H53   S    
C12   C75   T    
C47   C59   A    
C40   N1    S    
C34   O13   A    
C65   H5    S    
C48   H21   S    
C4    C82   S    
C3    O2    A    
C69   H39   S    
N1    H58   S    
C46   H19   S    
C65   C80   S    
C27   H15   S    
C66   H33   S    
C8    H47   S    
C67   C76   S    
C31   C55   S    
Cr2   O16   S    
C68   H35   S    
C43   H16   S    
C3    C16   S    
Cr4   O17   S    
C36   O11   A    
C54   C57   A    
