data_mof_unit_41951.cif
_audit_creation_date              2012-12-10T18:02:51-0500
_audit_creation_method            fapswitch 2.2
_symmetry_space_group_name_H-M    P1
_symmetry_Int_Tables_number       1
_space_group_crystal_system       triclinic
_cell_length_a                    10.827015
_cell_length_b                    9.508761
_cell_length_c                    27.835612
_cell_angle_alpha                 90.024835
_cell_angle_beta                  90.228044
_cell_angle_gamma                 90.023616
_cell_volume                      2865.69473949

loop_
_atom_site_label
_atom_site_type_symbol
_atom_type_description
_atom_site_fract_x
_atom_site_fract_y
_atom_site_fract_z
_atom_type_partial_charge
C1    C     C_R   0.262035 0.499983 0.499965 0.795194
C2    C     C_R   0.737965 0.500017 0.500036 0.795225
C3    C     C_R   0.491459 0.497949 0.102036 -0.062966
C4    C     C_R   0.505919 0.498483 0.897844 -0.062598
C5    C     C_R   0.381818 0.534470 0.127134 -0.083292
C6    C     C_R   0.618585 0.476148 0.872836 -0.084337
C7    C     C_R   0.273353 0.569011 0.100259 0.138970
C8    C     C_R   0.729210 0.453122 0.899805 0.139429
C9    C     C_R   0.598480 0.459877 0.128140 -0.006109
C10   C     C_R   0.395546 0.519921 0.871637 -0.005914
C11   C     C_R   0.498030 0.499715 0.354505 -0.040019
C12   C     C_R   0.501723 0.500040 0.645481 -0.039611
C13   C     C_R   0.389275 0.524829 0.973318 0.064619
C14   C     C_R   0.606503 0.464903 0.026528 0.064275
C15   C     C_R   0.611483 0.473368 0.975463 -0.010788
C16   C     C_R   0.387486 0.532051 0.024472 -0.010820
C17   C     C_R   0.502370 0.498791 0.948999 0.071433
C18   C     C_R   0.494960 0.498260 0.050888 0.071702
C19   C     C_R   0.280770 0.540547 0.945448 -0.212788
C20   C     C_R   0.709252 0.421192 0.054223 -0.215825
C21   C     C_R   0.284313 0.539482 0.895801 -0.157796
C22   C     C_R   0.705428 0.420190 0.103867 -0.157467
C23   C     C_R   0.499598 0.499956 0.407420 0.804678
C24   C     C_R   0.500374 0.500024 0.592575 0.804523
C25   C     C_R   0.280853 0.572511 0.049903 -0.190986
C26   C     C_R   0.723224 0.457998 0.950201 -0.190619
C27   C     C_R   0.063816 0.372169 0.499982 -0.177393
C28   C     C_R   0.936184 0.627831 0.500021 -0.177372
C29   C     C_R   0.936083 0.372188 0.500037 -0.177139
C30   C     C_R   0.063917 0.627812 0.499966 -0.177121
C31   C     C_R   0.871788 0.500020 0.500042 -0.019049
C32   C     C_R   0.128212 0.499980 0.499960 -0.019045
C33   C     C_R   0.422858 0.074381 0.470204 -0.025003
C34   C     C_R   0.577144 0.925620 0.529795 -0.025146
C35   C     C_R   0.577143 0.074527 0.529796 -0.024631
C36   C     C_R   0.422857 0.925474 0.470204 -0.024982
C37   C     C_R   0.386669 0.535666 0.178311 0.522540
C38   C     C_R   0.614953 0.479662 0.821653 0.522052
C39   C     C_R   0.596658 0.460450 0.178318 0.531790
C40   C     C_R   0.397641 0.519494 0.821460 0.532194
C41   C     C_R   0.496731 0.371698 0.278989 -0.106927
C42   C     C_R   0.493778 0.626915 0.721152 -0.104171
C43   C     C_R   0.498772 0.371932 0.329068 -0.216111
C44   C     C_R   0.492420 0.627134 0.671055 -0.216536
C45   C     C_R   0.495090 0.627115 0.328898 -0.218271
C46   C     C_R   0.512846 0.372956 0.670942 -0.215130
C47   C     C_R   0.492968 0.626549 0.278800 -0.101025
C48   C     C_R   0.514705 0.373140 0.721029 -0.107000
C49   C     C_R   0.493787 0.498902 0.253709 0.368584
C50   C     C_R   0.504995 0.499999 0.746237 0.373230
Cu1   Cu    Cu3+1 0.500000 0.640660 0.500000 0.947277
Cu2   Cu    Cu3+1 0.500000 0.359340 0.500000 0.947468
H1    H     H_    0.494332 0.727148 0.347511 0.156948
H2    H     H_    0.520487 0.273496 0.652218 0.155685
H3    H     H_    0.361098 0.130523 0.446346 0.119001
H4    H     H_    0.638909 0.869478 0.553651 0.119800
H5    H     H_    0.638903 0.130786 0.553655 0.118516
H6    H     H_    0.361095 0.869216 0.446346 0.119304
H7    H     H_    0.491020 0.725230 0.259410 0.138918
H8    H     H_    0.523252 0.274744 0.740326 0.134711
H9    H     H_    0.483753 0.726611 0.652415 0.157865
H10   H     H_    0.500865 0.272155 0.347800 0.157506
H11   H     H_    0.486331 0.725275 0.740543 0.136163
H12   H     H_    0.497223 0.272695 0.259750 0.138275
H13   H     H_    0.198393 0.553701 0.876320 0.189320
H14   H     H_    0.787450 0.387102 0.123228 0.188216
H15   H     H_    0.190105 0.550595 0.960692 0.132970
H16   H     H_    0.793911 0.383011 0.038798 0.136405
H17   H     H_    0.202477 0.611655 0.030677 0.157302
H18   H     H_    0.808386 0.453917 0.969727 0.156428
H19   H     H_    0.111839 0.272245 0.499962 0.149793
H20   H     H_    0.888162 0.727755 0.500040 0.149768
H21   H     H_    0.887982 0.272269 0.500069 0.149807
H22   H     H_    0.112018 0.727731 0.499934 0.149790
N1    N     N_R   0.492301 0.498341 0.202157 -0.459941
N2    N     N_R   0.505905 0.499766 0.797749 -0.460821
N3    N     N_R   0.500000 0.852070 0.500000 -0.157258
N4    N     N_R   0.500000 0.147930 0.500000 -0.156977
O1    O     O_R   0.319640 0.618740 0.500000 -0.588085
O2    O     O_R   0.680360 0.381260 0.500000 -0.588039
O3    O     O_R   0.680360 0.618740 0.500000 -0.587813
O4    O     O_R   0.319640 0.381260 0.500000 -0.587772
O5    O     O_R   0.500020 0.618770 0.430260 -0.584134
O6    O     O_R   0.499980 0.381230 0.569740 -0.583977
O7    O     O_R   0.499980 0.618770 0.569740 -0.584398
O8    O     O_R   0.500020 0.381230 0.430260 -0.584414
O9    O     O_2   0.288064 0.574136 0.204571 -0.568156
O10   O     O_2   0.718500 0.465492 0.795434 -0.565083
O11   O     O_2   0.291965 0.538180 0.796328 -0.539788
O12   O     O_2   0.699086 0.424735 0.203321 -0.542164
C51   C     C_3   0.149617 0.599857 0.124785 -0.301726
C52   C     C_3   0.035838 0.617887 0.092382 -0.906436
H23   H     H_    0.043879 0.714722 0.070316 0.254781
H24   H     H_    0.022976 0.524320 0.068957 0.250192
H25   H     H_    0.952214 0.628784 0.115074 0.266693
H26   H     H_    0.127532 0.510220 0.148874 0.245800
H27   H     H_    0.158836 0.697580 0.146402 0.241895
C53   C     C_3   0.852747 0.421548 0.875304 -0.298968
C54   C     C_3   0.962248 0.383389 0.907779 -0.914911
H28   H     H_    0.989735 0.474977 0.930123 0.243113
H29   H     H_    0.939276 0.291973 0.930926 0.260663
H30   H     H_    0.042458 0.353860 0.885179 0.265643
H31   H     H_    0.839541 0.329773 0.851094 0.243296
H32   H     H_    0.880878 0.514652 0.853855 0.245100

loop_
_geom_bond_atom_site_label_1
_geom_bond_atom_site_label_2
_ccdc_geom_bond_type
C33   H3    S    
C34   H4    S    
C5    C37   A    
C27   C29   A    
C8    C26   A    
C14   C18   A    
Cu1   O7    S    
C47   C49   A    
C38   N2    A    
C23   O5    A    
C19   C21   A    
C36   H6    S    
C36   N3    A    
C34   N3    A    
C30   H22   S    
C53   H32   S    
C9    C22   A    
C29   H21   S    
C53   H31   S    
C9    C39   A    
C33   C36   A    
C3    C18   A    
C10   C40   A    
C34   C35   A    
Cu2   O6    S    
C8    C53   S    
C22   H14   S    
C51   H26   S    
C23   O8    A    
C49   N1    S    
C19   H15   S    
C39   N1    A    
C40   O11   S    
C24   O7    A    
Cu1   O3    S    
C39   O12   S    
C48   C50   A    
C37   N1    A    
C45   H1    S    
C41   C43   A    
C28   H20   S    
C42   C44   A    
Cu2   O8    S    
Cu2   N4    S    
C41   C49   A    
C20   H16   S    
C48   H8    S    
C45   C47   A    
C10   C21   A    
C46   C48   A    
C11   C43   A    
C13   C19   A    
Cu1   Cu2   S    
C14   C20   A    
C12   C46   A    
C51   C52   S    
C5    C7    A    
C15   C26   A    
C6    C8    A    
C1    O4    A    
C52   H25   S    
C40   N2    A    
C38   O10   S    
C2    C31   S    
Cu1   N3    S    
C3    C9    A    
C50   N2    S    
C54   H28   S    
C7    C51   S    
C46   H2    S    
C52   H24   S    
C51   H27   S    
Cu2   O4    S    
C42   C50   A    
C4    C17   A    
C4    C6    A    
C54   H29   S    
C20   C22   A    
C26   H18   S    
C11   C45   A    
C25   H17   S    
C4    C10   A    
Cu1   O5    S    
C27   H19   S    
C16   C25   A    
C15   C17   A    
C21   H13   S    
C27   C32   A    
C37   O9    S    
C28   C31   A    
C3    C5    A    
C44   H9    S    
C12   C24   S    
C35   N4    A    
C7    C25   A    
C13   C17   A    
C35   H5    S    
C28   C30   A    
C24   O6    A    
C29   C31   A    
C30   C32   A    
C1    O1    A    
C11   C23   S    
C52   H23   S    
C1    C32   S    
C33   N4    A    
Cu1   O1    S    
C2    O2    A    
C47   H7    S    
C54   H30   S    
C16   C18   A    
C53   C54   S    
C13   C16   A    
C14   C15   A    
C12   C44   A    
C2    O3    A    
C41   H12   S    
C6    C38   A    
Cu2   O2    S    
C42   H11   S    
C43   H10   S    
