data_mof_unit_65906.cif
_audit_creation_date              2012-12-10T20:47:37-0500
_audit_creation_method            fapswitch 2.2
_symmetry_space_group_name_H-M    P1
_symmetry_Int_Tables_number       1
_space_group_crystal_system       triclinic
_cell_length_a                    17.920524
_cell_length_b                    19.21008
_cell_length_c                    19.202393
_cell_angle_alpha                 94.758442
_cell_angle_beta                  99.24816
_cell_angle_gamma                 103.380218
_cell_volume                      6297.59869809

loop_
_atom_site_label
_atom_site_type_symbol
_atom_type_description
_atom_site_fract_x
_atom_site_fract_y
_atom_site_fract_z
_atom_type_partial_charge
C1    C     C_R   0.491611 0.507112 0.688178 0.514061
C2    C     C_R   0.921714 0.445460 0.428027 -0.132770
C3    C     C_R   0.962079 0.407819 0.389610 -0.127718
C4    C     C_R   0.507271 0.493569 0.311791 0.509629
C5    C     C_R   0.042640 0.420397 0.408043 0.049003
C6    C     C_R   0.084653 0.473073 0.465979 0.034387
C7    C     C_R   0.081747 0.380948 0.368324 -0.125033
C8    C     C_R   0.162413 0.393075 0.385272 -0.123390
C9    C     C_R   0.166212 0.483032 0.482808 -0.117111
C10   C     C_R   0.504459 0.486586 0.234395 0.004315
C11   C     C_R   0.449786 0.513039 0.190232 -0.126623
C12   C     C_R   0.840593 0.614177 0.608598 -0.126443
C13   C     C_R   0.443662 0.503877 0.116567 0.123540
C14   C     C_R   0.494028 0.468870 0.086146 0.234100
C15   C     C_R   0.547378 0.441181 0.129976 -0.130853
C16   C     C_R   0.491677 0.309086 0.490839 0.504388
C17   C     C_R   0.552988 0.450229 0.203626 -0.156764
C18   C     C_R   0.474514 0.447229 0.867818 -0.094575
C19   C     C_R   0.471600 0.446010 0.794748 -0.167799
C20   C     C_R   0.495955 0.513555 0.912321 0.215866
C21   C     C_R   0.490445 0.510538 0.764784 0.030515
C22   C     C_R   0.510075 0.577057 0.809145 0.007276
C23   C     C_R   0.837340 0.518671 0.516885 -0.128331
C24   C     C_R   0.512489 0.577782 0.882192 -0.091112
C25   C     C_R   0.508314 0.768175 0.514998 0.027508
C26   C     C_R   0.471951 0.795488 0.456863 -0.149358
C27   C     C_R   0.469422 0.867514 0.461955 -0.090192
C28   C     C_R   0.508007 0.691321 0.509538 0.511178
C29   C     C_R   0.503288 0.913857 0.525680 0.223919
C30   C     C_R   0.538587 0.886312 0.583975 -0.109350
C31   C     C_R   0.541858 0.814141 0.578617 -0.145924
C32   C     C_R   0.463863 0.118545 0.536458 -0.090968
C33   C     C_R   0.461965 0.190970 0.538984 -0.151182
C34   C     C_R   0.919392 0.535431 0.527890 0.030350
C35   C     C_R   0.492014 0.086099 0.480918 0.224569
C36   C     C_R   0.489022 0.231895 0.486785 0.032442
C37   C     C_R   0.515842 0.199003 0.431028 -0.144603
C38   C     C_R   0.516261 0.126459 0.427764 -0.109017
C39   C     C_R   0.288492 0.459298 0.459047 0.499612
C40   C     C_R   0.712272 0.540056 0.540072 0.506896
C41   C     C_R   0.797987 0.558017 0.555921 0.019571
C42   C     C_R   0.204186 0.443932 0.442517 0.042538
C43   C     C_R   0.921777 0.630466 0.622138 -0.130777
C44   C     C_R   0.961391 0.591498 0.582525 0.050978
C45   C     C_R   0.960662 0.497608 0.486937 0.034121
C46   C     C_R   0.043719 0.513425 0.504718 0.035730
C47   C     C_R   0.083030 0.569750 0.559815 -0.129838
C48   C     C_R   0.042497 0.608203 0.597375 -0.126486
Cl1   Cl    Cl    0.528863 0.660936 0.775788 -0.068131
H1    H     H_    0.075083 0.651198 0.638859 0.113939
H2    H     H_    0.202417 0.520564 0.526760 0.095406
H3    H     H_    0.443027 0.087974 0.577412 0.137713
H4    H     H_    0.564235 0.921091 0.633465 0.124664
H5    H     H_    0.569489 0.794087 0.624463 0.141933
H6    H     H_    0.536247 0.229336 0.389727 0.135327
H7    H     H_    0.440283 0.886653 0.416272 0.140829
H8    H     H_    0.536912 0.101801 0.384282 0.123520
H9    H     H_    0.445219 0.761121 0.407320 0.142890
H10   H     H_    0.192281 0.363060 0.353771 0.112177
H11   H     H_    0.929745 0.368420 0.344859 0.111077
H12   H     H_    0.049910 0.341062 0.323831 0.113287
H13   H     H_    0.953692 0.673688 0.663613 0.113398
H14   H     H_    0.811256 0.645297 0.639502 0.141380
H15   H     H_    0.802159 0.474319 0.478988 0.129340
H16   H     H_    0.145572 0.586817 0.574768 0.109106
H17   H     H_    0.859804 0.433154 0.408615 0.106713
H18   H     H_    0.456189 0.394394 0.761741 0.135687
H19   H     H_    0.460168 0.396387 0.889150 0.146549
H20   H     H_    0.585433 0.413353 0.106937 0.127245
H21   H     H_    0.595008 0.428521 0.236362 0.143417
H22   H     H_    0.527437 0.628888 0.916027 0.137174
H23   H     H_    0.410432 0.539632 0.212710 0.162102
H24   H     H_    0.440902 0.215298 0.582373 0.133390
I1    I     I_    0.353443 0.539399 0.054842 -0.339918
N1    N     N_2   0.491592 0.460105 0.011947 -0.238058
N2    N     N_2   0.499896 0.518741 0.987080 -0.200282
N3    N     N_2   0.501737 0.987666 0.533071 -0.245700
N4    N     N_2   0.494591 0.012746 0.475181 -0.248885
O1    O     O_3   0.500000 0.500000 0.500000 -0.439469
O2    O     O_R   0.321500 0.427480 0.506110 -0.535844
O3    O     O_R   0.674970 0.575130 0.575140 -0.545378
O4    O     O_R   0.328550 0.507430 0.428780 -0.537145
O5    O     O_R   0.674980 0.489960 0.489960 -0.546377
O6    O     O_R   0.540930 0.349770 0.460420 -0.545752
O7    O     O_R   0.550820 0.667300 0.556650 -0.543001
O8    O     O_R   0.445640 0.455160 0.644460 -0.543264
O9    O     O_R   0.462610 0.527770 0.338470 -0.545767
O10   O     O_R   0.540910 0.554790 0.665460 -0.530514
O11   O     O_R   0.550840 0.462270 0.351610 -0.544610
O12   O     O_R   0.445650 0.335310 0.524600 -0.544620
O13   O     O_R   0.462600 0.647620 0.458330 -0.542161
Zn1   Zn    Zn3+2 0.565550 0.451340 0.451340 0.932315
Zn2   Zn    Zn3+2 0.429430 0.430690 0.543050 0.941306
Zn3   Zn    Zn3+2 0.439490 0.544930 0.432570 0.944099
Zn4   Zn    Zn3+2 0.565540 0.573040 0.573050 0.948616

loop_
_geom_bond_atom_site_label_1
_geom_bond_atom_site_label_2
_ccdc_geom_bond_type
C25   C31   A    
C1    C21   S    
O4    Zn3   S    
C27   C29   A    
C11   C13   A    
C9    H2    S    
N1    N2    D    
C6    C9    A    
C7    C8    A    
C4    O9    A    
N3    N4    D    
C25   C28   S    
C16   O12   A    
O5    Zn1   S    
C26   C27   A    
C29   C30   A    
C36   C37   A    
C19   C21   A    
C37   C38   A    
C8    C42   A    
O1    Zn2   S    
C12   C43   A    
C8    H10   S    
C5    C6    A    
O3    Zn4   S    
C10   C17   A    
C18   H19   S    
O9    Zn3   S    
C16   O6    A    
C33   C36   A    
C20   N2    S    
C18   C19   A    
C32   H3    S    
C7    H12   S    
C20   C24   A    
C19   H18   S    
C3    H11   S    
C1    O10   A    
C48   H1    S    
O10   Zn4   S    
C17   H21   S    
C13   C14   A    
C40   O5    A    
C39   C42   S    
C2    C45   A    
C15   H20   S    
C30   H4    S    
C32   C35   A    
C35   C38   A    
C34   C44   A    
O1    Zn3   S    
C5    C7    A    
C12   H14   S    
C27   H7    S    
C3    C5    A    
C25   C26   A    
C45   C46   A    
C43   C44   A    
O1    Zn4   S    
C12   C41   A    
O8    Zn2   S    
C38   H8    S    
C47   C48   A    
C23   C34   A    
C9    C42   A    
C34   C45   A    
O11   Zn1   S    
C26   H9    S    
O1    Zn1   S    
C22   Cl1   S    
C33   H24   S    
C23   H15   S    
C22   C24   A    
C4    C10   S    
O12   Zn2   S    
C4    O11   A    
C1    O8    A    
C15   C17   A    
C46   C47   A    
C40   C41   S    
C6    C46   A    
C11   H23   S    
C40   O3    A    
C39   O4    A    
C2    H17   S    
C39   O2    A    
C35   N4    S    
C23   C41   A    
C32   C33   A    
C2    C3    A    
C14   N1    S    
O13   Zn3   S    
O7    Zn4   S    
C30   C31   A    
C28   O13   A    
C18   C20   A    
C31   H5    S    
C10   C11   A    
C37   H6    S    
C29   N3    S    
C13   I1    S    
C43   H13   S    
C28   O7    A    
C14   C15   A    
O6    Zn1   S    
O2    Zn2   S    
C21   C22   A    
C47   H16   S    
C16   C36   S    
C44   C48   A    
C24   H22   S    
