data_mof_unit_19926.cif
_audit_creation_date              2012-10-26T18:31:58-0400
_audit_creation_method            fapswitch 2.2
_symmetry_space_group_name_H-M    P1
_symmetry_Int_Tables_number       1
_space_group_crystal_system       triclinic
_cell_length_a                    12.561844
_cell_length_b                    13.289023
_cell_length_c                    14.333032
_cell_angle_alpha                 95.01617
_cell_angle_beta                  108.614724
_cell_angle_gamma                 117.555031
_cell_volume                      1929.99343639

loop_
_atom_site_label
_atom_site_type_symbol
_atom_type_description
_atom_site_fract_x
_atom_site_fract_y
_atom_site_fract_z
_atom_type_partial_charge
C1    C     C_R   0.648235 0.713231 0.505209 0.534342
C2    C     C_R   0.177949 0.447793 0.995518 0.066492
C3    C     C_R   0.137424 0.475373 0.071390 0.018967
C4    C     C_R   0.613552 0.509415 0.685291 0.554635
C5    C     C_R   0.275499 0.415630 0.025262 0.001201
C6    C     C_R   0.337443 0.425199 0.129058 -0.130610
C7    C     C_R   0.223250 0.512371 0.175747 -0.024273
C8    C     C_R   0.168364 0.953645 0.404714 -0.136845
C9    C     C_R   0.257795 0.160644 0.476950 -0.005652
C10   C     C_R   0.714991 0.924576 0.544399 -0.142171
C11   C     C_R   0.808015 0.042543 0.564498 -0.150272
C12   C     C_R   0.835581 0.474046 0.912214 0.048390
C13   C     C_R   0.918892 0.073637 0.544863 -0.125258
C14   C     C_R   0.934596 0.986402 0.496772 0.007666
C15   C     C_R   0.830216 0.866744 0.463949 0.022148
C16   C     C_R   0.347707 0.285343 0.488199 0.536948
C17   C     C_R   0.047850 0.014700 0.476763 0.004163
C18   C     C_R   0.055272 0.923894 0.424052 0.033068
C19   C     C_R   0.946591 0.807087 0.385499 0.029159
C20   C     C_R   0.829084 0.783311 0.393670 0.133182
C21   C     C_R   0.154183 0.131483 0.507028 -0.135961
C22   C     C_R   0.267182 0.070975 0.429156 -0.141697
C23   C     C_R   0.791171 0.490856 0.988052 0.055729
C24   C     C_R   0.728826 0.835375 0.500607 -0.020451
C25   C     C_R   0.264187 0.724360 0.618570 -0.008393
C26   C     C_R   0.646461 0.322615 0.381335 0.085821
C27   C     C_R   0.714987 0.265898 0.380874 0.055818
C28   C     C_R   0.382731 0.485083 0.313405 0.529938
C29   C     C_R   0.851012 0.328577 0.436141 -0.139570
C30   C     C_R   0.923333 0.452308 0.481004 -0.054050
C31   C     C_R   0.846514 0.500544 0.495106 0.182437
C32   C     C_R   0.067054 0.526915 0.521356 -0.027861
C33   C     C_R   0.126972 0.646259 0.576933 -0.005764
C34   C     C_R   0.952723 0.470058 0.940261 0.022975
C35   C     C_R   0.050821 0.686002 0.598182 -0.163341
C36   C     C_R   0.917457 0.613804 0.567966 0.120502
C37   C     C_R   0.154558 0.493383 0.503960 0.127047
C38   C     C_R   0.344237 0.677980 0.619439 0.161029
C39   C     C_R   0.671439 0.500688 0.789259 -0.001468
C40   C     C_R   0.314993 0.475791 0.204861 -0.009612
C41   C     C_R   0.693497 0.520637 0.965103 -0.137215
C42   C     C_R   0.640679 0.533137 0.868209 -0.180476
C43   C     C_R   0.757427 0.456244 0.809948 0.077206
C44   C     C_3   0.306196 0.358203 0.950172 -0.399764
C45   C     C_R   0.015524 0.470671 0.041127 -0.007806
C46   C     C_3   0.952821 0.708456 0.331066 -0.371802
C47   C     C_3   0.487689 0.752783 0.692337 -0.329519
C48   C     C_3   0.236933 0.611379 0.249862 -0.375370
C49   C     C_3   0.324524 0.856404 0.664284 -0.419660
C50   C     C_3   0.097140 0.381788 0.420793 -0.328755
C51   C     C_3   0.180241 0.468896 0.817859 -0.398181
C52   C     C_R   0.951727 0.460308 0.108057 -0.121074
C53   C     C_R   0.841818 0.472551 0.083301 0.092285
C54   C     C_R   0.015156 0.476229 0.873177 -0.093973
C55   C     C_R   0.121565 0.458840 0.896313 -0.002592
Cu1   Cu    Cu3+1 0.416420 0.526630 0.522910 0.893344
Cu2   Cu    Cu3+1 0.583580 0.473370 0.477090 0.917849
H1    H     H_    0.348120 0.091510 0.407006 0.133684
H2    H     H_    0.406814 0.395729 0.151383 0.133392
H3    H     H_    0.661215 0.538430 0.022820 0.155514
H4    H     H_    0.571476 0.562928 0.853907 0.126240
H5    H     H_    0.986699 0.441789 0.179843 0.112336
H6    H     H_    0.983799 0.497950 0.802737 0.124697
H7    H     H_    0.825647 0.443802 0.217811 0.222312
H8    H     H_    0.683394 0.385574 0.115688 0.229951
H9    H     H_    0.365461 0.320317 0.987555 0.121112
H10   H     H_    0.213817 0.283340 0.889371 0.137026
H11   H     H_    0.365428 0.423638 0.917439 0.130281
H12   H     H_    0.178523 0.887830 0.364952 0.112732
H13   H     H_    0.868939 0.620616 0.319528 0.167203
H14   H     H_    0.954928 0.719673 0.255692 0.157443
H15   H     H_    0.041553 0.707871 0.378771 0.115492
H16   H     H_    0.627592 0.697141 0.310883 0.228218
H17   H     H_    0.690406 0.607294 0.325322 0.274376
H18   H     H_    0.542849 0.708698 0.701413 0.189940
H19   H     H_    0.539590 0.830780 0.667507 0.101019
H20   H     H_    0.495654 0.783198 0.770294 0.089195
H21   H     H_    0.193557 0.659289 0.208588 0.125056
H22   H     H_    0.188928 0.577164 0.302291 0.150847
H23   H     H_    0.157884 0.202805 0.552185 0.119123
H24   H     H_    0.342522 0.678527 0.296021 0.145339
H25   H     H_    0.268880 0.889251 0.612683 0.141268
H26   H     H_    0.322910 0.872545 0.741005 0.127441
H27   H     H_    0.426671 0.912193 0.672282 0.128156
H28   H     H_    0.157751 0.380129 0.382561 0.196985
H29   H     H_    0.075045 0.305646 0.453269 0.106773
H30   H     H_    0.010966 0.368037 0.355026 0.077954
H31   H     H_    0.664060 0.098384 0.382791 0.240200
H32   H     H_    0.683052 0.132245 0.276113 0.234793
H33   H     H_    0.911524 0.645835 0.705530 0.200377
H34   H     H_    0.633616 0.903607 0.565317 0.125772
H35   H     H_    0.896239 0.738898 0.637791 0.215251
H36   H     H_    0.161207 0.382009 0.781136 0.130997
H37   H     H_    0.136454 0.498944 0.754487 0.128130
H38   H     H_    0.286935 0.536065 0.854102 0.134693
H39   H     H_    0.785884 0.409504 0.682500 0.256602
H40   H     H_    0.644320 0.306973 0.688969 0.244528
H41   H     H_    0.988076 0.167093 0.566147 0.094661
H42   H     H_    0.796605 0.110645 0.599159 0.127442
H43   H     H_    0.096331 0.772072 0.650572 0.114175
H44   H     H_    0.540422 0.273276 0.342041 0.145812
H45   H     H_    0.894834 0.275790 0.446534 0.117086
N1    N     N_R   0.290690 0.566960 0.557640 -0.224745
N2    N     N_R   0.709100 0.433710 0.442970 -0.259618
N3    N     N_3   0.777797 0.460634 0.152288 -0.659939
N4    N     N_3   0.707251 0.688807 0.313834 -0.616799
N5    N     N_3   0.644992 0.142673 0.328860 -0.659671
N6    N     N_3   0.867535 0.650123 0.631632 -0.530251
N7    N     N_3   0.743989 0.370063 0.731427 -0.638185
O1    O     O_R   0.545970 0.684450 0.528810 -0.508100
O2    O     O_R   0.687130 0.639470 0.490120 -0.469018
O3    O     O_R   0.519670 0.535100 0.660030 -0.517031
O4    O     O_R   0.660830 0.490120 0.621340 -0.464964
O5    O     O_R   0.312870 0.360530 0.509880 -0.514759
O6    O     O_R   0.454030 0.315550 0.471190 -0.513046
O7    O     O_R   0.339170 0.509880 0.378660 -0.516167
O8    O     O_R   0.480330 0.464900 0.339970 -0.522239

loop_
_geom_bond_atom_site_label_1
_geom_bond_atom_site_label_2
_ccdc_geom_bond_type
C36   N6    S    
C41   C42   A    
C44   H9    S    
C19   C20   A    
C7    C48   S    
C19   C46   S    
H7    N3    S    
Cu2   O6    S    
Cu2   O2    S    
C48   H24   S    
C12   C23   A    
C8    H12   S    
C29   C30   A    
C48   H22   S    
C9    C16   S    
C47   H19   S    
C12   C43   A    
C3    C7    A    
C28   O8    A    
C26   H44   S    
C30   C31   A    
C1    O1    A    
C9    C22   A    
C27   C29   A    
C54   H6    S    
C28   C40   S    
Cu1   Cu2   S    
C11   H42   S    
C18   C19   A    
C48   H21   S    
C13   H41   S    
C28   O7    A    
C50   H28   S    
C26   N2    A    
H35   N6    S    
C35   C36   A    
C8    C22   A    
C7    C40   A    
C46   H15   S    
C4    O3    A    
C13   C14   A    
C14   C17   A    
Cu1   O1    S    
C23   C53   A    
C39   C42   A    
C20   N4    S    
Cu1   O7    S    
C15   C20   A    
C4    O4    A    
C41   H3    S    
C37   N1    A    
H31   N5    S    
C39   C43   A    
C45   C52   A    
C10   C24   A    
C3    C45   A    
C8    C18   A    
C49   H25   S    
C38   N1    A    
C25   C38   A    
H17   N4    S    
H40   N7    S    
C4    C39   S    
C27   N5    S    
H32   N5    S    
C17   C18   A    
C46   H14   S    
C34   C45   A    
C32   C37   A    
C42   H4    S    
C38   C47   S    
C50   H30   S    
C51   H36   S    
C15   C24   A    
C5    C44   S    
C10   H34   S    
C34   C54   A    
C26   C27   A    
C6    C40   A    
C44   H11   S    
C2    C5    A    
C47   H20   S    
C12   C34   A    
C35   H43   S    
C16   O6    A    
C52   C53   A    
C49   H27   S    
Cu2   O8    S    
Cu2   N2    S    
C54   C55   A    
C31   C36   A    
C6    H2    S    
Cu1   N1    S    
C16   O5    A    
C22   H1    S    
Cu2   O4    S    
H8    N3    S    
H39   N7    S    
C23   C41   A    
C2    C55   A    
C31   N2    A    
C49   H26   S    
C2    C3    A    
H33   N6    S    
C52   H5    S    
C32   C33   A    
C30   C32   A    
C37   C50   S    
C11   C13   A    
C9    C21   A    
H16   N4    S    
C5    C6    A    
C21   H23   S    
C33   C35   A    
C29   H45   S    
C51   C55   S    
C25   C49   S    
C46   H13   S    
C10   C11   A    
C50   H29   S    
C51   H37   S    
C47   H18   S    
C53   N3    S    
C1    C24   S    
C25   C33   A    
Cu1   O5    S    
C14   C15   A    
C44   H10   S    
C43   N7    S    
Cu1   O3    S    
C1    O2    A    
C51   H38   S    
C17   C21   A    
