data_mof_unit_49316.cif
_audit_creation_date              2013-03-05T16:07:58-0500
_audit_creation_method            fapswitch 2.2
_symmetry_space_group_name_H-M    P1
_symmetry_Int_Tables_number       1
_space_group_crystal_system       triclinic
_cell_length_a                    6.956769
_cell_length_b                    14.48554
_cell_length_c                    16.090972
_cell_angle_alpha                 90.240168
_cell_angle_beta                  90.00663
_cell_angle_gamma                 90.168173
_cell_volume                      1621.50712717

loop_
_atom_site_label
_atom_site_type_symbol
_atom_site_description
_atom_site_fract_x
_atom_site_fract_y
_atom_site_fract_z
_atom_type_partial_charge
O1    O     O_R   0.494380 0.415640 0.412830 -0.615658
O2    O     O_R   0.823960 0.405540 0.586560 -0.562157
O3    O     O_R   0.994270 0.584360 0.587170 -0.599311
C1    C     C_R   0.654739 0.381551 0.613855 1.091670
O4    O     O_R   0.824090 0.404620 0.413450 -0.587171
O5    O     O_R   0.994400 0.583430 0.412820 -0.609337
C2    C     C_R   0.655433 0.382644 0.384278 0.984882
O6    O     O_R   0.494250 0.416570 0.587180 -0.585793
O7    O     O_3   0.660800 0.558670 0.500000 -0.280436
V1    V     V_3+5 0.935650 0.489120 0.500000 1.254104
O8    O     O_R   0.324110 0.594460 0.413440 -0.601927
C3    C     C_R   0.155218 0.616084 0.384273 0.974974
O9    O     O_R   0.323980 0.595380 0.586550 -0.567012
C4    C     C_R   0.155965 0.613565 0.618423 1.075978
V2    V     V_3+5 0.435660 0.510880 0.500000 1.247816
O10   O     O_3   0.160640 0.441330 0.500000 -0.251735
C5    C     C_3   0.975773 0.658343 0.752312 0.115144
H1    H     H_    0.842200 0.672573 0.716121 0.088440
C6    C     C_3   0.970239 0.728332 0.826864 0.157348
H2    H     H_    0.825134 0.760777 0.824448 0.123606
H3    H     H_    0.958747 0.775121 0.623418 0.148214
C7    C     C_3   0.100216 0.780430 0.655767 0.014423
C8    C     C_3   0.341785 0.687306 0.741410 0.263765
C9    C     C_3   0.146918 0.681400 0.691221 -0.463555
H4    H     H_    0.458962 0.705256 0.697502 0.125221
C10   C     C_3   0.121340 0.807710 0.813056 -0.284098
C11   C     C_3   0.078230 0.853863 0.727460 0.297166
C12   C     C_3   0.328931 0.767038 0.806637 -0.489106
H5    H     H_    0.382219 0.747421 0.868824 0.259467
H6    H     H_    0.429736 0.822756 0.787104 0.186223
H7    H     H_    0.186462 0.910459 0.719705 0.108122
C13   C     C_R   0.275296 0.813794 0.237643 0.301754
C14   C     C_R   0.118910 0.814636 0.182742 -0.246974
C15   C     C_R   0.966467 0.753295 0.199428 -0.096193
H8    H     H_    0.843265 0.750945 0.158641 0.163305
C16   C     C_R   0.977549 0.689827 0.265500 -0.150338
H9    H     H_    0.861833 0.640747 0.273764 0.137190
C17   C     C_R   0.141734 0.685508 0.316812 -0.248281
C18   C     C_R   0.286448 0.751057 0.303012 0.297227
C19   C     C_3   0.496143 0.736701 0.289795 -0.505376
C20   C     C_3   0.483904 0.805067 0.218700 -0.486972
H10   H     H_    0.528594 0.665161 0.269002 0.184202
H11   H     H_    0.583299 0.762366 0.343039 0.244830
H12   H     H_    0.509189 0.773308 0.156650 0.204658
H13   H     H_    0.564167 0.870213 0.230723 0.240622
C21   C     C_R   0.491585 0.248148 0.688059 0.132067
C22   C     C_R   0.647113 0.309593 0.679551 -0.248002
C23   C     C_R   0.801435 0.298933 0.735624 0.023282
H14   H     H_    0.925689 0.343272 0.731249 0.160594
C24   C     C_R   0.791558 0.235443 0.801660 -0.173333
H15   H     H_    0.909327 0.231770 0.845334 0.150338
C25   C     C_R   0.625127 0.182120 0.814675 -0.221092
C26   C     C_R   0.478750 0.189511 0.756342 0.164602
C27   C     C_3   0.271559 0.208252 0.770043 -0.614500
C28   C     C_3   0.280396 0.265992 0.691279 0.148952
H16   H     H_    0.247759 0.250668 0.826859 0.202869
H17   H     H_    0.182509 0.144612 0.766274 0.216024
H18   H     H_    0.244723 0.340252 0.699306 0.125410
C29   C     C_R   0.539718 0.233054 0.320292 0.108238
C30   C     C_R   0.649054 0.314099 0.315219 -0.260020
C31   C     C_R   0.761015 0.326322 0.242806 -0.307614
H19   H     H_    0.847105 0.388346 0.236597 0.145597
C32   C     C_R   0.749171 0.263295 0.174668 0.636757
C33   C     C_R   0.625129 0.185585 0.179379 -0.390017
C34   C     C_R   0.529611 0.170380 0.254420 -0.004752
C35   C     C_3   0.322536 0.149459 0.269995 0.084071
C36   C     C_3   0.332564 0.218428 0.342290 0.044774
H20   H     H_    0.226404 0.171670 0.219215 0.042503
H21   H     H_    0.241846 0.280769 0.333552 0.062026
O11   O     O_R   0.771490 0.080820 0.910070 -0.601040
O12   O     O_R   0.441590 0.092730 0.083780 -0.617914
O13   O     O_R   0.271350 0.913900 0.084390 -0.597071
C37   C     C_R   0.611129 0.116830 0.110978 1.037331
O14   O     O_R   0.441780 0.091820 0.910670 -0.600743
O15   O     O_R   0.271540 0.912980 0.910040 -0.607399
C38   C     C_R   0.611454 0.115276 0.883449 0.977838
O16   O     O_R   0.771300 0.081740 0.084420 -0.584314
O17   O     O_3   0.604960 0.938700 0.997240 -0.269023
V3    V     V_3+5 0.330090 0.008230 0.997220 1.176344
O18   O     O_R   0.941820 0.901930 0.910640 -0.570615
C39   C     C_R   0.110701 0.879287 0.882295 1.012692
O19   O     O_R   0.941630 0.902840 0.083750 -0.593785
C40   C     C_R   0.110440 0.880340 0.112198 1.030394
V4    V     V_3+5 0.830090 0.986410 0.997190 1.216555
O20   O     O_3   0.105080 0.055990 0.997200 -0.298960
N1    N     N_R   0.240590 0.810814 0.593093 0.239306
O21   O     O_R   0.190313 0.813945 0.515261 -0.373059
O22   O     O_R   0.409293 0.841982 0.614406 -0.401461
N2    N     N_R   0.959684 0.560657 0.776452 0.263858
O23   O     O_R   0.813019 0.513058 0.750284 -0.387012
O24   O     O_R   0.075438 0.522478 0.829429 -0.285379
N3    N     N_R   0.180699 0.220802 0.622145 0.263871
O25   O     O_R   0.190591 0.131724 0.611669 -0.338870
O26   O     O_R   0.079161 0.269414 0.570885 -0.349606
O27   O     O_3   0.825825 0.287644 0.098438 -0.624791
C41   C     C_3   0.027008 0.277828 0.100410 -0.140942
H22   H     H_    0.087157 0.307031 0.042305 0.185550
H23   H     H_    0.065944 0.203659 0.101584 0.153376
H24   H     H_    0.094454 0.315760 0.153233 0.099930
N4    N     N_R   0.290485 0.053364 0.294547 0.274601
O28   O     O_R   0.124562 0.015043 0.279937 -0.387823
O29   O     O_R   0.420810 0.007446 0.335061 -0.329298
N5    N     N_R   0.305552 0.175564 0.423429 0.307153
O30   O     O_R   0.138823 0.140367 0.441966 -0.244167
O31   O     O_R   0.445777 0.171321 0.476873 -0.330233
N6    N     N_R   0.983926 0.685461 0.909477 0.262851
O32   O     O_R   0.832481 0.682755 0.956881 -0.358376
O33   O     O_R   0.146528 0.656497 0.939292 -0.332999
O34   O     O_3   0.887754 0.889305 0.727917 -0.661989
C42   C     C_3   0.875233 0.970165 0.679747 -0.014551
H25   H     H_    0.721391 0.988723 0.672792 0.179298
H26   H     H_    0.935875 0.959866 0.616352 0.192508
H27   H     H_    0.948441 0.028488 0.711926 0.118035
N7    N     N_R   0.399985 0.598981 0.779255 0.281317
O35   O     O_R   0.402896 0.524074 0.734494 -0.379544
O36   O     O_R   0.488974 0.597329 0.850404 -0.279537

loop_
_geom_bond_atom_site_label_1
_geom_bond_atom_site_label_2
_geom_bond_distance
_ccdc_geom_bond_type
C35   H20   1.105336 S    
O27   C41   1.407574 S    
O18   V4    2.008182 S    
O12   V3    2.004942 S    
N7    O35   1.300055 A    
C36   N5    1.460014 S    
C26   C27   1.483830 S    
C10   C11   1.562933 S    
O14   C38   1.303696 A    
C16   H9    1.081031 S    
O13   V3    2.003607 S    
O5    C3    1.298164 A    
C17   C18   1.400220 A    
N1    O22   1.301674 A    
N6    O32   1.301379 A    
C4    C9    1.527224 S    
V2    O10   2.159677 S    
C41   H24   1.113099 S    
C32   O27   1.384207 S    
C5    H1    1.116737 S    
C15   H8    1.079815 S    
C13   C18   1.395237 A    
C35   N4    1.465006 S    
C31   C32   1.426026 A    
C6    C10   1.572114 S    
C42   H25   1.110009 S    
N3    O25   1.302626 A    
C29   C36   1.498654 S    
C21   C22   1.406059 A    
O8    V2    2.006842 S    
C19   H11   1.111646 S    
C6    H2    1.115499 S    
C41   H23   1.109011 S    
C21   C28   1.493370 S    
C24   C25   1.406128 A    
C33   C37   1.484257 S    
O1    V2    2.006197 S    
N2    O24   1.298996 A    
O11   V4    2.005206 S    
O7    V1    2.163864 S    
C1    O6    1.301198 A    
C19   H10   1.111446 S    
C35   C36   1.531695 S    
C29   C30   1.399651 A    
O1    C2    1.302402 A    
O9    C4    1.303623 A    
N4    O29   1.302476 A    
C14   C15   1.408136 A    
C27   H16   1.112043 S    
C5    C9    1.579909 S    
C11   H7    1.118862 S    
C5    N2    1.472896 S    
V4    O20   2.159693 S    
C18   C19   1.489311 S    
O12   C37   1.304100 A    
O17   V3    2.163852 S    
O15   C39   1.297826 A    
O16   V4    2.007861 S    
C30   C31   1.413097 A    
C36   H21   1.112621 S    
O2    C1    1.303273 A    
C28   N3    1.462228 S    
C22   C23   1.411531 A    
C13   C20   1.488570 S    
C41   H22   1.109310 S    
N3    O26   1.297236 A    
C24   H15   1.080921 S    
N5    O31   1.302131 A    
C8    C12   1.560113 S    
C23   C24   1.409773 A    
C14   C40   1.485666 S    
C42   H27   1.111296 S    
O3    C4    1.300965 A    
C19   C20   1.518756 S    
O19   C40   1.303184 A    
O6    V2    2.004877 S    
O19   V4    2.006726 S    
O14   V3    2.004566 S    
O9    V2    2.008219 S    
O11   C38   1.295010 A    
C20   H12   1.111825 S    
C7    C9    1.580621 S    
O2    V1    2.004590 S    
C2    C30   1.487668 S    
V3    O20   1.713267 S    
C25   C26   1.389500 A    
O4    C2    1.301827 A    
C27   C28   1.522558 S    
C12   H5    1.105623 S    
C37   O16   1.297772 A    
N1    O21   1.301280 A    
O18   C39   1.302714 A    
C25   C38   1.476386 S    
O5    V1    2.003539 S    
N7    O36   1.301793 A    
O8    C3    1.304660 A    
C10   C39   1.520693 S    
C10   C12   1.564575 S    
C7    C11   1.573653 S    
C33   C34   1.396303 A    
C16   C17   1.410991 A    
O7    V2    1.710553 S    
O4    V1    2.004992 S    
O3    V1    2.004341 S    
V1    O10   1.713315 S    
O34   C42   1.410144 S    
C13   C14   1.401466 A    
C8    N7    1.476899 S    
N6    O33   1.300056 A    
C23   H14   1.077870 S    
C21   C26   1.394301 A    
C12   H6    1.113937 S    
N4    O28   1.300324 A    
C5    C6    1.567943 S    
C15   C16   1.410702 A    
C7    N1    1.471685 S    
C3    C17   1.485978 S    
C31   H19   1.083283 S    
C42   H26   1.113555 S    
O13   C40   1.299376 A    
C8    C9    1.579802 S    
C32   C33   1.418643 A    
C6    N6    1.472769 S    
O17   V4    1.710027 S    
C8    H4    1.109827 S    
C11   O34   1.422489 S    
C34   C35   1.492663 S    
C28   H18   1.111671 S    
N5    O30   1.300829 A    
C20   H13   1.111343 S    
N2    O23   1.298885 A    
H3    C7    1.115594 S    
O15   V3    2.004454 S    
C1    C22   1.488541 S    
C29   C34   1.394332 A    
C27   H17   1.110612 S    
