data_mof_unit_37018.cif
_audit_creation_date              2012-10-26T21:04:53-0400
_audit_creation_method            fapswitch 2.2
_symmetry_space_group_name_H-M    P1
_symmetry_Int_Tables_number       1
_space_group_crystal_system       triclinic
_cell_length_a                    11.668051
_cell_length_b                    12.361105
_cell_length_c                    13.190071
_cell_angle_alpha                 117.183751
_cell_angle_beta                  76.723555
_cell_angle_gamma                 100.580743
_cell_volume                      1640.22685771

loop_
_atom_site_label
_atom_site_type_symbol
_atom_type_description
_atom_site_fract_x
_atom_site_fract_y
_atom_site_fract_z
_atom_type_partial_charge
C1    C     C_R   0.524078 0.854323 0.286185 0.530564
C2    C     C_R   0.609695 0.479845 0.156909 -0.120010
C3    C     C_R   0.603728 0.604119 0.194852 -0.111035
C4    C     C_R   0.715584 0.999373 0.499642 0.533586
C5    C     C_R   0.510565 0.357555 0.874070 0.165650
C6    C     C_R   0.530341 0.185990 0.910424 0.242238
C7    C     C_R   0.552721 0.771534 0.162223 -0.017142
C8    C     C_R   0.731484 0.379189 0.398301 0.275571
C9    C     C_R   0.314661 0.724336 0.578937 0.393968
C10   C     C_R   0.269218 0.602070 0.515441 0.239079
C11   C     C_R   0.350022 0.512957 0.452095 0.311799
C12   C     C_R   0.504994 0.229841 0.836287 -0.037248
C13   C     C_R   0.463917 0.539916 0.480454 0.024240
C14   C     C_R   0.509239 0.664534 0.524378 0.080181
C15   C     C_R   0.535262 0.447964 0.462587 -0.028600
C16   C     C_R   0.489114 0.146059 0.714568 0.583014
C17   C     C_R   0.658523 0.475384 0.446366 -0.080019
C18   C     C_R   0.704719 0.598572 0.485893 -0.154246
C19   C     C_R   0.629418 0.691743 0.533476 -0.086552
C20   C     C_R   0.491035 0.338604 0.477679 0.360620
C21   C     C_R   0.681304 0.263304 0.387005 0.409001
C22   C     C_R   0.284506 0.000002 0.499541 0.576980
C23   C     C_R   0.553842 0.815335 0.080733 -0.164550
C24   C     C_1   0.837242 0.998816 0.499752 0.012404
C25   C     C_1   0.939964 0.999166 0.499688 -0.003926
C26   C     C_1   0.060070 0.999969 0.499518 0.002639
C27   C     C_1   0.162809 0.000369 0.499409 0.027812
C28   C     C_R   0.563012 0.267656 0.017586 0.295447
C29   C     C_R   0.581821 0.740903 0.963269 -0.035194
C30   C     C_R   0.598581 0.618566 0.924338 0.294205
C31   C     C_R   0.576841 0.567326 0.005179 0.061785
C32   C     C_R   0.575909 0.648414 0.122890 -0.004397
C33   C     C_R   0.558508 0.439464 0.973792 0.002109
C34   C     C_R   0.577714 0.395081 0.049938 -0.030405
Cu1   Cu    Cu3+1 0.526510 0.098270 0.475420 1.072459
Cu2   Cu    Cu3+1 0.473490 0.901730 0.524580 1.012516
H1    H     H_    0.797888 0.624361 0.490241 0.144884
H2    H     H_    0.163083 0.794286 0.631593 0.316773
H3    H     H_    0.240184 0.398084 0.352360 0.392519
H4    H     H_    0.107362 0.610882 0.594906 0.340566
H5    H     H_    0.546761 0.272786 0.169401 0.325335
H6    H     H_    0.497288 0.398385 0.753955 0.396365
H7    H     H_    0.688459 0.488603 0.802347 0.323960
H8    H     H_    0.702402 0.093853 0.292346 0.347078
H9    H     H_    0.665690 0.782994 0.582471 0.175504
H10   H     H_    0.635159 0.451846 0.214542 0.127122
H11   H     H_    0.537946 0.909010 0.107785 0.175150
H12   H     H_    0.593447 0.779347 0.902033 0.177295
H13   H     H_    0.626641 0.664681 0.278947 0.147571
H14   H     H_    0.439364 0.030886 0.865845 0.352814
H15   H     H_    0.867877 0.463471 0.339231 0.320996
H16   H     H_    0.241758 0.279562 0.692750 0.365969
N1    N     N_R   0.566700 0.246290 0.438210 -0.308666
N2    N     N_R   0.434010 0.754320 0.561170 -0.236221
O1    O     O_R   0.533340 0.972510 0.318140 -0.533116
O2    O     O_3   0.851057 0.392809 0.358290 -0.608573
O3    O     O_2   0.314916 0.467270 0.642059 -0.286531
O4    O     O_2   0.255417 0.272995 0.487111 -0.227741
O5    O     O_3   0.326370 0.274765 0.657145 -0.474822
O6    O     O_3   0.242865 0.816241 0.652899 -0.650904
O7    O     O_3   0.319721 0.399304 0.367756 -0.648738
O8    O     O_3   0.150013 0.566516 0.515627 -0.680318
O9    O     O_3   0.578003 0.218501 0.088500 -0.633730
O10   O     O_3   0.448818 0.403787 0.827802 -0.608891
O11   O     O_3   0.649248 0.557359 0.810236 -0.694639
O12   O     O_R   0.488570 0.806530 0.359650 -0.514612
O13   O     O_3   0.753235 0.169525 0.327613 -0.603015
O14   O     O_R   0.685190 0.083000 0.479260 -0.471787
O15   O     O_R   0.640410 0.917020 0.520770 -0.535778
O16   O     O_R   0.511430 0.193470 0.640350 -0.461444
O17   O     O_R   0.466660 0.027490 0.681860 -0.459374
O18   O     O_R   0.359590 0.082980 0.479230 -0.411380
O19   O     O_R   0.314810 0.917000 0.520740 -0.469114
O20   O     O_3   0.520516 0.063327 0.882617 -0.628286
S1    S     S_3+6 0.345569 0.338367 0.565748 0.083238

loop_
_geom_bond_atom_site_label_1
_geom_bond_atom_site_label_2
_ccdc_geom_bond_type
H6    O10   S    
Cu1   N1    S    
Cu1   Cu2   S    
C8    O2    S    
C3    H13   S    
C2    H10   S    
C26   C27   T    
C23   C29   A    
C18   H1    S    
C18   C19   A    
H14   O20   S    
C6    C12   A    
C30   C31   A    
C4    C24   S    
Cu2   O12   S    
H4    O8    S    
H15   O2    S    
C6    C28   A    
C12   C16   S    
Cu1   O16   S    
C5    C33   A    
C31   C33   A    
C9    C10   A    
Cu2   O17   S    
C2    C34   A    
C28   C34   A    
C13   C14   A    
C21   O13   S    
C10   O8    S    
C16   O17   A    
C22   O18   A    
C4    O15   A    
O4    S1    D    
C6    O20   S    
C15   C20   A    
H3    O7    S    
C23   H11   S    
C29   H12   S    
Cu1   O1    S    
C16   O16   A    
C24   C25   T    
C5    C12   A    
Cu2   O19   S    
C4    O14   A    
C25   C26   S    
C20   S1    S    
C1    O12   A    
C29   C30   A    
H16   O5    S    
C31   C32   A    
H7    O11   S    
C17   C18   A    
H2    O6    S    
C14   N2    A    
Cu1   O18   S    
C22   C27   S    
C13   C15   A    
H5    O9    S    
O5    S1    S    
Cu2   O15   S    
C15   C17   A    
C7    C32   A    
C1    C7    S    
C14   C19   A    
C20   N1    A    
C11   O7    S    
C8    C21   A    
C19   H9    S    
C8    C17   A    
C9    O6    S    
O3    S1    D    
C2    C3    A    
C1    O1    A    
C21   N1    A    
C11   C13   A    
Cu1   O14   S    
C7    C23   A    
C33   C34   A    
C3    C32   A    
C30   O11   S    
Cu2   N2    S    
C10   C11   A    
C28   O9    S    
C5    O10   S    
H8    O13   S    
C9    N2    A    
C22   O19   A    
