data_mof_unit_57515.cif
_audit_creation_date              2012-12-10T17:55:52-0500
_audit_creation_method            fapswitch 2.2
_symmetry_space_group_name_H-M    P1
_symmetry_Int_Tables_number       1
_space_group_crystal_system       triclinic
_cell_length_a                    11.099927
_cell_length_b                    10.828352
_cell_length_c                    9.633586
_cell_angle_alpha                 89.749697
_cell_angle_beta                  103.469912
_cell_angle_gamma                 93.162733
_cell_volume                      1124.28936732

loop_
_atom_site_label
_atom_site_type_symbol
_atom_type_description
_atom_site_fract_x
_atom_site_fract_y
_atom_site_fract_z
_atom_type_partial_charge
C1    C     C_R   0.499714 0.262403 0.500060 0.796913
C2    C     C_R   0.500286 0.737597 0.499940 0.796913
C3    C     C_R   0.262607 0.500024 0.440495 0.847134
C4    C     C_R   0.737393 0.499975 0.559505 0.847135
C5    C     C_R   0.420028 0.421961 0.054504 0.425169
C6    C     C_R   0.579971 0.578039 0.945496 0.425167
C7    C     C_R   0.419647 0.420843 0.906327 0.122975
C8    C     C_R   0.580353 0.579157 0.093673 0.122975
C9    C     C_2   0.126396 0.500863 0.403796 -0.000616
C10   C     C_2   0.873604 0.499136 0.596204 -0.000629
C11   C     C_2   0.067639 0.499553 0.511395 -0.159443
C12   C     C_2   0.932361 0.500444 0.488607 -0.159448
C13   C     C_R   0.501605 0.064503 0.374412 -0.135457
C14   C     C_R   0.498395 0.935497 0.625588 -0.135457
C15   C     C_R   0.501871 0.936725 0.374299 -0.190507
C16   C     C_R   0.498129 0.063275 0.625701 -0.190508
C17   C     C_R   0.500243 0.871631 0.499877 -0.024012
C18   C     C_R   0.499757 0.128369 0.500123 -0.024012
Cu1   Cu    Cu3+1 0.500000 0.500020 0.640660 0.991731
Cu2   Cu    Cu3+1 0.500000 0.499980 0.359340 0.991732
H1    H     H_    0.878287 0.502091 0.379384 0.174150
H2    H     H_    0.121715 0.497905 0.620618 0.174142
H3    H     H_    0.502957 0.112935 0.276119 0.182541
H4    H     H_    0.497043 0.887065 0.723881 0.182541
H5    H     H_    0.503327 0.889262 0.276013 0.159992
H6    H     H_    0.496673 0.110738 0.723987 0.159992
N1    N     N_R   0.500030 0.500030 0.852080 -0.217975
N2    N     N_R   0.499970 0.499970 0.147920 -0.217976
O1    O     O_R   0.499990 0.319660 0.618740 -0.604043
O2    O     O_R   0.500010 0.680340 0.381260 -0.604043
O3    O     O_R   0.499990 0.319630 0.381170 -0.533758
O4    O     O_R   0.500010 0.680370 0.618830 -0.533758
O5    O     O_R   0.320690 0.500020 0.575130 -0.616498
O6    O     O_R   0.679310 0.499980 0.424870 -0.616497
O7    O     O_R   0.320680 0.499990 0.337560 -0.520310
O8    O     O_R   0.679320 0.500010 0.662440 -0.520312
Cl1   Cl    Cl    0.315124 0.320543 0.118393 -0.639411
Cl2   Cl    Cl    0.684875 0.679457 0.881607 -0.639416
C19   C     C_3   0.943525 0.496220 0.751385 -0.792431
H7    H     H_    0.880774 0.494695 0.825729 0.271877
H8    H     H_    0.997216 0.411793 0.771515 0.226209
H9    H     H_    0.007616 0.579661 0.777446 0.240091
C20   C     C_3   0.056475 0.503780 0.248614 -0.792485
H10   H     H_    0.119224 0.505320 0.174280 0.271879
H11   H     H_    0.992397 0.420336 0.222545 0.240101
H12   H     H_    0.002774 0.588195 0.228483 0.226211
C21   C     C_3   0.327822 0.328472 0.814960 -0.700066
H13   H     H_    0.327254 0.324620 0.702244 0.257892
H14   H     H_    0.346877 0.233715 0.855720 0.220739
H15   H     H_    0.232206 0.349041 0.820764 0.217153
C22   C     C_3   0.672177 0.671529 0.185040 -0.700064
H16   H     H_    0.672746 0.675379 0.297756 0.257892
H17   H     H_    0.767793 0.650961 0.179234 0.217154
H18   H     H_    0.653121 0.766286 0.144280 0.220738

loop_
_geom_bond_atom_site_label_1
_geom_bond_atom_site_label_2
_ccdc_geom_bond_type
C20   H10   S    
C6    Cl2   S    
C6    N1    A    
C3    C9    S    
C5    Cl1   S    
C19   H9    S    
C5    N2    A    
Cu1   N1    S    
C11   H2    S    
C21   H13   S    
C8    C22   S    
C13   C15   A    
C3    O7    A    
C11   C12   S    
C22   H18   S    
Cu2   O6    S    
C4    O8    A    
C5    C7    A    
C21   H14   S    
C16   C18   A    
Cu2   O2    S    
C2    C17   S    
C20   H11   S    
C14   C17   A    
C1    C18   S    
C10   C12   D    
C13   C18   A    
Cu1   O4    S    
C2    O4    A    
C21   H15   S    
C4    O6    A    
Cu1   O8    S    
C9    C11   D    
C16   H6    S    
C8    N2    A    
C20   H12   S    
C14   C16   A    
C9    C20   S    
C15   H5    S    
C2    O2    A    
C1    O1    A    
C4    C10   S    
C22   H16   S    
Cu1   O1    S    
C1    O3    A    
C7    N1    A    
C13   H3    S    
C19   H8    S    
Cu1   O5    S    
C14   H4    S    
C19   H7    S    
C15   C17   A    
C3    O5    A    
C6    C8    A    
Cu2   N2    S    
Cu2   O7    S    
C12   H1    S    
Cu1   Cu2   S    
C10   C19   S    
C22   H17   S    
Cu2   O3    S    
C7    C21   S    
