data_mof_unit_8598.cif
_audit_creation_date              2012-12-10T19:11:26-0500
_audit_creation_method            fapswitch 2.2
_symmetry_space_group_name_H-M    P1
_symmetry_Int_Tables_number       1
_space_group_crystal_system       triclinic
_cell_length_a                    10.634796
_cell_length_b                    9.721166
_cell_length_c                    10.491664
_cell_angle_alpha                 90.392569
_cell_angle_beta                  90.081754
_cell_angle_gamma                 90.029155
_cell_volume                      1084.62897473

loop_
_atom_site_label
_atom_site_type_symbol
_atom_type_description
_atom_site_fract_x
_atom_site_fract_y
_atom_site_fract_z
_atom_type_partial_charge
C1    C     C_R   0.257691 0.500173 0.497972 0.889170
C2    C     C_3   0.500086 0.498309 0.122184 0.026227
C3    C     C_3   0.071394 0.649613 0.471277 0.218351
C4    C     C_3   0.071791 0.452177 0.628797 0.195453
C5    C     C_3   0.928013 0.649347 0.473845 -0.456460
C6    C     C_3   0.927031 0.449619 0.626825 -0.440440
C7    C     C_3   0.071641 0.403325 0.390003 -0.340402
C8    C     C_3   0.121081 0.500910 0.496703 0.125237
C9    C     C_3   0.878579 0.501200 0.496565 0.076443
C10   C     C_3   0.927441 0.405849 0.388373 -0.417091
C11   C     C_3   0.372435 0.081096 0.470032 -0.373926
C12   C     C_3   0.372483 0.918448 0.469940 -0.361177
C13   C     C_3   0.583847 0.080315 0.397018 -0.296790
C14   C     C_3   0.584006 0.918310 0.397151 -0.294774
C15   C     C_3   0.538168 0.082466 0.623826 0.354992
C16   C     C_3   0.538250 0.919303 0.623777 0.354092
C17   C     C_R   0.500051 0.499448 0.257148 0.863083
C18   C     C_R   0.742417 0.500261 0.497723 0.879938
C19   C     C_R   0.500202 0.500545 0.742719 0.883494
C20   C     C_3   0.396781 0.565086 0.042650 -0.195741
C21   C     C_3   0.499752 0.368499 0.039057 -0.133804
C22   C     C_3   0.396446 0.435455 0.956796 -0.192209
C23   C     C_3   0.500192 0.501651 0.877650 0.029347
C24   C     C_3   0.500532 0.631455 0.960766 -0.129764
C25   C     C_3   0.603498 0.434865 0.957166 -0.155333
C26   C     C_3   0.603833 0.564495 0.043023 -0.191235
H1    H     H_    0.312198 0.383311 0.916592 0.132098
H2    H     H_    0.893552 0.443202 0.294295 0.165099
H3    H     H_    0.891570 0.299129 0.400585 0.178433
H4    H     H_    0.338139 0.119056 0.376393 0.180897
H5    H     H_    0.338490 0.879302 0.376138 0.204619
H6    H     H_    0.304043 0.119200 0.542184 0.194713
H7    H     H_    0.304030 0.881248 0.541958 0.154157
H8    H     H_    0.552382 0.116398 0.301762 0.167485
H9    H     H_    0.552897 0.880609 0.301838 0.174491
H10   H     H_    0.466409 0.115376 0.694986 0.097430
H11   H     H_    0.466699 0.887035 0.695014 0.079962
H12   H     H_    0.680985 0.120383 0.407087 0.142947
H13   H     H_    0.681199 0.878736 0.407676 0.142683
H14   H     H_    0.312798 0.617714 0.082536 0.153915
H15   H     H_    0.499429 0.261365 0.075089 0.133393
H16   H     H_    0.500908 0.738578 0.924698 0.155226
H17   H     H_    0.687452 0.382216 0.917232 0.149329
H18   H     H_    0.688075 0.616667 0.083203 0.131074
H19   H     H_    0.105661 0.719969 0.548564 0.076571
H20   H     H_    0.104198 0.526973 0.703230 0.055372
H21   H     H_    0.895834 0.719511 0.551581 0.157666
H22   H     H_    0.890313 0.516223 0.705134 0.136000
H23   H     H_    0.889716 0.689894 0.382573 0.197380
H24   H     H_    0.891869 0.343453 0.644380 0.222063
H25   H     H_    0.108432 0.435235 0.295429 0.182209
H26   H     H_    0.104237 0.296053 0.406247 0.195087
N1    N     N_3   0.499750 0.138610 0.497240 -0.070274
N2    N     N_3   0.499750 0.861390 0.497240 -0.068295
O1    O     O_R   0.314910 0.616040 0.499970 -0.628736
O2    O     O_R   0.314910 0.383960 0.499970 -0.601556
O3    O     O_R   0.500080 0.616020 0.313900 -0.623004
O4    O     O_R   0.500080 0.383980 0.313900 -0.643229
O5    O     O_R   0.685320 0.616040 0.499930 -0.607022
O6    O     O_R   0.685320 0.383960 0.499930 -0.610500
O7    O     O_R   0.500150 0.616060 0.686000 -0.602707
O8    O     O_R   0.500150 0.383940 0.686000 -0.583541
Zn1   Zn    Zn3+2 0.500150 0.654960 0.499940 0.944411
Zn2   Zn    Zn3+2 0.500150 0.345040 0.499940 0.947738
O9    O     O_3   0.651684 0.140773 0.667783 -0.736705
H27   H     H_    0.720245 0.115766 0.608607 0.320583
O10   O     O_3   0.651959 0.861860 0.667208 -0.732707
H28   H     H_    0.720733 0.889472 0.609610 0.318277
O11   O     O_3   0.114331 0.697255 0.352573 -0.774632
H29   H     H_    0.102685 0.798604 0.352895 0.323286
O12   O     O_3   0.118248 0.320537 0.657905 -0.773935
H30   H     H_    0.106382 0.307736 0.750925 0.325564

loop_
_geom_bond_atom_site_label_1
_geom_bond_atom_site_label_2
_ccdc_geom_bond_type
C7    C10   S    
C1    C8    S    
C24   H16   S    
C4    C8    S    
C25   H17   S    
C6    C9    S    
C26   H18   S    
C7    C8    S    
C4    H20   S    
C5    H21   S    
C6    H22   S    
C15   N1    S    
C3    O11   S    
C1    O2    A    
C24   C26   S    
C7    H26   S    
C20   H14   S    
N1    Zn2   S    
N2    Zn1   S    
C19   O8    A    
C15   C16   S    
C15   O9    S    
O7    Zn1   S    
O8    Zn2   S    
C14   H13   S    
C20   C24   S    
C11   H4    S    
O1    Zn1   S    
C23   C24   S    
O2    Zn2   S    
C9    C10   S    
C11   N1    S    
C16   H11   S    
C21   C22   S    
C2    C17   S    
C5    H23   S    
O3    Zn1   S    
C13   N1    S    
O4    Zn2   S    
C2    C20   S    
O10   H28   S    
C4    C6    S    
C3    C8    S    
C14   H9    S    
C25   C26   S    
C3    H19   S    
C19   C23   S    
C5    C9    S    
C18   O5    A    
C2    C21   S    
C2    C26   S    
C16   O10   S    
C6    H24   S    
C13   H12   S    
C21   H15   S    
C18   O6    A    
C14   N2    S    
C20   C22   S    
C11   H6    S    
C22   H1    S    
C12   H5    S    
C15   H10   S    
C10   H2    S    
C21   C25   S    
C3    C5    S    
C11   C12   S    
C17   O4    A    
O5    Zn1   S    
O6    Zn2   S    
C1    O1    A    
C7    H25   S    
C13   H8    S    
C10   H3    S    
C19   O7    A    
C23   C25   S    
O11   H29   S    
C16   N2    S    
C9    C18   S    
O12   H30   S    
O9    H27   S    
C22   C23   S    
C12   H7    S    
C13   C14   S    
C4    O12   S    
C12   N2    S    
C17   O3    A    
