data_mof_unit_46095.cif
_audit_creation_date              2012-12-10T18:45:10-0500
_audit_creation_method            fapswitch 2.2
_symmetry_space_group_name_H-M    P1
_symmetry_Int_Tables_number       1
_space_group_crystal_system       triclinic
_cell_length_a                    10.77715
_cell_length_b                    9.948657
_cell_length_c                    10.817263
_cell_angle_alpha                 90.674045
_cell_angle_beta                  90.934291
_cell_angle_gamma                 89.516498
_cell_volume                      1159.53324302

loop_
_atom_site_label
_atom_site_type_symbol
_atom_type_description
_atom_site_fract_x
_atom_site_fract_y
_atom_site_fract_z
_atom_type_partial_charge
C1    C     C_R   0.259886 0.501752 0.493167 0.910382
C2    C     C_R   0.509891 0.499113 0.739731 0.922390
C3    C     C_R   0.422614 0.730785 0.097498 0.185878
C4    C     C_R   0.611550 0.716263 0.925665 0.146959
C5    C     C_R   0.482410 0.850300 0.063676 0.126970
C6    C     C_R   0.591057 0.838462 0.990275 0.142996
C7    C     C_R   0.525576 0.613344 0.939758 -0.044392
C8    C     C_R   0.469848 0.609181 0.053179 -0.062325
C9    C     C_R   0.499109 0.495260 0.125583 -0.123020
C10   C     C_R   0.529069 0.493987 0.872647 -0.119633
C11   C     C_R   0.554590 0.382617 0.066792 0.187540
C12   C     C_R   0.739579 0.500587 0.509372 0.890093
C13   C     C_R   0.541554 0.372457 0.938407 0.153829
C14   C     C_R   0.063629 0.385345 0.489134 -0.207440
C15   C     C_R   0.937201 0.384019 0.498897 -0.218104
C16   C     C_R   0.872643 0.504191 0.519039 -0.061398
C17   C     C_R   0.126205 0.507740 0.488275 -0.071882
C18   C     C_3   0.656294 0.301774 0.130150 -0.764033
C19   C     C_3   0.540976 0.235763 0.877564 -0.752052
C20   C     C_3   0.881398 0.755841 0.589660 -0.775399
C21   C     C_3   0.108650 0.769302 0.460394 -0.771084
C22   C     C_R   0.936450 0.627878 0.532634 0.200170
C23   C     C_R   0.059589 0.631845 0.496212 0.197161
C24   C     C_R   0.578971 0.070740 0.427395 -0.082833
C25   C     C_R   0.423718 0.074276 0.575416 -0.100569
C26   C     C_R   0.578329 0.928109 0.425739 0.216764
C27   C     C_R   0.425593 0.931802 0.578345 0.190948
C28   C     C_R   0.496262 0.499358 0.259629 0.913966
H1    H     H_    0.111928 0.289861 0.479913 0.188495
H2    H     H_    0.451517 0.218969 0.828019 0.249035
H3    H     H_    0.943634 0.791084 0.665964 0.256842
H4    H     H_    0.873906 0.837280 0.521225 0.244219
H5    H     H_    0.790210 0.745037 0.632241 0.271219
H6    H     H_    0.198984 0.771618 0.415894 0.278991
H7    H     H_    0.044081 0.814178 0.390909 0.251578
H8    H     H_    0.112608 0.838012 0.541410 0.245244
H9    H     H_    0.890312 0.288297 0.490926 0.183364
H10   H     H_    0.643295 0.123778 0.370431 0.156813
H11   H     H_    0.362841 0.130233 0.636000 0.157672
H12   H     H_    0.728949 0.272787 0.063210 0.265073
H13   H     H_    0.704841 0.362588 0.202544 0.229047
H14   H     H_    0.618624 0.210810 0.172265 0.266643
H15   H     H_    0.621105 0.223203 0.815088 0.257230
H16   H     H_    0.544383 0.157000 0.946704 0.268189
I1    I     I_    0.239370 0.725044 0.163344 -0.271421
I2    I     I_    0.793851 0.651976 0.876687 -0.315672
I3    I     I_    0.411026 0.034458 0.134608 -0.331603
I4    I     I_    0.736085 0.982510 0.991946 -0.326294
I5    I     I_    0.707189 0.833600 0.307561 -0.311850
I6    I     I_    0.318112 0.846140 0.718726 -0.321399
N1    N     N_R   0.500000 0.857200 0.500000 -0.123802
N2    N     N_R   0.500000 0.142810 0.500000 -0.106346
O1    O     O_R   0.316770 0.614620 0.499990 -0.601827
O2    O     O_R   0.683230 0.614620 0.500010 -0.600854
O3    O     O_R   0.316800 0.385290 0.500000 -0.621827
O4    O     O_R   0.683200 0.385290 0.500000 -0.637338
O5    O     O_R   0.500010 0.614690 0.316770 -0.591165
O6    O     O_R   0.499990 0.614690 0.683230 -0.588160
O7    O     O_R   0.500040 0.385360 0.316770 -0.602588
O8    O     O_R   0.499960 0.385360 0.683230 -0.631853
Zn1   Zn    Zn3+2 0.500000 0.653120 0.500000 1.012240
Zn2   Zn    Zn3+2 0.500000 0.346880 0.500000 0.970224

loop_
_geom_bond_atom_site_label_1
_geom_bond_atom_site_label_2
_ccdc_geom_bond_type
C24   N2    A    
C7    C10   A    
C24   H10   S    
C2    O6    A    
C11   C18   S    
O5    Zn1   S    
C21   H7    S    
O2    Zn1   S    
C25   C27   A    
C11   C13   A    
C1    C17   S    
N1    Zn1   S    
C27   I6    S    
O6    Zn1   S    
C18   H14   S    
C1    O3    A    
C25   N2    A    
C3    I1    S    
C7    C8    A    
C21   H8    S    
C4    I2    S    
C28   O5    A    
C25   H11   S    
C1    O1    A    
C9    C11   A    
C14   C17   A    
C17   C23   A    
C6    I4    S    
C4    C7    A    
C20   H5    S    
O8    Zn2   S    
C5    I3    S    
C27   N1    A    
C2    O8    A    
C21   C23   S    
C5    C6    A    
C24   C26   A    
O4    Zn2   S    
C18   H13   S    
C26   N1    A    
C13   C19   S    
C14   H1    S    
C15   C16   A    
C2    C10   S    
O3    Zn2   S    
C19   H16   S    
C20   H3    S    
C4    C6    A    
C3    C8    A    
C20   H4    S    
C28   O7    A    
C18   H12   S    
C12   O4    A    
C15   H9    S    
O7    Zn2   S    
C16   C22   A    
C21   H6    S    
C19   H15   S    
C14   C15   A    
C19   H2    S    
O1    Zn1   S    
N2    Zn2   S    
C22   C23   A    
C12   O2    A    
C12   C16   S    
C9    C28   S    
C20   C22   S    
C8    C9    A    
C3    C5    A    
C10   C13   A    
C26   I5    S    
