data_mof_unit_57782.cif
_audit_creation_date              2012-10-26T18:27:28-0400
_audit_creation_method            fapswitch 2.2
_symmetry_space_group_name_H-M    P1
_symmetry_Int_Tables_number       1
_space_group_crystal_system       triclinic
_cell_length_a                    10.729003
_cell_length_b                    10.981186
_cell_length_c                    9.952818
_cell_angle_alpha                 110.555333
_cell_angle_beta                  98.27571
_cell_angle_gamma                 93.080503
_cell_volume                      1079.62131236

loop_
_atom_site_label
_atom_site_type_symbol
_atom_type_description
_atom_site_fract_x
_atom_site_fract_y
_atom_site_fract_z
_atom_type_partial_charge
Br1   Br    Br    0.118292 0.220294 0.403017 -0.563612
Br2   Br    Br    0.649892 0.641923 0.200998 -0.509142
C1    C     C_R   0.495514 0.254729 0.441624 0.567994
C2    C     C_2   0.534027 0.929766 0.480308 -0.121056
C3    C     C_2   0.512842 0.510996 0.080250 0.270581
C4    C     C_R   0.263130 0.500526 0.500760 0.571119
C5    C     C_2   0.487955 0.487480 0.919706 0.113912
C6    C     C_R   0.512903 0.745821 0.558694 0.532817
C7    C     C_R   0.736943 0.501018 0.499613 0.537058
C8    C     C_R   0.155713 0.747031 0.587242 -0.070453
C9    C     C_R   0.102863 0.865971 0.626818 0.021346
C10   C     C_R   0.972247 0.865325 0.624174 -0.077453
C11   C     C_R   0.894965 0.747460 0.582842 -0.077812
C12   C     C_R   0.078747 0.626584 0.544768 -0.016239
C13   C     C_R   0.947075 0.627017 0.542832 0.023554
C14   C     C_3   0.380773 0.381594 0.829242 -0.319604
C15   C     C_3   0.184696 0.993821 0.671686 -0.390712
C16   C     C_3   0.658654 0.153258 0.636916 -0.338958
C17   C     C_R   0.129655 0.505223 0.503012 0.019945
C18   C     C_R   0.051839 0.386634 0.459819 0.128204
C19   C     C_R   0.922933 0.387971 0.458483 -0.110684
C20   C     C_R   0.870984 0.506405 0.499763 -0.006101
C21   C     C_2   0.495735 0.115238 0.412256 -0.082356
C22   C     C_2   0.559907 0.068998 0.507445 -0.036715
C23   C     C_2   0.533701 0.885704 0.589740 -0.146430
Cu1   Cu    Cu3+1 0.521920 0.521810 0.644910 0.944613
Cu2   Cu    Cu3+1 0.478080 0.478190 0.355090 1.024615
H1    H     H_    0.435310 0.048377 0.313588 0.114649
H2    H     H_    0.402003 0.287243 0.840089 0.077660
H3    H     H_    0.290865 0.409105 0.868729 0.104462
H4    H     H_    0.360206 0.360230 0.713082 0.226026
H5    H     H_    0.286020 0.979354 0.668427 0.128970
H6    H     H_    0.153351 0.045411 0.596966 0.186456
H7    H     H_    0.176361 0.056197 0.784478 0.138624
H8    H     H_    0.611986 0.210315 0.728086 0.158620
H9    H     H_    0.722586 0.092021 0.676247 0.120940
H10   H     H_    0.719501 0.220274 0.605490 0.150244
H11   H     H_    0.626803 0.624570 0.928679 0.251379
H12   H     H_    0.371949 0.375906 0.073738 0.194036
H13   H     H_    0.256850 0.749411 0.589701 0.119651
H14   H     H_    0.930052 0.956478 0.654127 0.120844
H15   H     H_    0.794315 0.751484 0.581892 0.133864
H16   H     H_    0.862860 0.296247 0.426028 0.141205
H17   H     H_    0.508445 0.863283 0.367621 0.187673
H18   H     H_    0.552998 0.952451 0.702607 0.110936
N1    N     N_2   0.445130 0.445430 0.137370 -0.336319
N2    N     N_2   0.554930 0.554500 0.862630 -0.333216
O1    O     O_R   0.511700 0.332330 0.577400 -0.515930
O2    O     O_R   0.474680 0.295500 0.332650 -0.479690
O3    O     O_R   0.338160 0.518420 0.622400 -0.512548
O4    O     O_R   0.301140 0.481590 0.377650 -0.470680
O5    O     O_R   0.525320 0.704500 0.667350 -0.498492
O6    O     O_R   0.488300 0.667670 0.422600 -0.459940
O7    O     O_R   0.698860 0.518410 0.622350 -0.503604
O8    O     O_R   0.661840 0.481580 0.377600 -0.444253

loop_
_geom_bond_atom_site_label_1
_geom_bond_atom_site_label_2
_ccdc_geom_bond_type
C6    O6    A    
C9    C10   A    
Cu2   O6    S    
C10   H14   S    
C7    O8    A    
Cu1   O5    S    
C4    O4    A    
C3    N1    D    
C6    O5    A    
C1    C21   S    
C17   C18   A    
Cu1   O1    S    
C21   C22   D    
C11   C13   A    
C2    C23   D    
C1    O2    A    
C19   H16   S    
C19   C20   A    
C4    O3    A    
C14   H4    S    
C6    C23   S    
Cu1   Cu2   S    
C15   H6    S    
Cu1   N2    S    
H12   N1    S    
C16   C22   S    
Cu1   O7    S    
Cu2   N1    S    
C12   C17   A    
C5    C14   S    
C16   H10   S    
Cu2   O4    S    
C8    C9    A    
Cu1   O3    S    
C2    C22   S    
Cu2   O8    S    
C7    C20   S    
Br2   C3    S    
C15   H7    S    
C14   H3    S    
C23   H18   S    
C1    O1    A    
C18   C19   A    
C16   H8    S    
C8    H13   S    
C8    C12   A    
C3    C5    S    
C15   H5    S    
C12   C13   A    
C11   H15   S    
Br1   C18   S    
C7    O7    A    
C2    H17   S    
C10   C11   A    
C14   H2    S    
C21   H1    S    
C16   H9    S    
C4    C17   S    
C13   C20   A    
C9    C15   S    
Cu2   O2    S    
H11   N2    S    
C5    N2    D    
