data_mof_unit_7863.cif
_audit_creation_date              2012-12-10T16:56:31-0500
_audit_creation_method            fapswitch 2.2
_symmetry_space_group_name_H-M    P1
_symmetry_Int_Tables_number       1
_space_group_crystal_system       triclinic
_cell_length_a                    7.943284
_cell_length_b                    8.565759
_cell_length_c                    15.692876
_cell_angle_alpha                 93.735504
_cell_angle_beta                  84.22904
_cell_angle_gamma                 93.284176
_cell_volume                      1058.69357109

loop_
_atom_site_label
_atom_site_type_symbol
_atom_type_description
_atom_site_fract_x
_atom_site_fract_y
_atom_site_fract_z
_atom_type_partial_charge
C1    C     C_R   0.544790 0.793940 0.498069 0.942792
C2    C     C_R   0.455210 0.206060 0.501931 0.942791
C3    C     C_R   0.499592 0.500844 0.661699 0.885855
C4    C     C_R   0.500407 0.499156 0.338300 0.885856
C5    C     C_2   0.568242 0.957469 0.496762 -0.381099
C6    C     C_2   0.431758 0.042531 0.503238 -0.381099
C7    C     C_3   0.442530 0.635628 0.036393 -0.163638
C8    C     C_3   0.557470 0.364371 0.963607 -0.163638
C9    C     C_3   0.600704 0.620471 0.970919 -0.168352
C10   C     C_3   0.399296 0.379527 0.029080 -0.168352
C11   C     C_1   0.498448 0.501113 0.750894 -0.178215
C12   C     C_1   0.501552 0.498886 0.249106 -0.178218
C13   C     C_3   0.340737 0.515725 0.981046 -0.165692
C14   C     C_3   0.659263 0.484274 0.018954 -0.165693
C15   C     C_3   0.498920 0.500566 0.917374 0.213124
C16   C     C_3   0.501080 0.499433 0.082626 0.213124
C17   C     C_1   0.498246 0.501036 0.826370 -0.089237
C18   C     C_1   0.501754 0.498963 0.173630 -0.089237
H1    H     H_    0.682935 0.718958 0.944944 0.128997
H2    H     H_    0.317065 0.281040 0.055055 0.128997
H3    H     H_    0.395642 0.746486 0.068332 0.130773
H4    H     H_    0.604358 0.253513 0.931668 0.130773
H5    H     H_    0.789452 0.471423 0.036601 0.129130
H6    H     H_    0.210547 0.528575 0.963399 0.129130
H7    H     H_    0.697649 0.007328 0.490391 0.194784
H8    H     H_    0.302351 0.992672 0.509609 0.194785
N1    N     N_2   0.950320 0.457950 0.477300 0.025311
N2    N     N_2   0.049680 0.542050 0.522700 0.025314
O1    O     O_R   0.389250 0.738570 0.505570 -0.610837
O2    O     O_R   0.610750 0.261430 0.494430 -0.610836
O3    O     O_R   0.678390 0.711630 0.491020 -0.644137
O4    O     O_R   0.321610 0.288370 0.508980 -0.644137
O5    O     O_R   0.355460 0.513480 0.630490 -0.618837
O6    O     O_R   0.644540 0.486520 0.369510 -0.618841
O7    O     O_R   0.644600 0.486540 0.615950 -0.639745
O8    O     O_R   0.355400 0.513460 0.384050 -0.639744
Zn1   Zn    Zn3+2 0.306940 0.517990 0.509710 0.955322
Zn2   Zn    Zn3+2 0.693060 0.482010 0.490290 0.955319
N3    N     N_2   0.017591 0.331153 0.429350 -0.225706
H9    H     H_    0.144610 0.338013 0.414641 0.280323
C19   C     C_3   0.935242 0.284355 0.353154 -0.700460
H10   H     H_    0.003548 0.187581 0.316782 0.190670
H11   H     H_    0.938298 0.384086 0.311065 0.237418
H12   H     H_    0.804034 0.239094 0.369421 0.271464
N4    N     N_2   0.982409 0.668850 0.570647 -0.225699
H13   H     H_    0.855390 0.661987 0.585359 0.280324
C20   C     C_3   0.064760 0.715657 0.646842 -0.700491
H14   H     H_    0.996465 0.812442 0.683205 0.190678
H15   H     H_    0.195969 0.760905 0.630575 0.271471
H16   H     H_    0.061690 0.615940 0.688938 0.237412

loop_
_geom_bond_atom_site_label_1
_geom_bond_atom_site_label_2
_ccdc_geom_bond_type
C14   H5    S    
C7    C13   S    
C8    H4    S    
C9    C14   S    
C4    O8    A    
C8    C15   S    
N3    C19   S    
C19   H10   S    
C20   H14   S    
C1    C5    S    
O3    Zn2   S    
C3    O7    A    
C2    O2    A    
C1    O1    A    
C9    C15   S    
C20   H15   S    
C10   C16   S    
N4    H13   S    
C7    H3    S    
C19   H11   S    
C6    H8    S    
C10   H2    S    
N2    Zn1   S    
C5    H7    S    
C16   C18   S    
O8    Zn1   S    
O5    Zn1   S    
C20   H16   S    
C14   C16   S    
N4    C20   S    
C13   C15   S    
C5    C6    D    
C19   H12   S    
C4    O6    A    
N2    N4    S    
C3    C11   S    
C3    O5    A    
N1    Zn2   S    
O1    Zn1   S    
C7    C9    S    
C1    O3    A    
O7    Zn2   S    
O2    Zn2   S    
C2    O4    A    
C12   C18   T    
N3    H9    S    
C15   C17   S    
C7    C16   S    
C8    C14   S    
C4    C12   S    
O4    Zn1   S    
C9    H1    S    
C8    C10   S    
C11   C17   T    
C2    C6    S    
C13   H6    S    
N1    N3    S    
N1    N2    D    
C10   C13   S    
O6    Zn2   S    
