data_mof_unit_40168.cif
_audit_creation_date              2012-12-10T16:44:18-0500
_audit_creation_method            fapswitch 2.2
_symmetry_space_group_name_H-M    P1
_symmetry_Int_Tables_number       1
_space_group_crystal_system       triclinic
_cell_length_a                    7.436238
_cell_length_b                    8.688416
_cell_length_c                    13.269079
_cell_angle_alpha                 94.046425
_cell_angle_beta                  77.096847
_cell_angle_gamma                 103.27673
_cell_volume                      813.152558326

loop_
_atom_site_label
_atom_site_type_symbol
_atom_type_description
_atom_site_fract_x
_atom_site_fract_y
_atom_site_fract_z
_atom_type_partial_charge
C1    C     C_R   0.545472 0.800237 0.502923 0.881987
C2    C     C_R   0.399844 0.508628 0.981495 0.018755
C3    C     C_R   0.437030 0.562481 0.878299 -0.003919
C4    C     C_R   0.544704 0.556784 0.039228 0.090962
C5    C     C_R   0.702290 0.680725 0.003171 0.115931
C6    C     C_R   0.716220 0.753952 0.910952 -0.248398
C7    C     C_R   0.582491 0.700801 0.849938 0.180101
C8    C     C_R   0.541520 0.482005 0.130254 -0.234032
C9    C     C_R   0.817261 0.673453 0.159969 -0.191431
C10   C     C_R   0.326828 0.476546 0.808672 -0.121941
C11   C     C_2   0.570723 0.968210 0.504882 -0.371166
C12   C     C_R   0.396879 0.488948 0.695062 0.817148
C13   C     C_2   0.428811 0.031772 0.495972 -0.377115
C14   C     C_R   0.454447 0.199758 0.497202 0.878650
C15   C     C_R   0.602293 0.512684 0.305365 0.791910
C16   C     C_R   0.839727 0.735712 0.062690 -0.168467
C17   C     C_R   0.664190 0.548728 0.195133 -0.075745
C18   C     C_R   0.160056 0.361992 0.848281 0.114192
C19   C     C_R   0.103745 0.338782 0.954466 -0.133825
C20   C     C_R   0.217599 0.412583 0.022103 0.150003
Cu1   Cu    Cu3+1 0.321300 0.483160 0.488710 0.936335
Cu2   Cu    Cu3+1 0.678700 0.516840 0.511290 0.936216
H1    H     H_    0.913801 0.727024 0.209269 0.152417
H2    H     H_    0.292231 0.960086 0.487454 0.177827
H3    H     H_    0.010327 0.617829 0.579935 0.224468
H4    H     H_    0.989656 0.382174 0.420070 0.228069
H5    H     H_    0.829344 0.856673 0.887529 0.144870
H6    H     H_    0.958710 0.832647 0.036479 0.134257
H7    H     H_    0.440230 0.374270 0.154657 0.156573
H8    H     H_    0.968483 0.261331 0.985479 0.146636
H9    H     H_    0.707215 0.039868 0.513579 0.179202
N1    N     N_2   0.947230 0.542220 0.528320 -0.219140
N2    N     N_2   0.052770 0.457780 0.471680 -0.216623
O1    O     O_R   0.383920 0.714220 0.492660 -0.579422
O2    O     O_R   0.685730 0.742660 0.511730 -0.592394
O3    O     O_R   0.275440 0.478800 0.636790 -0.583889
O4    O     O_R   0.577250 0.507240 0.655860 -0.566769
O5    O     O_R   0.314270 0.257340 0.488270 -0.587434
O6    O     O_R   0.616080 0.285780 0.507340 -0.580130
O7    O     O_R   0.422750 0.492760 0.344140 -0.572931
O8    O     O_R   0.724560 0.521200 0.363210 -0.585533
C21   C     C_3   0.038041 0.262454 0.780018 -0.815811
H10   H     H_    0.923035 0.171378 0.824438 0.205001
H11   H     H_    0.969995 0.338400 0.743621 0.256470
H12   H     H_    0.124909 0.199042 0.719607 0.229435
C22   C     C_3   0.124438 0.402917 0.135795 -0.880497
H13   H     H_    0.129668 0.289277 0.167132 0.220058
H14   H     H_    0.187747 0.505374 0.180941 0.253152
H15   H     H_    0.973031 0.405823 0.146972 0.238939
C23   C     C_3   0.585863 0.810417 0.765877 -0.827333
H16   H     H_    0.709356 0.806931 0.701727 0.249839
H17   H     H_    0.452938 0.783742 0.737148 0.209022
H18   H     H_    0.600739 0.933785 0.796997 0.215519

loop_
_geom_bond_atom_site_label_1
_geom_bond_atom_site_label_2
_ccdc_geom_bond_type
C16   H6    S    
C23   H17   S    
C6    C7    A    
Cu2   O4    S    
C14   O5    A    
Cu2   N1    S    
H4    N2    S    
C2    C4    A    
C8    C17   A    
C1    C11   S    
C6    H5    S    
C4    C8    A    
N1    N2    D    
H3    N1    S    
C23   H16   S    
C11   H9    S    
C3    C10   A    
C13   C14   S    
Cu1   O3    S    
Cu2   O2    S    
C11   C13   D    
C22   H15   S    
C15   O8    A    
Cu1   O7    S    
C21   H11   S    
C10   C18   A    
Cu2   O6    S    
C10   C12   S    
C9    C17   A    
C9    C16   A    
C1    O1    A    
C2    C3    A    
C3    C7    A    
C18   C21   S    
C5    C6    A    
C13   H2    S    
C22   H14   S    
C15   O7    A    
Cu2   O8    S    
C12   O3    A    
C21   H10   S    
C8    H7    S    
C2    C20   A    
C23   H18   S    
Cu1   N2    S    
C1    O2    A    
C18   C19   A    
C12   O4    A    
C15   C17   S    
C22   H13   S    
C9    H1    S    
C5    C16   A    
Cu1   O1    S    
C14   O6    A    
Cu1   Cu2   S    
C19   H8    S    
C20   C22   S    
Cu1   O5    S    
C19   C20   A    
C7    C23   S    
C4    C5    A    
C21   H12   S    
