data_mof_unit_59291.cif
_audit_creation_date              2012-12-11T16:26:29-0500
_audit_creation_method            fapswitch 2.2
_symmetry_space_group_name_H-M    P1
_symmetry_Int_Tables_number       1
_space_group_crystal_system       triclinic
_cell_length_a                    14.024232
_cell_length_b                    14.048532
_cell_length_c                    31.52262
_cell_angle_alpha                 90.047977
_cell_angle_beta                  90.042737
_cell_angle_gamma                 120.132082
_cell_volume                      5371.34269441

loop_
_atom_site_label
_atom_site_type_symbol
_atom_type_description
_atom_site_fract_x
_atom_site_fract_y
_atom_site_fract_z
_atom_type_partial_charge
C1    C     C_R   0.568241 0.444501 0.811022 0.592515
C2    C     C_R   0.444426 0.568327 0.188905 0.600643
C3    C     C_2   0.045864 0.659827 0.678397 0.210767
C4    C     C_2   0.636034 0.970873 0.827138 0.228095
C5    C     C_2   0.326972 0.324725 0.674601 0.209006
C6    C     C_2   0.662073 0.037138 0.322483 0.216336
C7    C     C_2   0.970520 0.635958 0.173010 0.228506
C8    C     C_2   0.340156 0.330921 0.332234 0.227059
C9    C     C_2   0.665292 0.051332 0.175554 0.204934
C10   C     C_2   0.956726 0.616650 0.330897 0.214657
C11   C     C_2   0.371947 0.333355 0.173640 0.229278
C12   C     C_2   0.920305 0.661454 0.085926 0.193960
C13   C     C_R   0.431106 0.874721 0.311358 0.515268
C14   C     C_2   0.748115 0.105874 0.409716 0.255303
C15   C     C_2   0.337860 0.257023 0.086025 0.205505
C16   C     C_2   0.927754 0.648630 0.422923 0.263885
C17   C     C_2   0.742463 0.083202 0.085725 0.284413
C18   C     C_2   0.319716 0.270310 0.421413 0.201133
C19   C     C_2   0.668491 0.939657 0.579918 0.275361
C20   C     C_2   0.083540 0.742371 0.914444 0.284662
C21   C     C_2   0.252918 0.298298 0.584673 0.236490
C22   C     C_2   0.660910 0.920459 0.914241 0.193777
C23   C     C_2   0.134646 0.740516 0.592322 0.265974
C24   C     C_R   0.125269 0.556187 0.188731 0.589694
C25   C     C_2   0.255613 0.339697 0.913047 0.204955
C26   C     C_3   0.134727 0.406017 0.121459 -0.238179
C27   C     C_3   0.036966 0.297759 0.137621 -0.271786
C28   C     C_3   0.073079 0.216715 0.151521 -0.444777
C29   C     C_3   0.274217 0.863759 0.379743 -0.220699
C30   C     C_3   0.256068 0.957139 0.364225 -0.303673
C31   C     C_3   0.136758 0.914563 0.351239 -0.409636
C32   C     C_3   0.608270 0.721814 0.120596 -0.226760
C33   C     C_3   0.705848 0.755368 0.089840 -0.298348
C34   C     C_3   0.814711 0.845130 0.108724 -0.440854
C35   C     C_1   0.005881 0.582174 0.018112 0.102371
C36   C     C_3   0.120094 0.392994 0.379034 -0.268241
C37   C     C_3   0.058019 0.303718 0.412961 -0.299421
C38   C     C_3   0.033880 0.190262 0.397861 -0.397395
C39   C     C_3   0.277952 0.890343 0.123283 -0.225718
C40   C     C_3   0.236376 0.944147 0.090980 -0.294706
C41   C     C_3   0.145340 0.961152 0.109628 -0.426974
C42   C     C_3   0.641290 0.717572 0.366401 -0.251180
C43   C     C_3   0.746185 0.782045 0.393605 -0.282417
C44   C     C_3   0.843118 0.868261 0.367641 -0.425784
C45   C     C_3   0.393688 0.116380 0.619683 -0.208046
C46   C     C_1   0.590622 0.026361 0.479560 0.070343
C47   C     C_3   0.307277 0.053871 0.584686 -0.296743
C48   C     C_3   0.189872 0.016031 0.599341 -0.383543
C49   C     C_3   0.889628 0.278328 0.876866 -0.226269
C50   C     C_3   0.942927 0.236644 0.909373 -0.295087
C51   C     C_3   0.959817 0.145504 0.890855 -0.424696
C52   C     C_3   0.702822 0.637463 0.632035 -0.244973
C53   C     C_3   0.775306 0.724097 0.599171 -0.328840
C54   C     C_3   0.896189 0.783651 0.612152 -0.391265
C55   C     C_3   0.406319 0.135709 0.878433 -0.238175
C56   C     C_3   0.297647 0.038132 0.862272 -0.272223
C57   C     C_1   0.410104 0.421988 0.018389 0.092095
C58   C     C_3   0.216614 0.074355 0.848312 -0.442060
C59   C     C_3   0.868024 0.273864 0.620903 -0.215694
C60   C     C_3   0.964695 0.261408 0.637012 -0.309792
C61   C     C_3   0.927515 0.143878 0.650523 -0.399447
C62   C     C_3   0.721380 0.608780 0.879417 -0.226464
C63   C     C_3   0.754917 0.706334 0.910184 -0.298840
C64   C     C_3   0.844873 0.814931 0.891404 -0.440475
C65   C     C_2   0.124202 0.475390 0.034271 0.261232
C66   C     C_2   0.364049 0.907309 0.466369 0.236630
C67   C     C_2   0.492398 0.647808 0.036754 0.271827
C68   C     C_1   0.051471 0.599464 0.483928 0.162464
C69   C     C_2   0.213297 0.538410 0.455401 0.241485
C70   C     C_2   0.349236 0.844908 0.039194 0.283779
C71   C     C_2   0.594968 0.657946 0.459120 0.201056
C72   C     C_2   0.537682 0.202567 0.541555 0.261365
C73   C     C_2   0.843799 0.350218 0.960754 0.283733
C74   C     C_2   0.554171 0.660733 0.561507 0.204817
C75   C     C_2   0.475754 0.125412 0.965711 0.261742
C76   C     C_2   0.894579 0.361667 0.534018 0.224075
C77   C     C_2   0.646647 0.493567 0.963190 0.271942
C78   C     C_1   0.573910 0.990008 0.019485 0.081273
C79   C     C_1   0.427043 0.451472 0.484241 0.130149
C80   C     C_1   0.604008 0.047526 0.516798 0.094554
C81   C     C_R   0.875213 0.431051 0.688825 0.517646
C82   C     C_1   0.989629 0.574471 0.980590 0.081429
C83   C     C_1   0.423367 0.449058 0.522500 0.166893
C84   C     C_1   0.581696 0.006315 0.981981 0.101270
C85   C     C_1   0.031915 0.586573 0.521252 0.126646
C86   C     C_1   0.420382 0.411720 0.981058 0.091733
C87   C     C_R   0.935757 0.472078 0.851969 -0.035523
C88   C     C_R   0.541174 0.074001 0.646227 -0.052799
C89   C     C_R   0.528287 0.462154 0.852643 0.010450
C90   C     C_R   0.934003 0.470672 0.647485 -0.034539
C91   C     C_R   0.540973 0.072129 0.853544 0.018273
C92   C     C_R   0.556255 0.125374 0.811285 0.589465
C93   C     C_R   0.517311 0.465738 0.650173 -0.025744
C94   C     C_R   0.471764 0.931869 0.353048 -0.038150
C95   C     C_R   0.071580 0.540765 0.146494 0.018475
C96   C     C_R   0.467000 0.529329 0.352586 0.007682
C97   C     C_R   0.472034 0.935671 0.148102 -0.034127
C98   C     C_R   0.074345 0.539520 0.353942 -0.039538
C99   C     C_R   0.461666 0.528850 0.147052 0.006432
C100  C     C_R   0.999251 0.586697 0.860784 -0.048727
C101  C     C_R   0.597148 0.016820 0.635816 -0.059580
C102  C     C_R   0.413276 0.407350 0.861163 -0.048100
C103  C     C_R   0.566484 0.444816 0.689286 0.541392
C104  C     C_R   0.007496 0.584730 0.640890 -0.060043
C105  C     C_R   0.594679 0.011221 0.862398 -0.046302
C106  C     C_R   0.404345 0.390600 0.640011 -0.050243
C107  C     C_R   0.587129 0.998617 0.360025 -0.046019
C108  C     C_R   0.010754 0.594622 0.137703 -0.045523
C109  C     C_R   0.399775 0.417418 0.364934 -0.051285
C110  C     C_R   0.586801 0.998944 0.139308 -0.048155
C111  C     C_R   0.014293 0.591825 0.365267 -0.056271
C112  C     C_R   0.406681 0.414146 0.138227 -0.059846
C113  C     C_R   0.019749 0.622889 0.903775 0.037159
C114  C     C_R   0.877598 0.432526 0.810559 0.514453
C115  C     C_R   0.621902 0.009613 0.592566 0.026040
C116  C     C_R   0.375440 0.389035 0.903772 -0.020406
C117  C     C_R   0.045921 0.624349 0.599247 0.019162
C118  C     C_R   0.609298 0.988639 0.904947 -0.009788
C119  C     C_R   0.367455 0.381686 0.597394 0.029192
C120  C     C_R   0.628361 0.030792 0.401944 0.025620
C121  C     C_R   0.988241 0.609506 0.095171 -0.009680
C122  C     C_R   0.388750 0.388064 0.408487 -0.042576
C123  C     C_R   0.622803 0.019658 0.096332 0.037500
C124  C     C_R   0.006041 0.612979 0.408882 -0.007635
C125  C     C_R   0.555539 0.123945 0.689065 0.531696
C126  C     C_R   0.387697 0.376644 0.095553 -0.020292
C127  C     C_R   0.971132 0.544055 0.936491 -0.000371
C128  C     C_R   0.599100 0.067961 0.561391 0.005749
C129  C     C_R   0.452838 0.419386 0.937125 0.007582
C130  C     C_R   0.002101 0.550816 0.564598 -0.008371
C131  C     C_R   0.571573 0.028644 0.938128 0.034709
C132  C     C_R   0.438385 0.461082 0.568103 0.068429
C133  C     C_R   0.553801 0.995332 0.436266 -0.024847
C134  C     C_R   0.028108 0.571764 0.061955 0.035089
C135  C     C_R   0.446707 0.471296 0.438958 0.004876
C136  C     C_R   0.445296 0.568073 0.311006 0.592267
C137  C     C_R   0.543629 0.971489 0.063574 0.000215
C138  C     C_R   0.070043 0.594922 0.439210 0.028676
C139  C     C_R   0.417944 0.454150 0.062388 0.009777
C140  C     C_R   0.911268 0.430685 0.927157 0.014537
C141  C     C_R   0.545960 0.126799 0.572635 0.006957
C142  C     C_R   0.566897 0.475137 0.928432 0.013744
C143  C     C_R   0.934373 0.436960 0.571357 0.009342
C144  C     C_R   0.512802 0.083608 0.929527 0.036580
C145  C     C_R   0.531080 0.557150 0.582735 0.032206
C146  C     C_R   0.439105 0.936111 0.429215 -0.007709
C147  C     C_R   0.432561 0.877603 0.189459 0.517614
C148  C     C_R   0.082772 0.512677 0.070490 0.035783
C149  C     C_R   0.528951 0.577453 0.425998 0.020404
C150  C     C_R   0.430111 0.911876 0.072883 0.014604
C151  C     C_R   0.130633 0.543937 0.426944 -0.006333
C152  C     C_R   0.474014 0.567957 0.071332 0.014756
C153  C     C_R   0.910598 0.395046 0.885408 0.006723
C154  C     C_R   0.498831 0.110821 0.613316 -0.009343
C155  C     C_R   0.604220 0.511993 0.886765 -0.015420
C156  C     C_R   0.908095 0.395493 0.613074 0.000193
C157  C     C_R   0.490424 0.099006 0.887205 -0.016367
C158  C     C_R   0.123886 0.555356 0.310928 0.529438
C159  C     C_R   0.581824 0.554411 0.621354 -0.025441
C160  C     C_R   0.396988 0.908069 0.387491 -0.017071
C161  C     C_R   0.098199 0.490176 0.112780 -0.016977
C162  C     C_R   0.545014 0.606557 0.382425 -0.050834
C163  C     C_R   0.394699 0.910962 0.114679 0.006851
C164  C     C_R   0.111744 0.496231 0.386325 -0.057086
C165  C     C_R   0.511235 0.604922 0.113066 -0.014767
C166  C     C_2   0.051990 0.664733 0.824550 0.205458
C167  C     C_2   0.622634 0.961561 0.670940 0.219644
C168  C     C_2   0.332481 0.371617 0.825523 0.217530
Cr1   Cr    Cr6+3 0.504240 0.249200 0.750000 1.067053
Cr2   Cr    Cr6+3 0.744960 0.495760 0.750000 1.025247
Cr3   Cr    Cr6+3 0.750800 0.255040 0.750000 1.031322
Cr4   Cr    Cr6+3 0.249200 0.504240 0.250000 1.060938
Cr5   Cr    Cr6+3 0.495760 0.744960 0.250000 1.023977
Cr6   Cr    Cr6+3 0.255040 0.750800 0.250000 1.026789
H1    H     H_    0.020040 0.641860 0.792615 0.134785
H2    H     H_    0.643181 0.018583 0.207363 0.135466
H3    H     H_    0.796100 0.236382 0.642371 0.188667
H4    H     H_    0.836722 0.222997 0.591921 0.198229
H5    H     H_    0.916145 0.807013 0.881108 0.142785
H6    H     H_    0.812528 0.838682 0.863662 0.143339
H7    H     H_    0.873372 0.881129 0.915624 0.192280
H8    H     H_    0.787848 0.692969 0.940167 0.209990
H9    H     H_    0.682143 0.714618 0.917893 0.175739
H10   H     H_    0.782020 0.580041 0.880964 0.184384
H11   H     H_    0.727104 0.644558 0.847791 0.184049
H12   H     H_    0.068791 0.426581 0.008904 0.081298
H13   H     H_    0.946413 0.579157 0.299868 0.173295
H14   H     H_    0.371003 0.971606 0.487472 0.093399
H15   H     H_    0.504016 0.631131 0.004165 0.092624
H16   H     H_    0.261394 0.503092 0.443787 0.103360
H17   H     H_    0.362453 0.871091 0.006348 0.109935
H18   H     H_    0.585435 0.728909 0.464854 0.142443
H19   H     H_    0.545797 0.194061 0.507771 0.118274
H20   H     H_    0.869715 0.363565 0.993664 0.109443
H21   H     H_    0.632519 0.716352 0.547409 0.156992
H22   H     H_    0.427174 0.070438 0.991135 0.080878
H23   H     H_    0.952185 0.367415 0.509776 0.116038
H24   H     H_    0.302428 0.250737 0.169982 0.074086
H25   H     H_    0.629798 0.505416 0.995724 0.092260
H26   H     H_    0.858860 0.654204 0.108513 0.095563
H27   H     H_    0.797263 0.170266 0.387161 0.136329
H28   H     H_    0.350746 0.204263 0.107461 0.090898
H29   H     H_    0.847258 0.613318 0.408162 0.154120
H30   H     H_    0.802284 0.078409 0.105976 0.124851
H31   H     H_    0.303968 0.205030 0.399248 0.084979
H32   H     H_    0.644171 0.864267 0.596892 0.158030
H33   H     H_    0.578775 0.945559 0.700810 0.172129
H34   H     H_    0.078616 0.802054 0.894249 0.125530
H35   H     H_    0.187111 0.265002 0.607779 0.134318
H36   H     H_    0.653582 0.859101 0.891602 0.095075
H37   H     H_    0.195082 0.784771 0.616923 0.145331
H38   H     H_    0.203050 0.352689 0.891467 0.090478
H39   H     H_    0.115877 0.200773 0.125206 0.163222
H40   H     H_    0.128960 0.250143 0.179329 0.163547
H41   H     H_    0.999616 0.137584 0.160771 0.159528
H42   H     H_    0.995531 0.312641 0.164709 0.228048
H43   H     H_    0.975452 0.259886 0.111660 0.191860
H44   H     H_    0.249396 0.302960 0.829333 0.079288
H45   H     H_    0.165633 0.384446 0.092920 0.192063
H46   H     H_    0.206363 0.439852 0.143128 0.178936
H47   H     H_    0.115858 0.859269 0.323351 0.202164
H48   H     H_    0.080401 0.869503 0.377932 0.207796
H49   H     H_    0.125585 0.984885 0.342436 0.133149
H50   H     H_    0.277781 0.018053 0.390258 0.160202
H51   H     H_    0.310199 0.000577 0.336782 0.194498
H52   H     H_    0.239078 0.792388 0.357988 0.185007
H53   H     H_    0.223648 0.829275 0.408565 0.195419
H54   H     H_    0.806789 0.916210 0.119172 0.141914
H55   H     H_    0.052121 0.628774 0.709168 0.122768
H56   H     H_    0.838663 0.812761 0.136389 0.142466
H57   H     H_    0.880904 0.873707 0.084515 0.192572
H58   H     H_    0.692329 0.788314 0.059916 0.209896
H59   H     H_    0.714118 0.682741 0.082010 0.175961
H60   H     H_    0.579529 0.782395 0.119185 0.183878
H61   H     H_    0.644260 0.727403 0.152207 0.183891
H62   H     H_    0.975495 0.162002 0.370698 0.173767
H63   H     H_    0.110746 0.192755 0.387887 0.139688
H64   H     H_    0.996583 0.129869 0.424065 0.218508
H65   H     H_    0.107346 0.323544 0.442518 0.196967
H66   H     H_    0.710363 0.966118 0.831095 0.079319
H67   H     H_    0.978689 0.299410 0.420736 0.189607
H68   H     H_    0.080959 0.353577 0.348606 0.200002
H69   H     H_    0.207707 0.415307 0.377813 0.134402
H70   H     H_    0.076160 0.881797 0.121190 0.152106
H71   H     H_    0.177887 0.020824 0.136336 0.134440
H72   H     H_    0.113526 0.994215 0.084850 0.198321
H73   H     H_    0.201137 0.891148 0.062602 0.227757
H74   H     H_    0.305635 0.025057 0.080683 0.175889
H75   H     H_    0.218865 0.800583 0.125394 0.183705
H76   H     H_    0.278143 0.929205 0.153807 0.178251
H77   H     H_    0.333452 0.363243 0.705136 0.170784
H78   H     H_    0.863199 0.829245 0.341179 0.202822
H79   H     H_    0.823161 0.929263 0.354484 0.208450
H80   H     H_    0.916836 0.912156 0.388346 0.166539
H81   H     H_    0.731885 0.827887 0.419112 0.197698
H82   H     H_    0.770356 0.724811 0.407396 0.231367
H83   H     H_    0.671762 0.698401 0.336925 0.205798
H84   H     H_    0.609245 0.773733 0.358907 0.181482
H85   H     H_    0.165839 0.955253 0.625444 0.189197
H86   H     H_    0.182222 0.086484 0.610465 0.202771
H87   H     H_    0.132441 0.977119 0.572298 0.195847
H88   H     H_    0.632189 0.049046 0.292312 0.123550
H89   H     H_    0.324099 0.107343 0.556541 0.219946
H90   H     H_    0.311515 0.980290 0.574635 0.196897
H91   H     H_    0.353644 0.076559 0.649929 0.201446
H92   H     H_    0.413942 0.203283 0.621024 0.216183
H93   H     H_    0.880358 0.076575 0.879108 0.151599
H94   H     H_    0.019875 0.177764 0.864299 0.134230
H95   H     H_    0.992491 0.113627 0.915762 0.199485
H96   H     H_    0.889490 0.201650 0.937614 0.227556
H97   H     H_    0.023954 0.305649 0.919868 0.177564
H98   H     H_    0.799684 0.219576 0.874543 0.184087
H99   H     H_    0.965951 0.710281 0.169153 0.077680
H100  H     H_    0.928780 0.278273 0.846455 0.177177
H101  H     H_    0.907482 0.823420 0.643671 0.188616
H102  H     H_    0.926319 0.724636 0.613319 0.200785
H103  H     H_    0.945131 0.847849 0.588321 0.176153
H104  H     H_    0.767974 0.684481 0.567862 0.212101
H105  H     H_    0.751978 0.788248 0.597369 0.179338
H106  H     H_    0.705019 0.682083 0.661501 0.197215
H107  H     H_    0.744117 0.588655 0.637690 0.192853
H108  H     H_    0.200934 0.117401 0.874601 0.162482
H109  H     H_    0.250067 0.129897 0.820494 0.166355
H110  H     H_    0.258773 0.261758 0.338505 0.068757
H111  H     H_    0.137198 0.001068 0.839059 0.161674
H112  H     H_    0.312260 0.996433 0.835212 0.228891
H113  H     H_    0.259716 0.976971 0.888244 0.190618
H114  H     H_    0.384968 0.166975 0.906926 0.191916
H115  H     H_    0.440283 0.207052 0.856744 0.179607
H116  H     H_    0.872463 0.121984 0.678497 0.206109
H117  H     H_    0.883907 0.085700 0.624088 0.207298
H118  H     H_    0.000526 0.137197 0.659495 0.164780
H119  H     H_    0.026255 0.285150 0.611131 0.165531
H120  H     H_    0.006423 0.316965 0.664353 0.189046
O1    O     O_R   0.480350 0.140770 0.796330 -0.523510
O2    O     O_R   0.140770 0.480350 0.203670 -0.525401
O3    O     O_R   0.519650 0.660420 0.296330 -0.525919
O4    O     O_R   0.339580 0.859230 0.203670 -0.522962
O5    O     O_R   0.514930 0.348530 0.793250 -0.484066
O6    O     O_R   0.833600 0.485070 0.706750 -0.493090
O7    O     O_R   0.651470 0.166400 0.793250 -0.472697
O8    O     O_R   0.514930 0.348530 0.706750 -0.475500
O9    O     O_R   0.833600 0.485070 0.793250 -0.513984
O10   O     O_R   0.651470 0.166400 0.706750 -0.493967
O11   O     O_R   0.348530 0.514930 0.293250 -0.459616
O12   O     O_R   0.660420 0.519650 0.703670 -0.517833
O13   O     O_R   0.485070 0.833600 0.206750 -0.514957
O14   O     O_R   0.166400 0.651470 0.293250 -0.497549
O15   O     O_R   0.348530 0.514930 0.206750 -0.475900
O16   O     O_R   0.485070 0.833600 0.293250 -0.498671
O17   O     O_R   0.166400 0.651470 0.206750 -0.472294
O18   O     O_3   0.666667 0.333333 0.750000 -0.242203
O19   O     O_3   0.333333 0.666667 0.250000 -0.246527
O20   O     O_2   0.136441 0.753199 0.829136 -0.527184
O21   O     O_2   0.693036 0.935265 0.667743 -0.556478
O22   O     O_2   0.357154 0.420604 0.791725 -0.506848
O23   O     O_R   0.859230 0.339580 0.796330 -0.524992
O24   O     O_2   0.066976 0.755158 0.675886 -0.549729
O25   O     O_2   0.585895 0.940202 0.793605 -0.490052
O26   O     O_2   0.260493 0.226949 0.670437 -0.565932
O27   O     O_2   0.755643 0.052442 0.324177 -0.558624
O28   O     O_2   0.939786 0.585846 0.206475 -0.488889
O29   O     O_2   0.383063 0.335160 0.298085 -0.433390
O30   O     O_2   0.753272 0.136367 0.171135 -0.527780
O31   O     O_2   0.921365 0.679289 0.336185 -0.564820
O32   O     O_2   0.423008 0.357515 0.207028 -0.426270
O33   O     O_2   0.932876 0.713830 0.053464 -0.503430
O34   O     O_R   0.480350 0.140770 0.703670 -0.500240
O35   O     O_2   0.793171 0.096392 0.441277 -0.491552
O36   O     O_2   0.280874 0.215788 0.054566 -0.474349
O37   O     O_2   0.952288 0.717186 0.450939 -0.478174
O38   O     O_2   0.775798 0.142660 0.054564 -0.497514
O39   O     O_2   0.278838 0.244114 0.456669 -0.460035
O40   O     O_2   0.734423 0.965720 0.550834 -0.489907
O41   O     O_2   0.143317 0.775697 0.945612 -0.497236
O42   O     O_2   0.229891 0.265845 0.548138 -0.465227
O43   O     O_2   0.713111 0.932733 0.946800 -0.503349
O44   O     O_2   0.141523 0.788256 0.559141 -0.494516
O45   O     O_R   0.660420 0.519650 0.796330 -0.524075
O46   O     O_2   0.213997 0.283058 0.944472 -0.475284
O47   O     O_2   0.221787 0.503960 0.031623 -0.463524
O48   O     O_2   0.298725 0.811384 0.474838 -0.433983
O49   O     O_2   0.491006 0.732227 0.044256 -0.494367
O50   O     O_2   0.232511 0.576543 0.491234 -0.445106
O51   O     O_2   0.268459 0.756503 0.047788 -0.461670
O52   O     O_2   0.661925 0.645547 0.479571 -0.521362
O53   O     O_2   0.526482 0.278998 0.553599 -0.505828
O54   O     O_2   0.755244 0.269634 0.952002 -0.462135
O55   O     O_2   0.480268 0.682120 0.557601 -0.484390
O56   O     O_R   0.859230 0.339580 0.703670 -0.521785
O57   O     O_2   0.504312 0.222842 0.968276 -0.462682
O58   O     O_2   0.796485 0.296799 0.529136 -0.504242
O59   O     O_2   0.731184 0.491986 0.955898 -0.493960
O60   O     O_R   0.140770 0.480350 0.296330 -0.516267
O61   O     O_R   0.519650 0.660420 0.203670 -0.522445
O62   O     O_R   0.339580 0.859230 0.296330 -0.518253

loop_
_geom_bond_atom_site_label_1
_geom_bond_atom_site_label_2
_ccdc_geom_bond_type
C66   H14   S    
C68   C138  S    
C70   C150  S    
C152  C165  A    
C32   H60   S    
C150  C163  A    
C49   C153  S    
C42   H83   S    
Cr2   O9    S    
C92   O7    A    
C141  C154  A    
C89   C155  A    
C14   H27   S    
Cr3   O18   S    
C9    H2    S    
C120  C133  A    
C93   C159  A    
C118  C131  A    
C31   H47   S    
C125  O10   A    
C50   H96   S    
C73   O54   D    
C51   H93   S    
C66   O48   D    
C87   C153  A    
C71   H18   S    
C1    O45   A    
C33   H58   S    
C45   H91   S    
C111  C124  A    
C59   C60   S    
C73   H20   S    
C81   O56   A    
C71   O52   D    
C18   O39   D    
C35   C134  S    
C45   C47   S    
C53   H104  S    
C94   C107  A    
C63   H9    S    
C41   H70   S    
C129  C142  A    
C58   H108  S    
C61   H117  S    
Cr4   O60   S    
C125  O34   A    
C43   C44   S    
C37   C38   S    
C110  C123  A    
C147  O4    A    
C15   O36   D    
C26   C27   S    
C10   C111  S    
C24   O17   A    
Cr1   O5    S    
C90   C104  A    
Cr2   O6    S    
C18   C122  S    
C81   C90   S    
C27   H42   S    
C101  C115  A    
C105  C118  A    
C107  C120  A    
C91   C92   S    
C55   H115  S    
C104  C117  A    
C9    C110  S    
C22   C118  S    
C48   H86   S    
C102  C168  S    
C11   C112  S    
C36   H69   S    
C6    O27   D    
C25   O46   D    
Cr1   O18   S    
C138  C151  A    
C96   C109  A    
C26   C161  S    
C13   C94   S    
C16   C124  S    
C21   C119  S    
C22   H36   S    
C96   C162  A    
C66   C146  S    
C37   H65   S    
C95   C108  A    
C22   O43   D    
Cr3   O23   S    
C54   H102  S    
C158  O14   A    
C56   H112  S    
C149  C162  A    
Cr2   O45   S    
C99   C165  A    
C41   H72   S    
C91   C105  A    
C74   C145  S    
C34   H57   S    
C93   C103  S    
C53   C54   S    
C92   O1    A    
C29   C30   S    
C132  C145  A    
C36   C37   S    
C76   H23   S    
C95   C161  A    
C20   C113  S    
C145  C159  A    
C146  C160  A    
C48   H87   S    
C62   C155  S    
C20   O41   D    
C12   C121  S    
C168  O22   D    
C67   O49   D    
C75   H22   S    
C9    O30   D    
C68   C85   T    
C97   C147  S    
C29   H52   S    
C21   O42   D    
C24   O2    A    
C35   C82   T    
C33   C34   S    
C29   C160  S    
C126  C139  A    
C37   H67   S    
Cr3   O56   S    
C25   C116  S    
C39   C40   S    
C64   H5    S    
C80   C128  S    
C166  O20   D    
C115  C128  A    
Cr6   O4    S    
Cr5   O3    S    
C88   C154  A    
C34   H54   S    
C49   H98   S    
C88   C125  S    
C130  C143  A    
C93   C106  A    
C38   H64   S    
C16   O37   D    
C60   H119  S    
C12   H26   S    
C75   O57   D    
C6    H88   S    
C114  O23   A    
C2    C99   S    
C137  C150  A    
C127  C140  A    
C90   C156  A    
C78   C137  S    
C40   H73   S    
C33   H59   S    
C52   C53   S    
C87   C100  A    
C28   H39   S    
C74   H21   S    
C94   C160  A    
C26   H45   S    
C59   H4    S    
C69   H16   S    
C23   C117  S    
C17   O38   D    
C59   C156  S    
C42   C162  S    
C45   C154  S    
C47   H90   S    
C123  C137  A    
C139  C152  A    
C36   H68   S    
C11   H24   S    
C42   H84   S    
C46   C80   T    
Cr3   O7    S    
C39   H76   S    
C28   H41   S    
C114  O9    A    
C56   C58   S    
C62   H10   S    
C63   C64   S    
C14   O35   D    
C50   H97   S    
C151  C164  A    
C20   H34   S    
C144  C157  A    
C43   H82   S    
C55   C56   S    
C106  C119  A    
C108  C121  A    
C3    H55   S    
C96   C136  S    
C136  O3    A    
C166  H1    S    
C69   O50   D    
C18   H31   S    
C124  C138  A    
C38   H62   S    
C30   C31   S    
C8    H110  S    
C44   H79   S    
C58   H109  S    
C61   H116  S    
C57   C139  S    
C158  O60   A    
C52   H107  S    
C65   H12   S    
C103  O8    A    
C98   C158  S    
C97   C163  A    
C2    O15   A    
Cr4   O11   S    
C19   H32   S    
C6    C107  S    
C65   O47   D    
C121  C134  A    
C128  C141  A    
C112  C126  A    
C140  C153  A    
C13   O62   A    
C67   C152  S    
C32   C165  S    
C76   O58   D    
C70   H17   S    
C5    C106  S    
C72   C141  S    
Cr5   O13   S    
C10   O31   D    
Cr6   O14   S    
C81   O6    A    
C72   H19   S    
Cr2   O18   S    
C60   C61   S    
C25   H38   S    
C62   C63   S    
C85   C130  S    
C31   H48   S    
C103  O12   A    
C51   H94   S    
C50   C51   S    
C4    H66   S    
C11   O32   D    
C65   C148  S    
C45   H92   S    
C49   H100  S    
C27   H43   S    
C54   H103  S    
C14   C120  S    
C24   C95   S    
C42   C43   S    
C39   C163  S    
Cr4   O2    S    
C53   H105  S    
C41   H71   S    
C1    O5    A    
C119  C132  A    
C77   O59   D    
C61   H118  S    
C79   C135  S    
C167  O21   D    
C32   C33   S    
C83   C132  S    
C46   C133  S    
C79   C83   T    
C74   O55   D    
C71   C149  S    
C23   H37   S    
C21   H35   S    
Cr5   O16   S    
Cr6   O19   S    
C122  C135  A    
C91   C157  A    
C75   C144  S    
C76   C143  S    
C55   C157  S    
C36   C164  S    
C72   O53   D    
Cr6   O62   S    
C133  C146  A    
C131  C144  A    
C5    O26   D    
C32   H61   S    
C3    C104  S    
C19   O40   D    
C48   H85   S    
C89   C102  A    
C5    H77   S    
C88   C101  A    
C148  C161  A    
C12   O33   D    
Cr2   O12   S    
C2    O61   A    
C64   H6    S    
C109  C122  A    
C70   O51   D    
C147  O13   A    
C57   C86   T    
C100  C166  S    
C13   O16   A    
C3    O24   D    
C101  C167  S    
C77   C142  S    
C87   C114  S    
C136  O11   A    
C17   C123  S    
C60   H120  S    
C116  C129  A    
C54   H101  S    
C15   C126  S    
C142  C155  A    
C16   H29   S    
C52   H106  S    
C52   C159  S    
C63   H8    S    
C7    O28   D    
C30   H51   S    
Cr5   O19   S    
C34   H56   S    
Cr1   O1    S    
C40   H74   S    
C44   H78   S    
C28   H40   S    
C26   H46   S    
C69   C151  S    
C59   H3    S    
C8    O29   D    
C30   H50   S    
C47   H89   S    
C135  C149  A    
Cr4   O15   S    
C167  H33   S    
Cr6   O17   S    
C17   H30   S    
Cr1   O8    S    
C23   O44   D    
Cr3   O10   S    
C47   C48   S    
C39   H75   S    
C19   C115  S    
C10   H13   S    
C117  C130  A    
C77   H25   S    
C4    O25   D    
C62   H11   S    
C31   H49   S    
C64   H7    S    
C40   C41   S    
C49   C50   S    
C51   H95   S    
C29   H53   S    
C15   H28   S    
Cr5   O61   S    
C43   H81   S    
C1    C89   S    
C98   C111  A    
C100  C113  A    
C7    H99   S    
C98   C164  A    
C67   H15   S    
C86   C129  S    
C113  C127  A    
C73   C140  S    
C134  C148  A    
C4    C105  S    
C84   C131  S    
Cr4   O19   S    
C8    C109  S    
C38   H63   S    
C97   C110  A    
C44   H80   S    
C143  C156  A    
Cr1   O34   S    
C99   C112  A    
C55   H114  S    
C56   H113  S    
C82   C127  S    
C102  C116  A    
C78   C84   T    
C27   C28   S    
C7    C108  S    
C168  H44   S    
C58   H111  S    
