data_mof_unit_50045.cif
_audit_creation_date              2012-12-10T19:03:35-0500
_audit_creation_method            fapswitch 2.2
_symmetry_space_group_name_H-M    P1
_symmetry_Int_Tables_number       1
_space_group_crystal_system       triclinic
_cell_length_a                    15.892252
_cell_length_b                    10.820038
_cell_length_c                    9.54647
_cell_angle_alpha                 89.711706
_cell_angle_beta                  90.061653
_cell_angle_gamma                 90.104707
_cell_volume                      1641.53660274

loop_
_atom_site_label
_atom_site_type_symbol
_atom_type_description
_atom_site_fract_x
_atom_site_fract_y
_atom_site_fract_z
_atom_type_partial_charge
C1    C     C_R   0.501313 0.262403 0.500371 0.790381
C2    C     C_3   0.950448 0.442377 0.637281 -0.471404
C3    C     C_3   0.916849 0.505408 0.500514 0.243767
C4    C     C_3   0.950728 0.641972 0.490435 0.367399
C5    C     C_3   0.049334 0.637779 0.499151 -0.448434
C6    C     C_1   0.824659 0.503346 0.500445 -0.006006
C7    C     C_1   0.175288 0.501099 0.499997 -0.087195
C8    C     C_1   0.250741 0.500603 0.499850 -0.205108
C9    C     C_R   0.494615 0.063227 0.625370 0.143905
C10   C     C_R   0.508905 0.129419 0.501909 -0.097891
C11   C     C_R   0.534209 0.065503 0.381437 -0.222835
C12   C     C_R   0.340268 0.500081 0.499983 0.824650
C13   C     C_R   0.534288 0.936647 0.381443 -0.210544
C14   C     C_R   0.508495 0.871057 0.501321 -0.098178
C15   C     C_R   0.494221 0.935948 0.625065 0.123998
C16   C     C_3   0.421125 0.929487 0.723295 -0.475782
C17   C     C_3   0.421894 0.069746 0.723951 -0.480299
C18   C     C_R   0.565763 0.550307 0.073499 0.216699
C19   C     C_R   0.439566 0.439211 0.074643 -0.085615
C20   C     C_R   0.439532 0.439250 0.925800 -0.076559
C21   C     C_R   0.566107 0.549644 0.925822 0.170879
C22   C     C_3   0.597120 0.680313 0.917826 -0.129124
C23   C     C_R   0.501289 0.737740 0.499921 0.800917
C24   C     C_3   0.595035 0.681478 0.078149 -0.079906
C25   C     C_R   0.659720 0.500365 0.500028 0.827191
C26   C     C_3   0.047820 0.428809 0.631065 -0.003477
C27   C     C_3   0.048158 0.430707 0.369383 -0.034295
C28   C     C_3   0.950172 0.429121 0.373669 -0.424565
C29   C     C_1   0.749223 0.501812 0.500252 -0.174519
C30   C     C_3   0.083105 0.501691 0.500574 0.238139
Cu1   Cu    Cu3+1 0.500000 0.499980 0.640670 0.935912
Cu2   Cu    Cu3+1 0.500000 0.500020 0.359330 0.949628
H1    H     H_    0.921780 0.348775 0.648127 0.150746
H2    H     H_    0.930545 0.492822 0.732333 0.188681
H3    H     H_    0.550813 0.114505 0.286147 0.165597
H4    H     H_    0.551630 0.889302 0.286716 0.161527
H5    H     H_    0.363870 0.889557 0.673834 0.193887
H6    H     H_    0.438253 0.888538 0.826351 0.190401
H7    H     H_    0.364992 0.111564 0.675230 0.187263
H8    H     H_    0.440182 0.109289 0.826874 0.198893
H9    H     H_    0.389832 0.391741 0.130487 0.141005
H10   H     H_    0.058571 0.328962 0.608794 0.100542
H11   H     H_    0.389770 0.391809 0.870328 0.138534
H12   H     H_    0.551238 0.745327 0.869925 0.163308
H13   H     H_    0.546555 0.744554 0.120497 0.145402
H14   H     H_    0.069139 0.332553 0.376565 0.137015
H15   H     H_    0.928308 0.331689 0.384621 0.146729
H16   H     H_    0.922908 0.462217 0.273063 0.196751
H17   H     H_    0.071287 0.687757 0.592947 0.168108
H18   H     H_    0.077868 0.691219 0.411679 0.140715
N1    N     N_R   0.500530 0.500930 0.147930 -0.195062
N2    N     N_R   0.500530 0.500890 0.852020 -0.189456
O1    O     O_R   0.500000 0.319640 0.618810 -0.577034
O2    O     O_R   0.500010 0.319680 0.381230 -0.586615
O3    O     O_R   0.379430 0.499990 0.618840 -0.580392
O4    O     O_R   0.379440 0.500030 0.381260 -0.581750
O5    O     O_R   0.499990 0.680320 0.618770 -0.587224
O6    O     O_R   0.500000 0.680360 0.381190 -0.576845
O7    O     O_R   0.620560 0.499970 0.618740 -0.585344
O8    O     O_R   0.620570 0.500010 0.381160 -0.553709
C31   C     C_3   0.092922 0.442157 0.775111 -0.366650
C32   C     C_3   0.103660 0.572446 0.832701 -0.820643
H19   H     H_    0.150276 0.625291 0.770078 0.246447
H20   H     H_    0.042796 0.621345 0.837709 0.237850
H21   H     H_    0.128782 0.566245 0.941093 0.239177
H22   H     H_    0.057649 0.386582 0.853943 0.204211
H23   H     H_    0.156510 0.399857 0.768099 0.194585
N3    N     N_3   0.923107 0.699523 0.357534 -0.574403
H24   H     H_    0.940370 0.792869 0.356539 0.203859
H25   H     H_    0.953533 0.661020 0.271722 0.204310
N4    N     N_3   0.681614 0.691390 0.857091 -0.571222
H26   H     H_    0.674758 0.706849 0.749512 0.248845
H27   H     H_    0.714842 0.608485 0.868339 0.225547
N5    N     N_3   0.676699 0.694307 0.148222 -0.541453
H28   H     H_    0.701957 0.780492 0.121367 0.243228
H29   H     H_    0.718630 0.626127 0.114835 0.235874
N6    N     N_3   0.079484 0.477198 0.234121 -0.600950
H30   H     H_    0.142928 0.453396 0.223984 0.220815
H31   H     H_    0.076096 0.573041 0.227312 0.220026
N7    N     N_3   0.915850 0.717104 0.605207 -0.574400
H32   H     H_    0.939485 0.689640 0.702054 0.196735
H33   H     H_    0.935243 0.808953 0.592795 0.204808

loop_
_geom_bond_atom_site_label_1
_geom_bond_atom_site_label_2
_ccdc_geom_bond_type
C23   O6    A    
C28   H15   S    
C18   C21   A    
C19   C20   A    
Cu2   O6    S    
Cu1   N2    S    
C3    C6    S    
C7    C8    T    
N6    H30   S    
C26   H10   S    
N5    H29   S    
C18   C24   S    
C24   H13   S    
C3    C28   S    
C26   C31   S    
C4    N7    S    
C15   C16   S    
C17   H7    S    
Cu1   O7    S    
C1    O1    A    
C32   H20   S    
N3    H24   S    
C31   H22   S    
C22   H12   S    
C16   C17   S    
C25   O8    A    
C9    C10   A    
C16   H5    S    
C2    H2    S    
C7    C30   S    
C13   C14   A    
C27   C30   S    
C5    H17   S    
Cu2   O2    S    
C18   N1    A    
N6    H31   S    
C25   C29   S    
N5    H28   S    
C13   H4    S    
N7    H33   S    
N4    H27   S    
N7    H32   S    
C17   H8    S    
C14   C23   S    
C1    O2    A    
Cu2   N1    S    
C32   H19   S    
C31   H23   S    
Cu1   Cu2   S    
C8    C12   S    
C2    C26   S    
Cu1   O1    S    
C12   O4    A    
C2    H1    S    
C9    C17   S    
C26   C30   S    
C22   C24   S    
C5    H18   S    
Cu2   O8    S    
C3    C4    S    
C22   N4    S    
C20   H11   S    
C27   H14   S    
C4    N3    S    
C5    C30   S    
C23   O5    A    
C28   H16   S    
C32   H21   S    
C1    C10   S    
C4    C5    S    
C27   N6    S    
Cu1   O5    S    
C11   H3    S    
C2    C3    S    
C9    C15   A    
N4    H26   S    
C20   N2    A    
C11   C13   A    
C24   N5    S    
C31   C32   S    
C12   O3    A    
C10   C11   A    
C19   N1    A    
C6    C29   T    
N3    H25   S    
C27   C28   S    
C14   C15   A    
C25   O7    A    
Cu1   O3    S    
C21   C22   S    
Cu2   O4    S    
C21   N2    A    
C19   H9    S    
C16   H6    S    
