data_mof_unit_12108.cif
_audit_creation_date              2012-12-11T20:55:28-0500
_audit_creation_method            fapswitch 2.2
_symmetry_space_group_name_H-M    P1
_symmetry_Int_Tables_number       1
_space_group_crystal_system       triclinic
_cell_length_a                    8.314637
_cell_length_b                    19.072955
_cell_length_c                    22.813476
_cell_angle_alpha                 100.16913
_cell_angle_beta                  90.120125
_cell_angle_gamma                 91.898017
_cell_volume                      3558.96487981

loop_
_atom_site_label
_atom_site_type_symbol
_atom_type_description
_atom_site_fract_x
_atom_site_fract_y
_atom_site_fract_z
_atom_type_partial_charge
Ba1   Ba    Ba6+2 0.157290 0.533910 0.474710 1.647277
Ba2   Ba    Ba6+2 0.652900 0.466090 0.525240 1.633674
C1    C     C_3   0.355950 0.745677 0.268473 -0.348234
C2    C     C_3   0.413378 0.718107 0.323259 0.335224
C3    C     C_3   0.484323 0.684348 0.619893 0.308034
C4    C     C_3   0.492977 0.764999 0.638061 -0.379269
C5    C     C_3   0.883592 0.282890 0.650266 0.367904
C6    C     C_3   0.864511 0.209931 0.669108 -0.206010
C7    C     C_3   0.405393 0.307581 0.680365 0.304820
C8    C     C_3   0.453345 0.288622 0.739788 -0.369170
C9    C     C_R   0.952834 0.198094 0.470952 -0.151061
C10   C     C_R   0.986093 0.272597 0.480919 0.063165
C11   C     C_R   0.136118 0.188217 0.550880 -0.158575
C12   C     C_3   0.922115 0.722579 0.346980 0.390810
C13   C     C_R   0.202780 0.255168 0.545739 0.005279
C14   C     C_R   0.676487 0.810058 0.447992 -0.164847
C15   C     C_R   0.607598 0.743927 0.454414 -0.006314
C16   C     C_R   0.858573 0.801608 0.528616 -0.150042
C17   C     C_R   0.821570 0.727484 0.520494 0.055197
C18   C     C_R   0.018217 0.154032 0.509546 -0.001475
C19   C     C_R   0.116982 0.299695 0.516494 -0.236300
C20   C     C_R   0.794439 0.844754 0.489047 0.002445
C21   C     C_R   0.689008 0.700616 0.486117 -0.240108
C22   C     C_R   0.228657 0.034976 0.537194 -0.077616
C23   C     C_3   0.943422 0.793315 0.325262 -0.371889
C24   C     C_R   0.322320 0.983396 0.554855 -0.083419
C25   C     C_R   0.276369 0.912648 0.538221 -0.067070
C26   C     C_R   0.131272 0.894895 0.508235 -0.075289
C27   C     C_R   0.014314 0.946122 0.506131 0.012009
C28   C     C_R   0.067581 0.019919 0.517003 0.039263
C29   C     C_R   0.851498 0.923693 0.490662 -0.016516
C30   C     C_R   0.746243 0.978474 0.479982 0.039238
C31   C     C_R   0.799455 0.052230 0.491187 0.012960
C32   C     C_R   0.962027 0.074741 0.506815 -0.017338
C33   C     C_R   0.585487 0.963623 0.459130 -0.078248
C34   C     C_3   0.841012 0.380204 0.342779 0.301750
C35   C     C_R   0.492412 0.015542 0.441566 -0.082177
C36   C     C_R   0.538193 0.086237 0.458924 -0.069340
C37   C     C_R   0.682582 0.103440 0.489389 -0.079833
C38   C     C_R   0.638940 0.527288 0.336800 -0.300569
C39   C     C_R   0.369539 0.564026 0.948589 -0.025207
C40   C     C_R   0.322693 0.559726 0.888547 0.587144
C41   C     C_R   0.246649 0.435857 0.881818 0.578729
C42   C     C_R   0.295731 0.437978 0.941430 -0.020608
C43   C     C_R   0.357239 0.502562 0.974944 -0.052416
C44   C     C_R   0.428708 0.628374 0.982854 -0.076560
C45   C     C_3   0.866256 0.366646 0.275697 -0.354987
C46   C     C_R   0.474965 0.631703 0.042162 -0.078146
C47   C     C_R   0.464888 0.570638 0.068917 -0.019608
C48   C     C_R   0.406430 0.505757 0.035110 -0.053508
C49   C     C_R   0.285845 0.376931 0.968199 -0.077942
C50   C     C_R   0.336957 0.379797 0.026989 -0.074848
C51   C     C_R   0.397460 0.444037 0.061144 -0.023933
C52   C     C_R   0.449658 0.447866 0.120639 0.586969
C53   C     C_R   0.511198 0.573220 0.128812 0.585860
C54   C     C_2   0.069334 0.475330 0.773108 -0.072906
C55   C     C_3   0.025937 0.481221 0.709534 -0.051780
C56   C     C_3   0.999991 0.631867 0.659524 0.299954
C57   C     C_1   0.305832 0.510821 0.694214 0.011269
C58   C     C_2   0.346746 0.510852 0.750378 -0.100700
C59   C     C_2   0.221934 0.492482 0.793325 0.214843
C60   C     C_R   0.700817 0.547746 0.237407 -0.099768
C61   C     C_R   0.744262 0.553077 0.297428 -0.045892
C62   C     C_R   0.495005 0.491723 0.316204 0.056843
C63   C     C_R   0.449155 0.487632 0.256400 -0.081134
C64   C     C_R   0.550699 0.516354 0.216366 0.205897
C65   C     C_2   0.174021 0.476592 0.671022 -0.279753
C66   C     C_3   0.037210 0.661286 0.724812 -0.361471
C67   C     C_3   0.403728 0.301917 0.372314 0.316761
C68   C     C_3   0.522365 0.246575 0.343373 -0.311968
H1    H     H_    0.411805 0.658808 0.313392 0.037607
H2    H     H_    0.789004 0.320839 0.253899 0.119732
H3    H     H_    0.835345 0.414228 0.256892 0.072523
H4    H     H_    0.994282 0.354872 0.265726 0.141360
H5    H     H_    0.113080 0.614417 0.636915 0.022456
H6    H     H_    0.912687 0.586041 0.656137 0.037502
H7    H     H_    0.116981 0.709776 0.728510 0.146244
H8    H     H_    0.099291 0.621741 0.746013 0.082773
H9    H     H_    0.923867 0.675274 0.749122 0.119780
H10   H     H_    0.449212 0.329723 0.416075 0.097307
H11   H     H_    0.238189 0.720174 0.252773 0.157373
H12   H     H_    0.463604 0.207057 0.307400 0.096790
H13   H     H_    0.572519 0.217702 0.377138 0.093759
H14   H     H_    0.620729 0.272311 0.322047 0.135093
H15   H     H_    0.538302 0.739264 0.332416 -0.043632
H16   H     H_    0.444536 0.733425 0.232199 0.136996
H17   H     H_    0.607086 0.665894 0.608018 0.017542
H18   H     H_    0.403886 0.670905 0.580294 0.075595
H19   H     H_    0.575080 0.780667 0.676963 0.130663
H20   H     H_    0.539244 0.789583 0.600509 0.057230
H21   H     H_    0.371205 0.785009 0.649892 0.124587
H22   H     H_    0.344573 0.804407 0.278977 0.099483
H23   H     H_    0.878718 0.835545 0.354662 0.068276
H24   H     H_    0.795126 0.284028 0.613844 0.077735
H25   H     H_    0.006815 0.290119 0.633939 -0.048912
H26   H     H_    0.743343 0.204274 0.688436 0.137792
H27   H     H_    0.873210 0.167411 0.629265 0.071432
H28   H     H_    0.272376 0.301290 0.675807 -0.034757
H29   H     H_    0.441831 0.364167 0.680613 0.076736
H30   H     H_    0.390980 0.323172 0.776239 0.135663
H31   H     H_    0.584890 0.297168 0.747171 0.152710
H32   H     H_    0.974273 0.728549 0.392604 0.064336
H33   H     H_    0.419377 0.232044 0.740792 0.114347
H34   H     H_    0.870697 0.176079 0.435119 0.069623
H35   H     H_    0.177460 0.164566 0.587517 0.067099
H36   H     H_    0.636187 0.832937 0.410824 0.060295
H37   H     H_    0.942629 0.823883 0.563716 0.075333
H38   H     H_    0.159910 0.354071 0.517505 0.071601
H39   H     H_    0.643593 0.646908 0.486648 0.065901
H40   H     H_    0.292950 0.083926 0.536167 0.076658
H41   H     H_    0.440940 0.997617 0.573869 0.079651
H42   H     H_    0.359028 0.872161 0.544843 0.100457
H43   H     H_    0.791448 0.709352 0.348173 -0.087459
H44   H     H_    0.109347 0.840761 0.486835 0.126727
H45   H     H_    0.520519 0.914746 0.459653 0.075184
H46   H     H_    0.374102 0.001552 0.422190 0.077758
H47   H     H_    0.456104 0.127159 0.452670 0.093874
H48   H     H_    0.704325 0.157138 0.511522 0.126303
H49   H     H_    0.328123 0.331452 0.045732 0.123217
H50   H     H_    0.239573 0.326465 0.943588 0.120194
H51   H     H_    0.519401 0.682382 0.066976 0.119664
H52   H     H_    0.784549 0.566828 0.207021 0.109716
H53   H     H_    0.439251 0.676552 0.963927 0.123426
H54   H     H_    0.072508 0.809832 0.325808 0.141353
H55   H     H_    0.469484 0.524410 0.765547 0.108681
H56   H     H_    0.975345 0.464429 0.803551 0.098610
H57   H     H_    0.336123 0.460956 0.240839 0.125829
H58   H     H_    0.675190 0.529863 0.382730 0.079611
H59   H     H_    0.175857 0.442220 0.627674 0.058082
H60   H     H_    0.895039 0.788215 0.279237 0.122522
H61   H     H_    0.713912 0.392888 0.352393 -0.032826
H62   H     H_    0.919503 0.426581 0.362186 0.092299
N1    N     N_R   0.263513 0.495979 0.855698 -0.427675
N2    N     N_R   0.503297 0.512301 0.154307 -0.424036
O1    O     O_2   0.108070 0.674980 0.540650 -0.457069
O2    O     O_3   0.371821 0.348646 0.333003 -0.622257
O3    O     O_3   0.001433 0.669782 0.308061 -0.583130
O4    O     O_2   0.702240 0.324970 0.459330 -0.475286
O5    O     O_3   0.948380 0.413820 0.464520 -0.490308
O6    O     O_3   0.443920 0.371740 0.566130 -0.464510
O7    O     O_3   0.878089 0.318445 0.364902 -0.644107
O8    O     O_3   0.358830 0.538360 0.571050 -0.478717
O9    O     O_3   0.852160 0.408490 0.597560 -0.485903
O10   O     O_2   0.695799 0.448878 0.698616 -0.486714
O11   O     O_3   0.856075 0.336743 0.699115 -0.603287
O12   O     O_3   0.861930 0.586170 0.535430 -0.486736
O13   O     O_3   0.451480 0.461630 0.428900 -0.498459
O14   O     O_2   0.599240 0.538720 0.642170 -0.454804
O15   O     O_3   0.424451 0.653732 0.667508 -0.633354
O16   O     O_2   0.524712 0.246123 0.518242 -0.509517
O17   O     O_3   0.482494 0.262690 0.634152 -0.604413
O18   O     O_2   0.333109 0.612952 0.865586 -0.593534
O19   O     O_2   0.190006 0.380389 0.853030 -0.610780
O20   O     O_2   0.449253 0.393585 0.142210 -0.596589
O21   O     O_2   0.557457 0.630016 0.158465 -0.621730
O22   O     O_3   0.366390 0.628250 0.433820 -0.461153
O23   O     O_2   0.292373 0.752182 0.487595 -0.502616
O24   O     O_3   0.932291 0.685982 0.634736 -0.636097
O25   O     O_3   0.312683 0.742197 0.371554 -0.587330
O26   O     O_2   0.211060 0.461230 0.357810 -0.454727
O27   O     O_3   0.958150 0.591500 0.402390 -0.484641
O28   O     O_2   0.075138 0.536706 0.295841 -0.481538
P1    P     P_3+3 0.933470 0.664380 0.557030 0.983225
P2    P     P_3+3 0.383600 0.440030 0.365120 0.993179
P3    P     P_3+3 0.944639 0.586799 0.325268 0.963600
P4    P     P_3+3 0.876840 0.335610 0.442930 0.964708
P5    P     P_3+3 0.859151 0.419430 0.675662 0.962819
P6    P     P_3+3 0.397023 0.718550 0.435252 0.937016
P7    P     P_3+3 0.418566 0.560897 0.645790 0.959582
P8    P     P_3+3 0.411574 0.282023 0.566904 0.922630
C69   C     C_3   0.248250 0.262876 0.381808 -0.340488
H63   H     H_    0.198494 0.231941 0.339403 0.127213
H64   H     H_    0.265383 0.226706 0.414317 0.052156
H65   H     H_    0.164371 0.304499 0.398317 0.091409
C70   C     C_3   0.992354 0.199095 0.714522 -0.388495
H66   H     H_    0.987473 0.241246 0.754795 0.182688
H67   H     H_    0.970650 0.146478 0.728046 0.120562
H68   H     H_    0.114010 0.200030 0.694787 0.116231

loop_
_geom_bond_atom_site_label_1
_geom_bond_atom_site_label_2
_ccdc_geom_bond_type
C69   H63   S    
C23   H23   S    
C7    H28   S    
Ba1   O22   S    
C39   C40   A    
C6    H26   S    
C34   O7    S    
O3    P3    S    
C6    C70   S    
C56   H6    S    
C5    C6    S    
C70   H67   S    
C35   H46   S    
C51   C52   A    
O25   P6    S    
C53   O21   D    
C69   H64   S    
O7    P4    S    
C60   C61   A    
O17   P8    S    
C40   N1    Am   
O15   P7    S    
Ba2   O5    S    
C63   H57   S    
C26   C27   A    
C33   C35   A    
C35   C36   A    
C22   C24   A    
Ba1   Ba2   S    
O13   P2    S    
C34   H62   S    
C10   P4    S    
C3    C4    S    
C12   H32   S    
C2    O25   S    
O22   P6    S    
Ba2   O14   S    
C4    H21   S    
C52   N2    Am   
C53   N2    Am   
C3    O15   S    
C54   C55   S    
C34   C45   S    
C16   C17   A    
C67   C69   S    
C41   N1    Am   
C4    H19   S    
C16   H37   S    
Ba1   O8    S    
C57   C65   D    
C64   N2    S    
C36   H47   S    
C31   C37   A    
C29   C30   A    
Ba1   P2    S    
C14   C15   A    
C1    H11   S    
O6    P8    S    
C39   C44   A    
C33   H45   S    
C9    H34   S    
C54   H56   S    
C40   O18   D    
C7    C8    S    
Ba2   P4    S    
Ba1   O5    S    
C14   H36   S    
C18   C32   S    
C66   H9    S    
Ba1   O27   S    
C57   C58   D    
C7    H29   S    
C1    H16   S    
Ba2   O9    S    
C3    H18   S    
Ba1   O12   S    
C65   H59   S    
C55   C65   S    
C23   H60   S    
O23   P6    D    
C56   H5    S    
O14   P7    D    
C70   H68   S    
Ba1   O26   S    
C66   H8    S    
C36   C37   A    
C21   H39   S    
C69   H65   S    
C44   C46   A    
C9    C18   A    
C48   C51   A    
C20   C29   S    
C60   C64   A    
O10   P5    D    
C59   N1    S    
C49   C50   A    
Ba2   O4    S    
C30   C33   A    
C22   H40   S    
C45   H3    S    
C11   H35   S    
C56   O24   S    
C34   H61   S    
C46   H51   S    
C28   C32   A    
C2    H15   S    
C58   H55   S    
Ba2   O13   S    
C47   C53   A    
C10   C19   A    
C13   P8    S    
C1    H22   S    
O5    P4    S    
C17   C21   A    
C41   C42   A    
C27   C28   A    
O28   P3    D    
C70   H66   S    
C15   C21   A    
C12   O3    S    
C61   P3    S    
C8    H33   S    
C49   H50   S    
C24   C25   A    
C17   P1    S    
C8    H30   S    
C68   H13   S    
C38   C61   A    
O9    P5    S    
C26   H44   S    
O24   P1    S    
O8    P7    S    
C42   C49   A    
C56   C66   S    
C46   C47   A    
C25   H42   S    
C47   C48   A    
C67   O2    S    
C11   C13   A    
Ba2   O8    S    
C44   H53   S    
Ba1   O13   S    
C57   P7    S    
C1    C2    S    
C37   H48   S    
O26   P2    D    
C60   H52   S    
C68   H14   S    
C50   C51   A    
O11   P5    S    
C66   H7    S    
C5    H24   S    
C7    O17   S    
C14   C20   A    
C11   C18   A    
O2    P2    S    
C16   C20   A    
O1    P1    D    
C62   P2    S    
C8    H31   S    
C42   C43   A    
C45   H4    S    
C15   P6    S    
C52   O20   D    
C9    C10   A    
C55   P5    S    
Ba2   O12   S    
C12   H43   S    
C5    H25   S    
O12   P1    S    
C38   C62   A    
O4    P4    D    
Ba2   O6    S    
C62   C63   A    
C27   C29   A    
C4    H20   S    
C30   C31   A    
O16   P8    D    
C43   C48   A    
C6    H27   S    
C31   C32   A    
C12   C23   S    
C67   C68   S    
C68   H12   S    
C23   H54   S    
C22   C28   A    
C45   H2    S    
C19   H38   S    
C3    H17   S    
C50   H49   S    
C13   C19   A    
Ba1   P1    S    
C63   C64   A    
C25   C26   A    
C39   C43   A    
C54   C59   D    
C58   C59   S    
C67   H10   S    
Ba1   O1    S    
C41   O19   D    
C24   H41   S    
C2    H1    S    
O27   P3    S    
C5    O11   S    
C38   H58   S    
