data_mof_unit_42007.cif
_audit_creation_date              2012-12-11T14:14:06-0500
_audit_creation_method            fapswitch 2.2
_symmetry_space_group_name_H-M    P1
_symmetry_Int_Tables_number       1
_space_group_crystal_system       monoclinic
_cell_length_a                    17.052179
_cell_length_b                    7.244047
_cell_length_c                    17.024417
_cell_angle_alpha                 90.0
_cell_angle_beta                  99.275283
_cell_angle_gamma                 90.0
_cell_volume                      2075.47587875

loop_
_atom_site_label
_atom_site_type_symbol
_atom_type_description
_atom_site_fract_x
_atom_site_fract_y
_atom_site_fract_z
_atom_type_partial_charge
O1    O     O_R   0.414560 0.494370 0.416770 -0.523665
O2    O     O_R   0.585440 0.994370 0.583230 -0.523665
O3    O     O_R   0.578370 0.819590 0.429320 -0.532325
O4    O     O_R   0.421630 0.319590 0.570680 -0.532326
C1    C     C_R   0.604447 0.654704 0.413786 0.789397
C2    C     C_R   0.395553 0.154704 0.586214 0.789398
O5    O     O_R   0.414740 0.823790 0.407360 -0.541359
O6    O     O_R   0.585260 0.323790 0.592640 -0.541359
O7    O     O_R   0.420650 0.998510 0.561120 -0.527249
O8    O     O_R   0.579350 0.498510 0.438880 -0.527248
C3    C     C_R   0.386172 0.655771 0.387160 0.754104
C4    C     C_R   0.613828 0.155771 0.612840 0.754104
O9    O     O_3   0.502130 0.662240 0.550470 -0.376861
O10   O     O_3   0.497870 0.162240 0.449530 -0.376861
V1    V     V_3+5 0.499600 0.935390 0.490640 1.543573
V2    V     V_3+5 0.500400 0.435390 0.509360 1.543573
C5    C     C_2   0.797809 0.262537 0.773598 0.165148
C6    C     C_2   0.202190 0.762537 0.226402 0.165148
C7    C     C_2   0.815756 0.119365 0.824789 -0.254383
C8    C     C_2   0.184243 0.619365 0.175211 -0.254382
H1    H     H_    0.773096 0.007897 0.824529 0.159482
H2    H     H_    0.226904 0.507897 0.175471 0.159482
C9    C     C_2   0.717439 0.276044 0.724144 0.110408
C10   C     C_2   0.282561 0.776045 0.275856 0.110408
C11   C     C_2   0.690130 0.144317 0.669283 0.010374
C12   C     C_2   0.309870 0.644317 0.330717 0.010374
C13   C     C_R   0.332450 0.141741 0.636817 -0.131006
C14   C     C_R   0.667550 0.641741 0.363183 -0.131007
C15   C     C_R   0.165994 0.126930 0.862414 -0.116814
C16   C     C_R   0.834006 0.626930 0.137587 -0.116815
C17   C     C_R   0.295597 0.251500 0.844843 0.118930
C18   C     C_R   0.704403 0.751502 0.155157 0.118931
C19   C     C_R   0.239188 0.208738 0.894239 0.100483
C20   C     C_R   0.760813 0.708740 0.105761 0.100483
C21   C     C_R   0.150253 0.080490 0.780441 0.069899
C22   C     C_R   0.849747 0.580489 0.219558 0.069899
C23   C     C_R   0.211201 0.103484 0.732725 0.045045
C24   C     C_R   0.788799 0.603484 0.267275 0.045045
C25   C     C_R   0.286021 0.180916 0.765896 0.048884
C26   C     C_R   0.713979 0.680917 0.234104 0.048884
C27   C     C_R   0.348654 0.182753 0.718997 0.067345
C28   C     C_R   0.651346 0.682754 0.281003 0.067346
C29   C     C_R   0.257355 0.071917 0.604438 0.132434
C30   C     C_R   0.742645 0.571916 0.395562 0.132434
C31   C     C_R   0.198703 0.050452 0.651967 -0.153946
C32   C     C_R   0.801297 0.550450 0.348033 -0.153946
H3    H     H_    0.143066 0.990585 0.624187 0.166221
H4    H     H_    0.856933 0.490582 0.375813 0.166221
O11   O     O_R   0.920750 0.773600 0.061260 -0.527094
O12   O     O_R   0.079250 0.273600 0.938740 -0.527095
O13   O     O_R   0.085340 0.439850 0.092570 -0.533266
O14   O     O_R   0.914660 0.939850 0.907430 -0.533266
C33   C     C_R   0.112105 0.608987 0.114180 0.744916
C34   C     C_R   0.887895 0.108987 0.885820 0.744916
O15   O     O_R   0.921720 0.444130 0.070790 -0.535277
O16   O     O_R   0.078280 0.944130 0.929210 -0.535277
O17   O     O_R   0.914480 0.269530 0.916840 -0.535739
O18   O     O_R   0.085520 0.769530 0.083160 -0.535739
C35   C     C_R   0.896425 0.612945 0.086264 0.742223
C36   C     C_R   0.103575 0.112945 0.913736 0.742224
O19   O     O_3   0.997840 0.601520 0.949550 -0.379405
O20   O     O_3   0.002160 0.101520 0.050450 -0.379405
V3    V     V_3+5 0.000400 0.328340 0.009360 1.476118
V4    V     V_3+5 0.999600 0.828340 0.990640 1.476118
C37   C     C_3   0.855759 0.417220 0.766440 -0.632908
H5    H     H_    0.835327 0.501667 0.712619 0.239390
H6    H     H_    0.860532 0.510043 0.818854 0.219367
H7    H     H_    0.915040 0.360153 0.760703 0.192085
C38   C     C_3   0.144240 0.917220 0.233561 -0.632908
H8    H     H_    0.164672 0.001667 0.287382 0.239390
H9    H     H_    0.139467 0.010043 0.181146 0.219367
H10   H     H_    0.084959 0.860152 0.239297 0.192085
C39   C     C_3   0.068756 0.010001 0.743086 -0.728556
H11   H     H_    0.024406 0.009255 0.783887 0.194408
H12   H     H_    0.043881 0.100202 0.692413 0.216369
H13   H     H_    0.073847 0.866426 0.721643 0.218556
C40   C     C_3   0.931244 0.509999 0.256914 -0.728556
H14   H     H_    0.975594 0.509253 0.216113 0.194409
H15   H     H_    0.956119 0.600199 0.307587 0.216369
H16   H     H_    0.926152 0.366424 0.278357 0.218555
C41   C     C_3   0.670200 0.447476 0.736184 -0.651136
H17   H     H_    0.698507 0.526004 0.789331 0.227300
H18   H     H_    0.667249 0.540254 0.683949 0.238688
H19   H     H_    0.609521 0.410399 0.745804 0.224705
C42   C     C_3   0.329800 0.947477 0.263816 -0.651135
H20   H     H_    0.301492 0.026004 0.210670 0.227300
H21   H     H_    0.332751 0.040254 0.316052 0.238688
H22   H     H_    0.390479 0.910400 0.254196 0.224705
I1    I     I_    0.764079 0.917123 0.648041 -0.398350
I2    I     I_    0.235921 0.417123 0.351959 -0.398350
I3    I     I_    0.471526 0.174636 0.772794 -0.427575
I4    I     I_    0.528474 0.674640 0.227205 -0.427575
I5    I     I_    0.229481 0.978378 0.484975 -0.367724
I6    I     I_    0.770518 0.478376 0.515025 -0.367725
C43   C     C_3   0.356712 0.397906 0.873588 -0.619328
H23   H     H_    0.329253 0.510442 0.904163 0.217766
H24   H     H_    0.406521 0.337346 0.915738 0.253123
H25   H     H_    0.379024 0.467212 0.823480 0.217851
C44   C     C_3   0.643290 0.897911 0.126413 -0.619328
H26   H     H_    0.670749 0.010447 0.095839 0.217765
H27   H     H_    0.593480 0.837354 0.084263 0.253123
H28   H     H_    0.620978 0.967216 0.176522 0.217851
I7    I     I_    0.266206 0.266190 0.019549 -0.410627
I8    I     I_    0.733794 0.766194 0.980452 -0.410627

loop_
_geom_bond_atom_site_label_1
_geom_bond_atom_site_label_2
_ccdc_geom_bond_type
O15   C35   A    
O19   V4    S    
C39   H11   S    
C43   H23   S    
O1    C3    A    
O2    C4    A    
C2    O7    A    
C41   H17   S    
C43   H25   S    
C25   C27   A    
C40   H14   S    
O5    C3    A    
C5    C9    S    
C6    C10   S    
C7    H1    S    
C10   C12   D    
C22   C40   S    
C42   H22   S    
C15   C19   A    
C14   C28   A    
C38   H9    S    
C29   I5    S    
C2    C13   S    
C30   C32   A    
C37   H6    S    
O15   V3    S    
C17   C19   A    
C10   C42   S    
C28   I4    S    
C6    C38   S    
C31   H3    S    
O6    V2    S    
O11   V4    S    
O12   V3    S    
C39   H12   S    
C41   H18   S    
O14   C34   A    
O17   V3    S    
C40   H15   S    
O18   V4    S    
C32   H4    S    
C16   C20   A    
C42   H21   S    
O13   V3    S    
O4    C2    A    
O14   V4    S    
C3    C12   S    
C42   H20   S    
C14   C30   A    
C20   I8    S    
O16   C36   A    
O13   C33   A    
C18   C20   A    
O4    V2    S    
C38   H10   S    
O20   V3    S    
C1    C14   S    
C13   C27   A    
C26   C28   A    
C44   H26   S    
C15   C36   S    
O6    C4    A    
C37   H7    S    
C16   C35   S    
C44   H28   S    
O16   V4    S    
O1    V2    S    
O2    V1    S    
C29   C31   A    
C7    C34   S    
C27   I3    S    
C8    H2    S    
C39   H13   S    
C23   C31   A    
C41   H19   S    
O3    V1    S    
C40   H16   S    
C21   C39   S    
C9    C41   S    
C21   C23   A    
C19   I7    S    
C5    C37   S    
C8    C33   S    
O3    C1    A    
C33   O18   A    
C43   H24   S    
C12   I2    S    
C15   C21   A    
C11   I1    S    
O11   C35   A    
C18   C44   S    
C16   C22   A    
C4    C11   S    
O12   C36   A    
C22   C24   A    
O7    V1    S    
C1    O8    A    
C23   C25   A    
O8    V2    S    
C24   C26   A    
C17   C43   S    
O5    V1    S    
C5    C7    D    
C17   C25   A    
C6    C8    D    
C18   C26   A    
C38   H8    S    
C24   C32   A    
C30   I6    S    
C13   C29   A    
C9    C11   D    
C37   H5    S    
O9    V2    S    
O10   V1    S    
C44   H27   S    
C34   O17   A    
