data_mof_unit_35962.cif
_audit_creation_date              2012-12-11T16:12:48-0500
_audit_creation_method            fapswitch 2.2
_symmetry_space_group_name_H-M    P1
_symmetry_Int_Tables_number       1
_space_group_crystal_system       triclinic
_cell_length_a                    23.517124
_cell_length_b                    13.705883
_cell_length_c                    28.399626
_cell_angle_alpha                 90.172903
_cell_angle_beta                  90.468487
_cell_angle_gamma                 90.530671
_cell_volume                      9153.10882011

loop_
_atom_site_label
_atom_site_type_symbol
_atom_type_description
_atom_site_fract_x
_atom_site_fract_y
_atom_site_fract_z
_atom_type_partial_charge
C1    C     C_R   0.284870 0.005008 0.815929 0.538642
C2    C     C_3   0.474224 0.722127 0.975520 0.020753
C3    C     C_R   0.203383 0.035466 0.523563 0.175245
C4    C     C_R   0.286559 0.515037 0.526160 0.182784
C5    C     C_R   0.733912 0.501174 0.472637 0.154622
C6    C     C_R   0.800746 0.043537 0.523957 0.192090
C7    C     C_R   0.200516 0.037329 0.473864 0.191624
C8    C     C_R   0.254012 0.587188 0.548554 0.028041
C9    C     C_R   0.735480 0.595941 0.453687 0.024420
C10   C     C_R   0.755271 0.086379 0.548385 0.027702
C11   C     C_R   0.248540 0.068781 0.448307 0.014679
C12   C     C_R   0.252000 0.575016 0.450530 0.016448
C13   C     C_3   0.978790 0.227081 0.026491 0.017494
C14   C     C_R   0.738831 0.573834 0.551241 0.029992
C15   C     C_R   0.751311 0.078278 0.450284 0.013451
C16   C     C_R   0.254539 0.062667 0.546559 0.010911
C17   C     C_1   0.243552 0.561834 0.401048 -0.060035
C18   C     C_1   0.751540 0.563091 0.600385 -0.042006
C19   C     C_1   0.743446 0.063374 0.400858 -0.067136
C20   C     C_1   0.260952 0.053047 0.596552 -0.059777
C21   C     C_1   0.259174 0.605557 0.597980 -0.033897
C22   C     C_1   0.735322 0.612319 0.403880 -0.040774
C23   C     C_1   0.759574 0.106200 0.597743 -0.037022
C24   C     C_3   0.981108 0.228423 0.971016 0.008594
C25   C     C_1   0.243098 0.094798 0.399608 -0.047082
C26   C     C_1   0.232866 0.542279 0.360833 -0.017473
C27   C     C_1   0.765291 0.543966 0.640022 -0.017088
C28   C     C_1   0.732952 0.042806 0.360724 -0.022516
C29   C     C_1   0.269434 0.037248 0.637514 -0.014121
C30   C     C_R   0.284675 0.006440 0.683696 0.544815
C31   C     C_R   0.715622 0.007078 0.315869 0.542624
C32   C     C_R   0.784154 0.507429 0.684259 0.542240
C33   C     C_R   0.215616 0.507052 0.315876 0.544083
C34   C     C_R   0.445661 0.825304 0.684568 0.538250
C35   C     C_1   0.504537 0.828732 0.100584 -0.060365
C36   C     C_R   0.554422 0.824994 0.315516 0.536250
C37   C     C_R   0.945876 0.325354 0.684681 0.535903
C38   C     C_R   0.054339 0.325147 0.315479 0.541095
C39   C     C_R   0.274131 0.674339 0.683052 0.541264
C40   C     C_R   0.725536 0.674651 0.317257 0.541820
C41   C     C_R   0.774178 0.174594 0.682950 0.542057
C42   C     C_R   0.225866 0.173865 0.316870 0.543740
C43   C     C_3   0.439729 0.896061 0.979364 0.049238
C44   C     C_3   0.552158 0.859391 0.025633 0.043423
C45   C     C_3   0.962413 0.410316 0.975771 0.039725
C46   C     C_1   0.478363 0.830530 0.904705 -0.045142
C47   C     C_3   0.069190 0.329378 0.021533 0.039169
C48   C     C_3   0.547609 0.856071 0.970636 0.036065
C49   C     C_3   0.447156 0.903100 0.034389 0.029330
C50   C     C_3   0.063930 0.347611 0.967377 0.015003
C51   C     C_3   0.970678 0.410982 0.030784 0.029897
C52   C     C_1   0.522667 0.828572 0.140334 -0.037628
C53   C     C_1   0.467425 0.830313 0.863424 -0.023979
C54   C     C_1   0.029432 0.326938 0.137746 -0.031093
C55   C     C_1   0.974940 0.331992 0.860572 -0.021955
C56   C     C_3   0.151115 0.741816 0.934918 -0.292208
C57   C     C_1   0.016669 0.324486 0.096781 -0.011363
C58   C     C_3   0.885493 0.659308 0.057815 -0.318438
C59   C     C_3   0.641723 0.214789 0.945916 -0.320847
C60   C     C_3   0.381277 0.148119 0.064624 -0.323005
C61   C     C_3   0.449742 0.623775 0.547693 -0.084087
C62   C     C_3   0.581531 0.644480 0.456224 -0.087639
C63   C     C_3   0.025096 0.120991 0.554829 -0.096826
C64   C     C_3   0.134165 0.264168 0.461594 -0.090343
C65   C     C_3   0.550688 0.066175 0.439547 -0.298992
C66   C     C_3   0.543366 0.051340 0.576287 -0.300068
C67   C     C_3   0.888074 0.453848 0.431742 -0.292879
C68   C     C_1   0.991167 0.334075 0.900768 -0.037999
C69   C     C_3   0.882891 0.464222 0.563059 -0.286596
C70   C     C_3   0.287525 0.343735 0.447205 -0.304473
C71   C     C_3   0.680377 0.369821 0.566666 -0.288786
C72   C     C_3   0.837790 0.889554 0.444153 -0.304751
C73   C     C_3   0.147868 0.903294 0.555855 -0.323315
C74   C     C_3   0.293071 0.380286 0.582157 -0.301566
C75   C     C_3   0.678327 0.385820 0.426291 -0.300061
C76   C     C_3   0.841340 0.925580 0.579086 -0.307706
C77   C     C_3   0.148958 0.930031 0.418792 -0.303047
C78   C     C_3   0.479742 0.061301 0.955381 -0.324983
C79   C     C_1   0.267883 0.644467 0.862900 -0.012015
C80   C     C_3   0.629010 0.983954 0.034058 -0.327020
C81   C     C_3   0.015594 0.572161 0.959659 -0.331199
C82   C     C_3   0.148371 0.373182 0.077572 -0.297421
C83   C     C_3   0.647879 0.812127 0.953035 -0.335705
C84   C     C_3   0.339590 0.909694 0.041094 -0.323205
C85   C     C_3   0.162634 0.303559 0.949615 -0.309671
C86   C     C_3   0.861234 0.412040 0.037063 -0.314744
C87   C     C_3   0.429071 0.605599 0.919553 -0.291201
C88   C     C_3   0.490639 0.604980 0.095057 -0.320140
C89   C     C_3   0.926743 0.107367 0.923574 -0.294658
C90   C     C_1   0.735639 0.630766 0.140100 -0.028955
C91   C     C_3   0.992971 0.108674 0.092305 -0.306996
C92   C     C_3   0.291550 0.405516 0.915598 -0.329674
C93   C     C_3   0.627259 0.523957 0.081998 -0.309649
C94   C     C_3   0.782450 0.895998 0.919278 -0.314018
C95   C     C_3   0.134677 0.969714 0.067628 -0.316396
C96   C     C_3   0.368489 0.461020 0.066352 -0.317012
C97   C     C_3   0.617350 0.546293 0.933340 -0.308011
C98   C     C_3   0.869593 0.957194 0.065188 -0.309531
C99   C     C_3   0.124610 0.055333 0.913790 -0.305778
C100  C     C_3   0.138362 0.704240 0.067503 -0.307963
C101  C     C_1   0.767179 0.141869 0.862606 -0.022618
C102  C     C_3   0.869471 0.656349 0.916588 -0.304427
C103  C     C_3   0.660850 0.242972 0.081200 -0.303593
C104  C     C_3   0.357357 0.189208 0.904160 -0.310813
C105  C     C_R   0.715704 0.005507 0.184240 0.539408
C106  C     C_1   0.231367 0.141014 0.137762 -0.020327
C107  C     C_R   0.288610 0.534039 0.974736 0.117812
C108  C     C_R   0.705955 0.537675 0.024682 0.131201
C109  C     C_R   0.788051 0.030629 0.974657 0.125019
C110  C     C_R   0.195545 0.073952 0.019856 0.113592
C111  C     C_R   0.286962 0.521193 0.023960 0.111661
C112  C     C_R   0.707193 0.535195 0.974785 0.126521
C113  C     C_R   0.787767 0.019764 0.024179 0.113713
C114  C     C_R   0.202520 0.058248 0.971249 0.125271
C115  C     C_R   0.228325 0.666424 0.031473 0.120892
C116  C     C_R   0.784388 0.506156 0.815789 0.536366
C117  C     C_R   0.792257 0.640165 0.975390 0.133310
C118  C     C_R   0.734237 0.170521 0.031908 0.129751
C119  C     C_R   0.296097 0.142099 0.974964 0.137662
C120  C     C_R   0.230286 0.680007 0.982249 0.116678
C121  C     C_R   0.789997 0.645101 0.025019 0.111245
C122  C     C_R   0.731255 0.177850 0.982471 0.107441
C123  C     C_R   0.289549 0.151823 0.024269 0.107378
C124  C     C_R   0.259743 0.612699 0.954205 0.027613
C125  C     C_R   0.747116 0.593847 0.049396 0.009255
C126  C     C_R   0.759492 0.109400 0.954100 0.010365
C127  C     C_R   0.215691 0.505730 0.184426 0.530381
C128  C     C_R   0.240399 0.115071 0.046306 0.002633
C129  C     C_R   0.256087 0.586639 0.051865 0.035995
C130  C     C_R   0.750822 0.584269 0.950542 0.017718
C131  C     C_R   0.759989 0.088895 0.052443 0.025330
C132  C     C_R   0.252926 0.090371 0.949154 0.014423
C133  C     C_R   0.445512 0.824193 0.816762 0.540162
C134  C     C_R   0.552893 0.823505 0.184126 0.541450
C135  C     C_R   0.946732 0.324421 0.816069 0.542380
C136  C     C_R   0.053838 0.323322 0.183637 0.531410
C137  C     C_1   0.246847 0.565381 0.100831 0.007005
C138  C     C_3   0.485340 0.827705 0.956166 0.050028
C139  C     C_1   0.756585 0.566223 0.900586 -0.009790
C140  C     C_1   0.749536 0.067399 0.101359 -0.002607
C141  C     C_1   0.260091 0.063606 0.900800 -0.016271
C142  C     C_1   0.263611 0.628155 0.904222 0.003394
C143  C     C_1   0.742245 0.607786 0.099603 -0.030422
C144  C     C_1   0.762723 0.124234 0.903881 -0.036331
C145  C     C_1   0.235132 0.125033 0.096413 -0.033669
C146  C     C_1   0.234717 0.542366 0.140280 -0.015952
C147  C     C_1   0.766399 0.542940 0.860509 -0.024741
C148  C     C_1   0.735841 0.043326 0.140435 -0.016582
C149  C     C_3   0.494024 0.828757 0.049196 0.044854
C150  C     C_1   0.268450 0.038925 0.860975 -0.025484
C151  C     C_1   0.471212 0.833846 0.639516 0.003269
C152  C     C_1   0.530803 0.833037 0.361316 0.006549
C153  C     C_1   0.971662 0.334349 0.639712 -0.000472
C154  C     C_1   0.030703 0.334297 0.361256 0.000843
C155  C     C_R   0.504946 0.752372 0.526027 0.248406
C156  C     C_R   0.513772 0.752283 0.477305 0.247581
C157  C     C_R   0.032005 0.276575 0.528876 0.252273
C158  C     C_R   0.041503 0.280284 0.480274 0.262040
C159  C     C_R   0.501797 0.929257 0.475535 0.105227
C160  C     C_3   0.000489 0.331241 0.952169 0.046363
C161  C     C_R   0.498177 0.930588 0.525364 0.111035
C162  C     C_R   0.975050 0.415348 0.472884 0.102417
C163  C     C_R   0.969568 0.417435 0.522292 0.128365
C164  C     C_R   0.499025 0.841321 0.550045 -0.004182
C165  C     C_R   0.509466 0.839770 0.452046 -0.003106
C166  C     C_R   0.997416 0.346758 0.549946 -0.009480
C167  C     C_R   0.010524 0.345392 0.452087 -0.027043
C168  C     C_1   0.518094 0.837489 0.402071 0.026202
C169  C     C_1   0.486478 0.838733 0.599402 0.016934
C170  C     C_1   0.018307 0.341026 0.402023 -0.013735
C171  C     C_3   0.008886 0.322856 0.045365 0.063343
C172  C     C_1   0.986503 0.341018 0.599530 0.019367
C173  C     C_1   0.264819 0.631050 0.638121 -0.013537
C174  C     C_1   0.732915 0.635040 0.363163 -0.018433
C175  C     C_1   0.764929 0.131804 0.637897 -0.015201
C176  C     C_1   0.236373 0.126033 0.360538 -0.017038
C177  C     C_R   0.220862 0.651409 0.522185 -0.156196
C178  C     C_R   0.736655 0.677883 0.483150 -0.176773
C179  C     C_R   0.708478 0.123310 0.523958 -0.171054
C180  C     C_R   0.299372 0.092206 0.471648 -0.170268
C181  C     C_R   0.274907 0.676437 0.815650 0.537422
C182  C     C_3   0.473080 0.725417 0.030809 0.031194
C183  C     C_R   0.725812 0.673118 0.185309 0.540964
C184  C     C_R   0.774769 0.175942 0.815582 0.538952
C185  C     C_R   0.225123 0.174802 0.184737 0.538485
C186  C     C_R   0.219771 0.645363 0.473428 -0.148268
C187  C     C_R   0.739077 0.666953 0.531687 -0.161049
C188  C     C_R   0.706671 0.119819 0.475173 -0.160737
C189  C     C_R   0.302407 0.088860 0.520488 -0.157570
C190  C     C_R   0.285484 0.508881 0.476547 0.159174
C191  C     C_R   0.734319 0.489849 0.522294 0.153936
C192  C     C_R   0.798568 0.038975 0.474309 0.160838
Cr1   Cr    Cr6+3 0.250680 0.837130 0.748990 1.025202
Cr2   Cr    Cr6+3 0.623910 0.707720 0.250330 1.019440
Cr3   Cr    Cr6+3 0.876090 0.207720 0.749670 1.022447
Cr4   Cr    Cr6+3 0.123910 0.207720 0.250330 1.025616
Cr5   Cr    Cr6+3 0.749320 0.837130 0.251010 1.024880
Cr6   Cr    Cr6+3 0.750680 0.337130 0.748990 1.026558
Cr7   Cr    Cr6+3 0.249320 0.337130 0.251010 1.023483
Cr8   Cr    Cr6+3 0.378160 0.960100 0.750430 1.020239
Cr9   Cr    Cr6+3 0.621840 0.960100 0.249570 1.020292
Cr10  Cr    Cr6+3 0.878160 0.460100 0.750430 1.016857
Cr11  Cr    Cr6+3 0.121840 0.460100 0.249570 1.016869
Cr12  Cr    Cr6+3 0.376090 0.707720 0.749670 1.023856
H1    H     H_    0.461121 0.977741 0.044559 0.152962
H2    H     H_    0.742882 0.731114 0.553928 0.117067
H3    H     H_    0.505856 0.060761 0.987878 0.165714
H4    H     H_    0.556581 0.978924 0.073935 0.255572
H5    H     H_    0.636743 0.056851 0.049397 0.149382
H6    H     H_    0.638556 0.989885 0.996120 0.152755
H7    H     H_    0.657710 0.931401 0.051794 0.153687
H8    H     H_    0.950598 0.509194 0.920578 0.248723
H9    H     H_    0.001069 0.648843 0.959841 0.134324
H10   H     H_    0.044444 0.563487 0.929191 0.127897
H11   H     H_    0.039614 0.561152 0.992628 0.122247
H12   H     H_    0.092006 0.473561 0.045630 0.235796
H13   H     H_    0.669921 0.148398 0.456761 0.110256
H14   H     H_    0.142706 0.415488 0.110521 0.156984
H15   H     H_    0.191543 0.387578 0.063662 0.169799
H16   H     H_    0.144760 0.294427 0.086324 0.157477
H17   H     H_    0.577506 0.761321 0.917629 0.247293
H18   H     H_    0.672845 0.755710 0.934515 0.144656
H19   H     H_    0.663380 0.814085 0.989931 0.160555
H20   H     H_    0.655579 0.882940 0.935222 0.132446
H21   H     H_    0.397990 0.893265 0.096036 0.254781
H22   H     H_    0.309745 0.926413 0.070098 0.139010
H23   H     H_    0.321126 0.847989 0.020494 0.154606
H24   H     H_    0.342185 0.107402 0.538035 0.127218
H25   H     H_    0.343298 0.974477 0.018202 0.187899
H26   H     H_    0.093881 0.279997 0.905841 0.251044
H27   H     H_    0.187990 0.261757 0.923835 0.128413
H28   H     H_    0.175362 0.279769 0.985420 0.182924
H29   H     H_    0.172519 0.382417 0.945434 0.147847
H30   H     H_    0.920773 0.437637 0.091414 0.247282
H31   H     H_    0.829104 0.421735 0.065103 0.155902
H32   H     H_    0.851075 0.342272 0.018816 0.136858
H33   H     H_    0.857814 0.474028 0.012280 0.166970
H34   H     H_    0.387608 0.669572 0.976966 0.257899
H35   H     H_    0.584493 0.806051 0.037821 0.162142
H36   H     H_    0.441179 0.535658 0.936325 0.133786
H37   H     H_    0.462509 0.627073 0.894121 0.151805
H38   H     H_    0.388750 0.595869 0.899539 0.192869
H39   H     H_    0.548765 0.646144 0.041724 0.247856
H40   H     H_    0.487784 0.524390 0.092149 0.132972
H41   H     H_    0.448942 0.632017 0.107409 0.146710
H42   H     H_    0.523588 0.623956 0.121808 0.166684
H43   H     H_    0.890174 0.211671 0.968380 0.246823
H44   H     H_    0.932791 0.044860 0.947799 0.127277
H45   H     H_    0.961254 0.108260 0.897083 0.151300
H46   H     H_    0.398858 0.857449 0.972240 0.171599
H47   H     H_    0.885794 0.098974 0.904339 0.193610
H48   H     H_    0.000451 0.078595 0.021509 0.240828
H49   H     H_    0.988578 0.028021 0.094651 0.112334
H50   H     H_    0.953091 0.141493 0.105494 0.144296
H51   H     H_    0.029288 0.130238 0.115287 0.192165
H52   H     H_    0.357647 0.442147 0.961610 0.251476
H53   H     H_    0.279494 0.339796 0.935888 0.154653
H54   H     H_    0.319124 0.385433 0.885705 0.145443
H55   H     H_    0.252490 0.438321 0.900641 0.145036
H56   H     H_    0.650080 0.417130 0.033885 0.253850
H57   H     H_    0.089000 0.256478 0.026068 0.202388
H58   H     H_    0.583574 0.499266 0.073028 0.136103
H59   H     H_    0.629800 0.604829 0.080246 0.153859
H60   H     H_    0.636723 0.500090 0.118501 0.159318
H61   H     H_    0.853337 0.932800 0.960121 0.244514
H62   H     H_    0.761969 0.844696 0.944080 0.158445
H63   H     H_    0.808902 0.854648 0.894096 0.164566
H64   H     H_    0.749014 0.933765 0.898731 0.147898
H65   H     H_    0.107297 0.072926 0.019595 0.268085
H66   H     H_    0.127899 0.907605 0.043103 0.117918
H67   H     H_    0.096703 0.975433 0.090350 0.150842
H68   H     H_    0.918842 0.384902 0.967105 0.158764
H69   H     H_    0.172185 0.956061 0.090581 0.159483
H70   H     H_    0.313429 0.377890 0.024653 0.273746
H71   H     H_    0.398885 0.485602 0.038972 0.150707
H72   H     H_    0.385425 0.394457 0.083410 0.146508
H73   H     H_    0.364683 0.518647 0.093675 0.157676
H74   H     H_    0.650543 0.419976 0.961031 0.264977
H75   H     H_    0.596453 0.578720 0.964552 0.162536
H76   H     H_    0.585531 0.501540 0.913587 0.127906
H77   H     H_    0.632801 0.604633 0.909559 0.161409
H78   H     H_    0.811437 0.875304 0.025784 0.274639
H79   H     H_    0.510133 0.674677 0.965159 0.172962
H80   H     H_    0.899661 0.976739 0.036667 0.132699
H81   H     H_    0.885396 0.891256 0.083475 0.145569
H82   H     H_    0.868124 0.017725 0.091227 0.160397
H83   H     H_    0.139091 0.951461 0.964728 0.246852
H84   H     H_    0.093046 0.096206 0.934418 0.147511
H85   H     H_    0.101373 0.003157 0.890480 0.134041
H86   H     H_    0.149136 0.106272 0.891288 0.163141
H87   H     H_    0.204542 0.803710 0.054866 0.238201
H88   H     H_    0.114441 0.710534 0.033838 0.132624
H89   H     H_    0.119176 0.753623 0.093900 0.135317
H90   H     H_    0.428382 0.714747 0.042271 0.178875
H91   H     H_    0.134526 0.628333 0.080743 0.159458
H92   H     H_    0.851109 0.756675 0.969458 0.271026
H93   H     H_    0.914095 0.678332 0.923962 0.136130
H94   H     H_    0.858140 0.683349 0.880973 0.159051
H95   H     H_    0.866075 0.575689 0.917164 0.162446
H96   H     H_    0.726173 0.317075 0.046808 0.278270
H97   H     H_    0.627782 0.242246 0.053136 0.135440
H98   H     H_    0.653828 0.306918 0.104418 0.155615
H99   H     H_    0.656420 0.177124 0.103377 0.155338
H100  H     H_    0.365874 0.240118 0.972885 0.271111
H101  H     H_    0.014593 0.176862 0.959701 0.160176
H102  H     H_    0.394425 0.238020 0.897609 0.119324
H103  H     H_    0.320351 0.219064 0.884882 0.139194
H104  H     H_    0.368507 0.116565 0.890215 0.176815
H105  H     H_    0.557805 0.928444 0.955675 0.165238
H106  H     H_    0.933603 0.227475 0.037747 0.171868
H107  H     H_    0.204717 0.826499 0.978780 0.254895
H108  H     H_    0.114477 0.772220 0.954310 0.108262
H109  H     H_    0.143635 0.662283 0.929554 0.137430
H110  H     H_    0.153366 0.777410 0.899932 0.175275
H111  H     H_    0.815775 0.738026 0.079882 0.270500
H112  H     H_    0.915624 0.714464 0.072530 0.125743
H113  H     H_    0.903233 0.631974 0.024202 0.196615
H114  H     H_    0.881435 0.598828 0.083452 0.155560
H115  H     H_    0.717514 0.290081 0.935706 0.266657
H116  H     H_    0.993123 0.478589 0.041777 0.137456
H117  H     H_    0.616045 0.275399 0.931508 0.134636
H118  H     H_    0.618223 0.181676 0.975696 0.146241
H119  H     H_    0.646479 0.159163 0.917722 0.145418
H120  H     H_    0.316177 0.243800 0.079146 0.270027
H121  H     H_    0.412522 0.196958 0.082639 0.129037
H122  H     H_    0.401883 0.117679 0.032952 0.194428
H123  H     H_    0.369333 0.088591 0.089164 0.155326
H124  H     H_    0.417287 0.673158 0.562894 0.117540
H125  H     H_    0.449126 0.555439 0.568517 0.146346
H126  H     H_    0.438101 0.604353 0.510761 0.159295
H127  H     H_    0.076445 0.423311 0.959415 0.167151
H128  H     H_    0.595991 0.632909 0.493185 0.158360
H129  H     H_    0.607428 0.703041 0.439439 0.107410
H130  H     H_    0.589184 0.575955 0.436542 0.136892
H131  H     H_    0.024912 0.087652 0.519064 0.150492
H132  H     H_    0.980728 0.134663 0.566454 0.109414
H133  H     H_    0.043644 0.067345 0.579576 0.141941
H134  H     H_    0.151934 0.263233 0.498002 0.149015
H135  H     H_    0.133159 0.340342 0.447955 0.095585
H136  H     H_    0.163341 0.223394 0.438587 0.152621
H137  H     H_    0.464778 0.062101 0.457428 0.243385
H138  H     H_    0.196255 0.707223 0.539466 0.112595
H139  H     H_    0.567017 0.101014 0.472290 0.132192
H140  H     H_    0.543861 0.123907 0.412817 0.144497
H141  H     H_    0.582802 0.014616 0.425792 0.161733
H142  H     H_    0.473302 0.076286 0.533255 0.247855
H143  H     H_    0.578961 0.064132 0.551605 0.132733
H144  H     H_    0.556402 0.995861 0.602503 0.158233
H145  H     H_    0.534687 0.120300 0.595437 0.137644
H146  H     H_    0.967809 0.510261 0.416403 0.252555
H147  H     H_    0.866291 0.514437 0.413282 0.156142
H148  H     H_    0.863140 0.434897 0.463478 0.165632
H149  H     H_    0.737078 0.750727 0.468430 0.114586
H150  H     H_    0.889356 0.389530 0.407862 0.142804
H151  H     H_    0.937784 0.559158 0.527581 0.276302
H152  H     H_    0.848897 0.501745 0.543174 0.148220
H153  H     H_    0.880726 0.486572 0.600567 0.175027
H154  H     H_    0.875108 0.384170 0.560545 0.150226
H155  H     H_    0.336311 0.458976 0.422547 0.260491
H156  H     H_    0.249848 0.352958 0.423830 0.139484
H157  H     H_    0.273570 0.314750 0.481740 0.158978
H158  H     H_    0.316297 0.289989 0.430768 0.149577
H159  H     H_    0.749959 0.338917 0.524710 0.250808
H160  H     H_    0.673700 0.156647 0.542650 0.105143
H161  H     H_    0.687013 0.304272 0.588802 0.150868
H162  H     H_    0.646791 0.353602 0.540036 0.126727
H163  H     H_    0.665767 0.429510 0.589997 0.168371
H164  H     H_    0.853135 0.027857 0.417605 0.256242
H165  H     H_    0.800117 0.870982 0.421883 0.149218
H166  H     H_    0.833271 0.854619 0.479159 0.159935
H167  H     H_    0.876339 0.859996 0.427131 0.148112
H168  H     H_    0.150173 0.045084 0.581227 0.268627
H169  H     H_    0.183524 0.873932 0.577306 0.153282
H170  H     H_    0.146461 0.866054 0.521093 0.155459
H171  H     H_    0.336248 0.116497 0.452112 0.118362
H172  H     H_    0.107281 0.887795 0.574197 0.136889
H173  H     H_    0.357705 0.426090 0.536760 0.267919
H174  H     H_    0.300200 0.305819 0.567940 0.134997
H175  H     H_    0.246442 0.392740 0.583592 0.153371
H176  H     H_    0.310613 0.384109 0.618508 0.157293
H177  H     H_    0.761022 0.363704 0.450592 0.239193
H178  H     H_    0.653772 0.357780 0.456652 0.137010
H179  H     H_    0.683000 0.325911 0.400236 0.145357
H180  H     H_    0.654702 0.446036 0.409171 0.154105
H181  H     H_    0.887474 0.010140 0.531027 0.266631
H182  H     H_    0.193030 0.694710 0.453568 0.116704
H183  H     H_    0.864553 0.862080 0.564641 0.128356
H184  H     H_    0.795687 0.904872 0.582235 0.143315
H185  H     H_    0.858444 0.942393 0.614753 0.159168
H186  H     H_    0.111526 0.021714 0.468652 0.300883
H187  H     H_    0.121590 0.871116 0.433354 0.119548
H188  H     H_    0.192476 0.900589 0.414141 0.147697
H189  H     H_    0.131892 0.951235 0.383788 0.168409
H190  H     H_    0.409327 0.989267 0.926644 0.262089
H191  H     H_    0.462336 0.135767 0.951753 0.156203
H192  H     H_    0.506323 0.047220 0.924024 0.128686
N1    N     N_2   0.203471 0.761467 0.960641 -0.506483
N2    N     N_2   0.733124 0.395611 0.543685 -0.525758
N3    N     N_2   0.843544 0.994267 0.449043 -0.530130
N4    N     N_2   0.154715 0.007441 0.550006 -0.515667
N5    N     N_2   0.321918 0.451963 0.553220 -0.522798
N6    N     N_2   0.733955 0.419325 0.441540 -0.523846
N7    N     N_2   0.849571 0.009794 0.549038 -0.514067
N8    N     N_2   0.148527 0.014209 0.449821 -0.485003
N9    N     N_2   0.433182 0.991547 0.957219 -0.531728
N10   N     N_2   0.570215 0.957053 0.041205 -0.571430
N11   N     N_2   0.966636 0.507484 0.954401 -0.545173
N12   N     N_2   0.830694 0.703617 0.050183 -0.543836
N13   N     N_2   0.106405 0.403121 0.042960 -0.556702
N14   N     N_2   0.588159 0.786619 0.950799 -0.571590
N15   N     N_2   0.394546 0.882093 0.060183 -0.562202
N16   N     N_2   0.102651 0.284983 0.941382 -0.563565
N17   N     N_2   0.917653 0.408366 0.057972 -0.552750
N18   N     N_2   0.422067 0.680014 0.955307 -0.541399
N19   N     N_2   0.506228 0.645466 0.049725 -0.550292
N20   N     N_2   0.926863 0.197641 0.950038 -0.542337
N21   N     N_2   0.004658 0.137310 0.044163 -0.554655
N22   N     N_2   0.322388 0.472496 0.945905 -0.534027
N23   N     N_2   0.696909 0.250959 0.961538 -0.527138
N24   N     N_2   0.666474 0.478264 0.050097 -0.530383
N25   N     N_2   0.817957 0.964354 0.945230 -0.533988
N26   N     N_2   0.141531 0.058988 0.041302 -0.512292
N27   N     N_2   0.313550 0.439576 0.045372 -0.529522
N28   N     N_2   0.664073 0.485650 0.948080 -0.516021
N29   N     N_2   0.813547 0.937765 0.045816 -0.520237
N30   N     N_2   0.161403 0.001870 0.945263 -0.513623
N31   N     N_2   0.197473 0.730764 0.060990 -0.513620
N32   N     N_2   0.832400 0.700130 0.950859 -0.533706
N33   N     N_2   0.717050 0.249735 0.060966 -0.502144
N34   N     N_2   0.331641 0.203328 0.051485 -0.542751
N35   N     N_2   0.346648 0.184013 0.954262 -0.514501
N36   N     N_2   0.497426 0.016267 0.448417 -0.510763
N37   N     N_2   0.492735 0.020031 0.550853 -0.506983
N38   N     N_2   0.945166 0.484176 0.444725 -0.520434
N39   N     N_2   0.937686 0.492523 0.544371 -0.507160
N40   N     N_2   0.317451 0.435632 0.453232 -0.527473
O1    O     O_R   0.237900 0.735050 0.799950 -0.510051
O2    O     O_R   0.566580 0.739640 0.301090 -0.502662
O3    O     O_R   0.933420 0.239640 0.698910 -0.506992
O4    O     O_R   0.066580 0.239640 0.301090 -0.496936
O5    O     O_R   0.323550 0.666510 0.701520 -0.492826
O6    O     O_R   0.676450 0.666510 0.298480 -0.495193
O7    O     O_R   0.823550 0.166510 0.701520 -0.492553
O8    O     O_R   0.176450 0.166510 0.298480 -0.489329
O9    O     O_3   0.334980 0.834990 0.749700 -0.249889
O10   O     O_3   0.665020 0.834990 0.250300 -0.249472
O11   O     O_3   0.834980 0.334990 0.749700 -0.248753
O12   O     O_R   0.762100 0.735050 0.200050 -0.508000
O13   O     O_3   0.165020 0.334990 0.250300 -0.251803
O14   O     O_R   0.256160 0.936210 0.796950 -0.488682
O15   O     O_R   0.743840 0.936210 0.203050 -0.492403
O16   O     O_R   0.756160 0.436210 0.796950 -0.489392
O17   O     O_R   0.243840 0.436210 0.203050 -0.495282
O18   O     O_R   0.333710 0.029860 0.801630 -0.525134
O19   O     O_R   0.666290 0.029860 0.198370 -0.513868
O20   O     O_R   0.833710 0.529860 0.801630 -0.520441
O21   O     O_R   0.166290 0.529860 0.198370 -0.513193
O22   O     O_R   0.425340 0.901920 0.798280 -0.499456
O23   O     O_R   0.737900 0.235050 0.799950 -0.510336
O24   O     O_R   0.574660 0.901920 0.201720 -0.494257
O25   O     O_R   0.925340 0.401920 0.798280 -0.500291
O26   O     O_R   0.074660 0.401920 0.201720 -0.498869
O27   O     O_R   0.433530 0.738890 0.801610 -0.513561
O28   O     O_R   0.566470 0.738890 0.198390 -0.519301
O29   O     O_R   0.933530 0.238890 0.801610 -0.508781
O30   O     O_R   0.066470 0.238890 0.198390 -0.518605
O31   O     O_R   0.323650 0.665810 0.796720 -0.498582
O32   O     O_R   0.676350 0.665810 0.203280 -0.499491
O33   O     O_R   0.823650 0.165810 0.796720 -0.495056
O34   O     O_R   0.262100 0.235050 0.200050 -0.510883
O35   O     O_R   0.176350 0.165810 0.203280 -0.496047
O36   O     O_R   0.237790 0.735800 0.697250 -0.512267
O37   O     O_R   0.762210 0.735800 0.302750 -0.511847
O38   O     O_R   0.737790 0.235800 0.697250 -0.514161
O39   O     O_R   0.262210 0.235800 0.302750 -0.512112
O40   O     O_R   0.256050 0.936910 0.701750 -0.497511
O41   O     O_R   0.743950 0.936910 0.298250 -0.497522
O42   O     O_R   0.756050 0.436910 0.701750 -0.492038
O43   O     O_R   0.243950 0.436910 0.298250 -0.496366
O44   O     O_R   0.333600 0.030610 0.698930 -0.506237
O45   O     O_R   0.425240 0.902610 0.703070 -0.494992
O46   O     O_R   0.666400 0.030610 0.301070 -0.510088
O47   O     O_R   0.833600 0.530610 0.698930 -0.515169
O48   O     O_R   0.166400 0.530610 0.301070 -0.507058
O49   O     O_3   0.504797 0.665321 0.550615 -0.558377
O50   O     O_3   0.522941 0.665256 0.453874 -0.555213
O51   O     O_3   0.058663 0.206842 0.556120 -0.552654
O52   O     O_3   0.080252 0.218085 0.459979 -0.544619
O53   O     O_R   0.574760 0.902610 0.296930 -0.497243
O54   O     O_R   0.925240 0.402610 0.703070 -0.497705
O55   O     O_R   0.074760 0.402610 0.296930 -0.499655
O56   O     O_R   0.433420 0.739640 0.698910 -0.502710

loop_
_geom_bond_atom_site_label_1
_geom_bond_atom_site_label_2
_ccdc_geom_bond_type
C157  C158  A    
H87   N31   S    
C134  O28   A    
Cr9   O10   S    
H34   N18   S    
C2    N18   S    
C102  H93   S    
H111  N12   S    
C47   H57   S    
C77   N8    S    
C109  N25   S    
C66   H145  S    
C85   H29   S    
C56   H109  S    
C33   O43   A    
C61   H124  S    
C97   H76   S    
Cr6   O11   S    
Cr7   O17   S    
C159  N36   S    
C128  C145  S    
C87   H37   S    
C79   C142  T    
C36   O2    A    
H137  N36   S    
C154  C170  T    
C63   O51   S    
C42   O8    A    
C133  O22   A    
C48   N14   S    
C78   H3    S    
C73   H170  S    
C62   H130  S    
C3    N4    S    
Cr10  O20   S    
C78   H192  S    
C159  C161  A    
C97   N28   S    
C90   C143  T    
C83   H19   S    
C1    O14   A    
C50   H127  S    
C69   N39   S    
C136  O26   A    
C6    N7    S    
C70   N40   S    
C45   C160  S    
C107  C124  A    
C100  H91   S    
C4    N5    S    
C56   H110  S    
C158  C167  A    
C162  N38   S    
C116  O16   A    
C137  C146  T    
C53   C133  S    
C31   O46   A    
Cr6   O23   S    
C179  C188  A    
C50   C160  S    
C188  H13   S    
C177  C186  A    
C74   H176  S    
C88   H40   S    
C192  N3    S    
C40   O37   A    
C16   C20   S    
C33   O48   A    
C34   O56   A    
H12   N13   S    
C1    C150  S    
C99   N30   S    
C69   H154  S    
H159  N2    S    
C101  C184  S    
C186  H182  S    
Cr2   O10   S    
Cr6   O42   S    
Cr1   O14   S    
C21   C173  T    
C149  C182  S    
C84   N15   S    
H173  N5    S    
Cr10  O11   S    
C71   H162  S    
C72   H166  S    
C103  N33   S    
H186  N8    S    
Cr5   O12   S    
C80   H6    S    
C82   N13   S    
C36   C152  S    
C76   N7    S    
C50   N16   S    
Cr10  O25   S    
C116  C147  S    
C47   C171  S    
C119  C123  A    
C77   H187  S    
C43   N9    S    
C48   C138  S    
C135  O25   A    
H61   N25   S    
C100  H88   S    
C184  O23   A    
C42   C176  S    
C100  N31   S    
C40   C174  S    
C14   C187  A    
C62   H128  S    
C91   H51   S    
C46   C53   T    
Cr11  O48   S    
Cr9   O24   S    
Cr9   O46   S    
Cr11  O26   S    
Cr3   O11   S    
C16   C189  A    
C88   H42   S    
Cr8   O44   S    
C129  C137  S    
C90   C183  S    
C78   N9    S    
C115  N31   S    
C155  C156  A    
C73   H172  S    
C113  N29   S    
Cr12  O9    S    
C93   N24   S    
C36   O53   A    
C68   C160  S    
C44   C48   S    
C110  C128  A    
H43   N20   S    
C64   H135  S    
C166  C172  S    
C52   C134  S    
Cr9   O53   S    
C85   H27   S    
Cr12  O27   S    
C60   H122  S    
C92   H53   S    
C96   N27   S    
C99   H84   S    
H115  N23   S    
C94   H63   S    
C127  O21   A    
Cr1   O36   S    
C10   C179  A    
C74   H174  S    
C180  C189  A    
C65   N36   S    
C67   H148  S    
C11   C25   S    
C92   N22   S    
C180  H171  S    
C65   H140  S    
C114  N30   S    
C118  C122  A    
C24   H101  S    
H17   N14   S    
C81   H9    S    
C82   H15   S    
H78   N29   S    
H39   N19   S    
C24   N20   S    
C134  O24   A    
C118  C131  A    
C181  O1    A    
C133  O27   A    
Cr2   O28   S    
C110  C114  A    
C181  O31   A    
H100  N35   S    
H74   N28   S    
H142  N37   S    
C110  N26   S    
Cr11  O13   S    
Cr12  O31   S    
C141  C150  T    
C8    C21   S    
C47   C50   S    
Cr8   O45   S    
Cr3   O33   S    
C104  H103  S    
C4    C190  A    
H96   N33   S    
C5    C191  A    
H120  N34   S    
C91   N21   S    
C91   H49   S    
C105  C148  S    
C86   H32   S    
C159  C165  A    
C72   N3    S    
C5    C9    A    
C29   C30   S    
C97   H77   S    
Cr7   O34   S    
C60   N34   S    
C26   C33   S    
C1    O18   A    
C58   H114  S    
H56   N24   S    
Cr7   O39   S    
C37   O54   A    
C63   H131  S    
C80   N10   S    
C19   C28   T    
Cr10  O47   S    
C39   O36   A    
C63   H133  S    
C191  N2    S    
C59   H118  S    
C96   H72   S    
C76   H183  S    
C58   H112  S    
C112  N28   S    
C38   O55   A    
C92   H55   S    
C95   H66   S    
C64   O52   S    
C75   H180  S    
C88   N19   S    
C132  C141  S    
C94   N25   S    
C131  C140  S    
C107  C111  A    
C118  N33   S    
C71   H163  S    
C102  H94   S    
C87   N18   S    
H83   N30   S    
C47   N13   S    
C15   C188  A    
C151  C169  T    
C93   H60   S    
C58   H113  S    
C97   H75   S    
Cr1   O1    S    
C89   N20   S    
H65   N26   S    
C81   H11   S    
C125  C143  S    
C116  O20   A    
C153  C172  T    
C126  C144  S    
C58   N12   S    
C104  N35   S    
C102  N32   S    
H181  N7    S    
C73   H169  S    
C185  O35   A    
C109  C126  A    
C13   C171  S    
C34   O45   A    
C38   C154  S    
C30   O44   A    
C112  C130  A    
C182  N19   S    
C84   H23   S    
C177  H138  S    
C51   N17   S    
C44   N10   S    
C3    C16   A    
C45   N11   S    
C54   C57   T    
C45   H68   S    
H8    N11   S    
Cr4   O13   S    
C39   C173  S    
C55   C68   T    
Cr11  O55   S    
C64   H134  S    
C106  C145  T    
C89   H45   S    
C71   N2    S    
C96   H73   S    
Cr3   O7    S    
C93   H58   S    
C3    C7    A    
H177  N6    S    
C101  C144  T    
C98   H80   S    
C111  N27   S    
C95   N26   S    
C43   C138  S    
C7    N8    S    
H146  N38   S    
C105  O15   A    
C5    N6    S    
C56   H108  S    
H168  N4    S    
C8    C177  A    
C111  C129  A    
C103  H98   S    
C51   H116  S    
C70   H157  S    
C12   C17   S    
C32   O42   A    
C76   H185  S    
C32   O47   A    
C13   N21   S    
C66   H143  S    
C69   H153  S    
C61   H126  S    
C99   H86   S    
C121  N12   S    
C75   H178  S    
H52   N22   S    
C41   C175  S    
C117  N32   S    
C184  O33   A    
C182  H90   S    
C130  C139  S    
C71   H161  S    
C152  C168  T    
Cr12  O5    S    
C39   O5    A    
C69   H152  S    
C37   C153  S    
C163  C166  A    
Cr8   O22   S    
Cr4   O4    S    
C87   H38   S    
C104  H102  S    
C79   C181  S    
C2    C138  S    
Cr1   O40   S    
C156  O50   S    
H30   N17   S    
Cr8   O9    S    
C62   H129  S    
C34   C151  S    
C12   C186  A    
C78   H191  S    
C41   O38   A    
C83   N14   S    
C65   H141  S    
C84   H25   S    
C108  N24   S    
C83   H20   S    
Cr9   O19   S    
C77   H188  S    
C49   H1    S    
Cr3   O29   S    
Cr5   O41   S    
C10   C23   S    
C189  H24   S    
C17   C26   T    
C161  C164  A    
C185  O34   A    
C41   O7    A    
C162  C163  A    
C64   H136  S    
C89   H47   S    
C67   H150  S    
C59   H119  S    
C27   C32   S    
C31   O41   A    
C98   N29   S    
C28   C31   S    
C106  C185  S    
C6    C10   A    
C92   H54   S    
C95   H67   S    
C94   H64   S    
C44   C149  S    
C95   H69   S    
Cr4   O30   S    
C74   H175  S    
C67   H147  S    
C156  C165  A    
C65   H139  S    
C75   N6    S    
Cr7   O13   S    
C127  C146  S    
C108  C112  A    
Cr5   O15   S    
C82   H16   S    
C6    C192  A    
C35   C52   T    
Cr4   O35   S    
C11   C180  A    
C35   C149  S    
C183  O32   A    
C72   H165  S    
C9    C178  A    
C80   H5    S    
C15   C192  A    
H107  N1    S    
Cr10  O54   S    
C14   C18   S    
C43   H46   S    
C107  N22   S    
C4    C8    A    
C84   H22   S    
C140  C148  T    
Cr2   O2    S    
Cr6   O38   S    
C23   C175  T    
C7    C11   A    
C139  C147  T    
C104  H104  S    
C136  O30   A    
C56   N1    S    
H164  N3    S    
C57   C171  S    
C13   H106  S    
C163  N39   S    
C55   C135  S    
C9    C22   S    
C45   C51   S    
C161  N37   S    
C86   H33   S    
C157  O51   S    
C30   O40   A    
H155  N40   S    
C2    C182  S    
C117  C121  A    
C121  C125  A    
C15   C19   S    
C83   H18   S    
C49   N15   S    
C120  N1    S    
C135  O29   A    
C67   N38   S    
C108  C125  A    
C109  C113  A    
C46   C138  S    
C103  H99   S    
C88   H41   S    
Cr12  O56   S    
C59   H117  S    
C76   H184  S    
C124  C142  S    
C164  C169  S    
C85   H28   S    
Cr3   O3    S    
C60   H121  S    
C22   C174  T    
C98   H81   S    
Cr1   O9    S    
C167  C170  S    
C75   H179  S    
C20   C29   T    
Cr2   O6    S    
H190  N9    S    
C94   H62   S    
C86   N17   S    
C59   N23   S    
Cr2   O32   S    
H26   N16   S    
C105  O19   A    
H48   N21   S    
C102  H95   S    
C43   C49   S    
C13   C24   S    
C179  H160  S    
C73   N4    S    
Cr5   O10   S    
C122  C126  A    
C123  N34   S    
H151  N39   S    
C74   N5    S    
C81   H10   S    
C82   H14   S    
C54   C136  S    
C183  O12   A    
C119  C132  A    
C117  C130  A    
C72   H167  S    
C80   H7    S    
C14   C191  A    
C77   H189  S    
C42   O39   A    
C165  C168  S    
H21   N15   S    
C70   H156  S    
C40   O6    A    
C178  C187  A    
Cr8   O18   S    
C37   O3    A    
C44   H35   S    
H92   N32   S    
C38   O4    A    
Cr4   O8    S    
Cr6   O16   S    
C115  C129  A    
C87   H36   S    
C113  C131  A    
C119  N35   S    
C114  C132  A    
C18   C27   T    
C100  H89   S    
C62   O50   S    
C157  C166  A    
C61   O49   S    
H70   N27   S    
C24   C160  S    
C2    H79   S    
C91   H50   S    
C155  C164  A    
C12   C190  A    
C86   H31   S    
C89   H44   S    
C49   C149  S    
C51   C171  S    
Cr11  O21   S    
C81   N11   S    
H4    N10   S    
C25   C176  T    
C123  C128  A    
Cr7   O43   S    
Cr5   O37   S    
C127  O17   A    
C187  H2    S    
C155  O49   S    
C63   H132  S    
C190  N40   S    
C48   H105  S    
C66   N37   S    
C122  N23   S    
C162  C167  A    
C98   H82   S    
C103  H97   S    
C115  C120  A    
C70   H158  S    
C158  O52   S    
C96   H71   S    
C178  H149  S    
C66   H144  S    
C60   H123  S    
C61   H125  S    
C99   H85   S    
C120  C124  A    
C93   H59   S    
C85   N16   S    
