data_mof_unit_68292.cif
_audit_creation_date              2012-12-11T14:19:14-0500
_audit_creation_method            fapswitch 2.2
_symmetry_space_group_name_H-M    P1
_symmetry_Int_Tables_number       1
_space_group_crystal_system       triclinic
_cell_length_a                    8.239101
_cell_length_b                    12.698129
_cell_length_c                    14.990212
_cell_angle_alpha                 95.55203
_cell_angle_beta                  98.973616
_cell_angle_gamma                 97.846842
_cell_volume                      1523.38546019

loop_
_atom_site_label
_atom_site_type_symbol
_atom_type_description
_atom_site_fract_x
_atom_site_fract_y
_atom_site_fract_z
_atom_type_partial_charge
Ba1   Ba    Ba6+2 0.153570 0.551840 0.456200 1.653063
Ba2   Ba    Ba6+2 0.656590 0.448150 0.543720 1.662469
C1    C     C_3   0.309826 0.741308 0.143598 -0.276250
C2    C     C_R   0.729354 0.816243 0.468813 -0.272958
C3    C     C_R   0.695362 0.994809 0.432667 -0.101991
C4    C     C_3   0.943340 0.837259 0.260046 0.358466
C5    C     C_R   0.631059 0.886632 0.430843 -0.001346
C6    C     C_R   0.890606 0.851824 0.514804 0.043040
C7    C     C_R   0.956881 0.963970 0.520993 -0.056381
C8    C     C_R   0.857617 0.036610 0.478454 -0.056484
C9    C     C_R   0.923200 0.148769 0.484702 0.056552
C10   C     C_R   0.184259 0.113818 0.568229 0.002548
C11   C     C_R   0.118817 0.005853 0.567306 -0.099695
C12   C     C_3   0.434524 0.824281 0.209901 0.367156
C13   C     C_R   0.231068 0.456669 0.766040 -0.275740
C14   C     C_R   0.132921 0.420288 0.827455 0.012266
C15   C     C_R   0.198125 0.432472 0.920641 -0.141984
C16   C     C_3   0.992836 0.948910 0.234891 -0.357899
C17   C     C_R   0.365059 0.482252 0.953658 0.014711
C18   C     C_R   0.458647 0.520895 0.889068 -0.124794
C19   C     C_R   0.390640 0.510316 0.797367 0.031623
C20   C     C_R   0.602516 0.554822 0.085863 -0.136250
C21   C     C_R   0.668467 0.571631 0.178368 0.021727
C22   C     C_R   0.417468 0.474998 0.211683 0.026855
C23   C     C_3   0.690220 0.760135 0.794001 0.318953
C24   C     C_R   0.349290 0.458492 0.119080 -0.137064
C25   C     C_R   0.439336 0.498771 0.053609 0.015105
C26   C     C_R   0.574374 0.534617 0.241317 -0.269929
C27   C     C_3   0.716479 0.307022 0.269222 0.301197
C28   C     C_3   0.679903 0.274902 0.166704 -0.419664
C29   C     C_3   0.090150 0.687843 0.728910 0.293133
C30   C     C_3   0.150969 0.720760 0.830384 -0.414128
C31   C     C_3   0.146188 0.229907 0.205771 0.266775
C32   C     C_3   0.228531 0.167821 0.138619 -0.452210
C33   C     C_3   0.509758 0.915529 0.160638 -0.190188
C34   C     C_3   0.718183 0.880336 0.823679 -0.247452
C35   C     C_3   0.588626 0.876947 0.079828 -0.493139
C36   C     C_3   0.602527 0.940259 0.764629 -0.155191
C37   C     C_3   0.607428 0.920600 0.662549 -0.261303
C38   C     C_3   0.960691 0.167206 0.782600 0.331831
C39   C     C_3   0.054292 0.131099 0.867266 -0.421370
C40   C     C_3   0.446886 0.227277 0.792796 0.358689
C41   C     C_3   0.492448 0.201397 0.889908 -0.394289
C42   C     C_R   0.085868 0.184049 0.529314 -0.242863
H1    H     H_    0.537045 0.782889 0.240233 -0.039113
H2    H     H_    0.083584 0.289665 0.170355 0.020674
H3    H     H_    0.046461 0.174348 0.225975 0.061151
H4    H     H_    0.260063 0.677813 0.182166 0.153563
H5    H     H_    0.132206 0.119193 0.084736 0.088063
H6    H     H_    0.303987 0.114128 0.174583 0.137899
H7    H     H_    0.309534 0.224025 0.106184 0.097550
H8    H     H_    0.370302 0.702932 0.090894 0.056295
H9    H     H_    0.726649 0.718536 0.854291 -0.012524
H10   H     H_    0.772082 0.746156 0.743404 0.053907
H11   H     H_    0.849780 0.913565 0.822643 0.073356
H12   H     H_    0.592454 0.198395 0.149938 0.125325
H13   H     H_    0.696912 0.894558 0.894957 0.076387
H14   H     H_    0.206388 0.779081 0.109588 0.133799
H15   H     H_    0.890424 0.972245 0.187394 0.095905
H16   H     H_    0.886261 0.095643 0.740436 0.040249
H17   H     H_    0.048209 0.200446 0.739229 -0.051282
H18   H     H_    0.126520 0.067708 0.846897 0.089479
H19   H     H_    0.139818 0.200087 0.908216 0.104350
H20   H     H_    0.965228 0.097806 0.909773 0.117526
H21   H     H_    0.319295 0.247255 0.783199 -0.058341
H22   H     H_    0.534892 0.298191 0.783906 0.112938
H23   H     H_    0.624726 0.337627 0.131597 0.072340
H24   H     H_    0.468567 0.266773 0.938746 0.078064
H25   H     H_    0.626028 0.193138 0.905163 0.150035
H26   H     H_    0.038644 0.825183 0.317497 0.115769
H27   H     H_    0.417638 0.125014 0.899475 0.110682
H28   H     H_    0.615802 0.045214 0.399287 0.109627
H29   H     H_    0.196743 0.955529 0.601983 0.101034
H30   H     H_    0.138431 0.267409 0.531951 0.072624
H31   H     H_    0.676561 0.732858 0.465810 0.072559
H32   H     H_    0.683536 0.586049 0.041865 0.070394
H33   H     H_    0.114772 0.404541 0.964916 0.069933
H34   H     H_    0.795856 0.263407 0.140874 0.102856
H35   H     H_    0.227072 0.412919 0.100035 0.058610
H36   H     H_    0.583035 0.563434 0.907354 0.066594
H37   H     H_    0.627180 0.546706 0.312982 0.066535
H38   H     H_    0.820685 0.833379 0.282471 -0.066296
H39   H     H_    0.179357 0.450319 0.694440 0.059766
H40   H     H_    0.021556 0.007605 0.297576 0.074488
H41   H     H_    0.104354 0.951631 0.201490 0.152589
H42   H     H_    0.601471 0.325241 0.292362 0.024483
H43   H     H_    0.814290 0.378807 0.284788 0.060032
H44   H     H_    0.667380 0.945955 0.059817 0.132107
H45   H     H_    0.189546 0.656068 0.698119 0.041083
H46   H     H_    0.490718 0.843668 0.020026 0.132223
H47   H     H_    0.666496 0.814613 0.097544 0.160233
H48   H     H_    0.411528 0.962654 0.135161 0.112208
H49   H     H_    0.606012 0.970348 0.211049 0.101418
H50   H     H_    0.719222 0.967828 0.645490 0.087527
H51   H     H_    0.606303 0.835196 0.637916 0.097235
H52   H     H_    0.494847 0.943758 0.624083 0.145973
H53   H     H_    0.472831 0.917819 0.776130 0.142355
H54   H     H_    0.640921 0.026276 0.788859 0.158873
H55   H     H_    0.980052 0.624475 0.719789 0.055176
H56   H     H_    0.267662 0.779126 0.841405 0.134936
H57   H     H_    0.174843 0.650062 0.865253 0.070723
H58   H     H_    0.055601 0.758364 0.861239 0.102468
O1    O     O_2   0.168170 0.764170 0.543850 -0.452377
O2    O     O_2   0.797150 0.434364 0.822479 -0.499521
O3    O     O_3   0.851453 0.236171 0.808557 -0.592772
O4    O     O_3   0.898670 0.629780 0.545890 -0.492426
O5    O     O_3   0.409490 0.443300 0.392340 -0.457467
O6    O     O_2   0.674250 0.555830 0.719690 -0.480343
O7    O     O_3   0.523474 0.724326 0.753669 -0.651010
O8    O     O_2   0.524732 0.118226 0.566318 -0.475822
O9    O     O_3   0.457068 0.138505 0.731253 -0.622997
O10   O     O_3   0.365980 0.695510 0.380810 -0.475442
O11   O     O_2   0.299085 0.885504 0.441833 -0.490365
O12   O     O_3   0.262936 0.271596 0.284845 -0.607316
O13   O     O_3   0.048694 0.778066 0.689330 -0.649198
O14   O     O_3   0.348257 0.869683 0.274625 -0.615272
O15   O     O_2   0.136040 0.444100 0.280280 -0.468863
O16   O     O_3   0.934510 0.640480 0.335500 -0.497324
O17   O     O_2   0.000013 0.562739 0.176265 -0.491080
O18   O     O_3   0.936573 0.760233 0.184889 -0.618179
O19   O     O_2   0.642110 0.235770 0.456130 -0.447809
O20   O     O_3   0.911620 0.370210 0.454030 -0.491418
O21   O     O_3   0.444310 0.304480 0.619110 -0.479460
O22   O     O_3   0.769166 0.220770 0.310548 -0.647359
O23   O     O_3   0.400800 0.556680 0.607590 -0.456726
O24   O     O_3   0.875770 0.359510 0.664420 -0.470860
P1    P     P_3+3 0.998660 0.747790 0.570900 0.972393
P2    P     P_3+3 0.306970 0.411860 0.294270 1.003155
P3    P     P_3+3 0.884757 0.632825 0.217739 0.928555
P4    P     P_3+3 0.811620 0.252200 0.429030 0.998870
P5    P     P_3+3 0.915083 0.364939 0.782783 0.958238
P6    P     P_3+3 0.412905 0.834544 0.383160 0.951550
P7    P     P_3+3 0.496981 0.586702 0.721569 0.942144
P8    P     P_3+3 0.401383 0.166999 0.619705 0.966487

loop_
_geom_bond_atom_site_label_1
_geom_bond_atom_site_label_2
_ccdc_geom_bond_type
C38   H16   S    
O11   P6    D    
Ba2   O5    S    
C35   H44   S    
C17   C18   A    
Ba1   P2    S    
C20   H32   S    
O19   P4    D    
C2    C6    A    
O3    P5    S    
Ba2   O21   S    
C10   C11   A    
C32   H7    S    
C35   H46   S    
C4    H38   S    
C33   C35   S    
C23   H9    S    
O5    P2    S    
C3    H28   S    
C36   H53   S    
Ba1   O10   S    
C34   H11   S    
C36   C37   S    
C13   C14   A    
C27   O22   S    
C1    H4    S    
O13   P1    S    
C21   P3    S    
Ba1   Ba2   S    
C29   O13   S    
C14   P5    S    
C7    C11   A    
Ba1   O20   S    
C2    H31   S    
Ba2   P4    S    
C19   P7    S    
C14   C15   A    
C29   H45   S    
O2    P5    D    
C40   H21   S    
C16   H40   S    
C29   H55   S    
O1    P1    D    
C7    C8    A    
Ba1   O1    S    
C28   H23   S    
C23   O7    S    
Ba1   O4    S    
C33   H48   S    
Ba2   O20   S    
C41   H25   S    
C10   P8    S    
C31   H2    S    
C39   H18   S    
C2    C5    A    
C4    O18   S    
C12   H1    S    
C36   H54   S    
C33   H49   S    
C4    C16   S    
C32   H6    S    
C16   H41   S    
C35   H47   S    
O21   P8    S    
O7    P7    S    
O18   P3    S    
C22   C26   A    
C23   H10   S    
C34   H13   S    
C12   C33   S    
C3    C5    A    
C18   H36   S    
C6    C7    A    
C13   H39   S    
C28   H12   S    
O4    P1    S    
Ba2   O4    S    
C38   H17   S    
C30   H56   S    
C40   O9    S    
C1    H14   S    
C37   H50   S    
C27   C28   S    
O6    P7    D    
O12   P2    S    
C6    P1    S    
C29   C30   S    
O14   P6    S    
C15   H33   S    
C31   C32   S    
C27   H42   S    
O22   P4    S    
C9    C42   A    
Ba1   O15   S    
C21   C26   A    
O10   P6    S    
C42   H30   S    
C37   H51   S    
C5    P6    S    
C1    C12   S    
Ba1   O5    S    
Ba2   O24   S    
C38   C39   S    
C11   H29   S    
C20   C25   A    
C24   C25   A    
C31   H3    S    
C30   H58   S    
O8    P8    D    
C40   C41   S    
C39   H19   S    
C15   C17   A    
C9    P4    S    
C17   C25   S    
C22   P2    S    
Ba2   O19   S    
O23   P7    S    
C4    H26   S    
C32   H5    S    
C41   H27   S    
C26   H37   S    
C30   H57   S    
Ba1   P1    S    
C22   C24   A    
C1    H8    S    
O9    P8    S    
C31   O12   S    
C41   H24   S    
C24   H35   S    
Ba1   O23   S    
C34   C36   S    
C3    C8    A    
C10   C42   A    
O16   P3    S    
O24   P5    S    
C12   O14   S    
Ba2   O6    S    
O17   P3    D    
Ba1   O16   S    
O15   P2    D    
C37   H52   S    
C27   H43   S    
C8    C9    A    
C23   C34   S    
C28   H34   S    
Ba2   O23   S    
C16   H15   S    
C13   C19   A    
C18   C19   A    
C40   H22   S    
C20   C21   A    
C39   H20   S    
O20   P4    S    
C38   O3    S    
