data_mof_unit_36305.cif
_audit_creation_date              2012-12-11T17:29:36-0500
_audit_creation_method            fapswitch 2.2
_symmetry_space_group_name_H-M    P1
_symmetry_Int_Tables_number       1
_space_group_crystal_system       triclinic
_cell_length_a                    19.182718
_cell_length_b                    18.80317
_cell_length_c                    20.328981
_cell_angle_alpha                 106.43192
_cell_angle_beta                  106.425904
_cell_angle_gamma                 111.591382
_cell_volume                      5892.29444491

loop_
_atom_site_label
_atom_site_type_symbol
_atom_type_description
_atom_site_fract_x
_atom_site_fract_y
_atom_site_fract_z
_atom_type_partial_charge
C1    C     C_R   0.086514 0.088844 0.354398 -0.091516
C2    C     C_R   0.761398 0.993105 0.550368 0.071116
C3    C     C_R   0.759768 0.771113 0.271063 -0.087271
C4    C     C_R   0.965590 0.221076 0.464880 -0.053510
C5    C     C_R   0.228396 0.229151 0.644238 -0.135602
C6    C     C_R   0.920665 0.755531 0.494225 -0.142749
C7    C     C_R   0.174025 0.928121 0.477784 -0.142045
C8    C     C_R   0.030726 0.051361 0.718552 -0.149466
C9    C     C_R   0.960622 0.909870 0.653383 -0.128660
C10   C     C_R   0.244341 0.070026 0.542353 -0.130362
C11   C     C_R   0.151936 0.223411 0.708800 -0.162933
C12   C     C_R   0.764435 0.925099 0.507294 -0.167361
C13   C     C_R   0.998324 0.763540 0.430850 -0.129370
C14   C     C_R   0.226326 0.274623 0.709634 0.054945
C15   C     C_R   0.946102 0.708751 0.450104 0.073748
C16   C     C_R   0.250782 0.997078 0.529495 0.072819
C17   C     C_R   0.014401 0.975868 0.725496 0.075419
C18   C     C_R   0.946853 0.579933 0.373962 -0.257696
C19   C     C_R   0.914775 0.616486 0.419354 0.108444
C20   C     C_R   0.858676 0.565722 0.440087 -0.207399
C21   C     C_R   0.844236 0.483071 0.425063 0.062631
C22   C     C_R   0.886197 0.451439 0.388764 0.034063
C23   C     C_R   0.841147 0.804755 0.280565 -0.211911
C24   C     C_R   0.934454 0.498554 0.359919 0.158130
C25   C     C_R   0.794917 0.434750 0.452029 -0.340758
C26   C     C_R   0.792844 0.358793 0.449365 0.589829
C27   C     C_R   0.845168 0.334099 0.423565 -0.104250
C28   C     C_R   0.887817 0.377709 0.389083 -0.010586
C29   C     C_R   0.939712 0.353281 0.362556 0.172996
C30   C     C_R   0.979846 0.395152 0.326261 -0.203354
C31   C     C_R   0.976822 0.467411 0.324546 -0.208979
C32   C     C_R   0.862866 0.273221 0.438894 -0.189279
C33   C     C_R   0.926674 0.261126 0.425840 0.128711
C34   C     C_R   0.953639 0.200337 0.522765 0.497557
C35   C     C_R   0.958429 0.294547 0.380773 -0.246587
C36   C     C_R   0.388918 0.023903 0.608651 -0.275636
C37   C     C_R   0.326008 0.995488 0.537387 0.099076
C38   C     C_R   0.334698 0.968014 0.470637 -0.219836
C39   C     C_R   0.406937 0.967715 0.473852 0.070657
C40   C     C_R   0.471040 0.994451 0.545140 0.070419
C41   C     C_R   0.462123 0.022712 0.612971 0.166378
C42   C     C_R   0.415740 0.941689 0.406716 -0.372589
C43   C     C_R   0.489065 0.942634 0.409467 0.544582
C44   C     C_R   0.552184 0.966419 0.480003 -0.032017
C45   C     C_R   0.761644 0.797846 0.343469 0.520846
C46   C     C_R   0.543824 0.993089 0.548310 -0.072307
C47   C     C_R   0.608511 0.019281 0.619586 0.006159
C48   C     C_R   0.599166 0.047516 0.686673 -0.165038
C49   C     C_R   0.526316 0.049295 0.683326 -0.225139
C50   C     C_R   0.624417 0.965805 0.483558 -0.281235
C51   C     C_R   0.687427 0.990505 0.552929 -0.073914
C52   C     C_R   0.681044 0.016774 0.621563 0.464427
C53   C     C_R   0.283051 0.365534 0.760111 0.141673
C54   C     C_R   0.262257 0.411394 0.811569 -0.188950
C55   C     C_R   0.321227 0.493390 0.866537 -0.148709
C56   C     C_R   0.025478 0.200420 0.453759 -0.232844
C57   C     C_R   0.401445 0.530201 0.870481 0.215818
C58   C     C_R   0.418867 0.489028 0.813749 -0.171425
C59   C     C_R   0.360396 0.406698 0.759239 -0.179207
C60   C     C_R   0.609809 0.697359 0.071575 -0.258435
C61   C     C_R   0.681127 0.744407 0.139936 -0.197002
C62   C     C_R   0.543552 0.622649 0.060579 0.116273
C63   C     C_R   0.687326 0.717561 0.197775 0.107939
C64   C     C_R   0.622600 0.642698 0.186853 -0.347261
C65   C     C_R   0.549427 0.596101 0.118926 0.517717
C66   C     C_R   0.105070 0.031261 0.235718 -0.041636
C67   C     C_R   0.831832 0.065048 0.570206 -0.037856
C68   C     C_R   0.123548 0.967869 0.203618 -0.481031
C69   C     C_R   0.153439 0.968831 0.148111 0.571506
C70   C     C_R   0.166898 0.035960 0.126667 0.097046
C71   C     C_R   0.156729 0.103277 0.164369 -0.462275
C72   C     C_R   0.126671 0.102519 0.219675 0.557387
C73   C     C_R   0.158293 0.029114 0.922644 -0.260758
C74   C     C_R   0.127350 0.034060 0.854536 -0.180488
C75   C     C_R   0.114255 0.956541 0.931745 0.133271
C76   C     C_R   0.052256 0.966968 0.794366 0.126851
C77   C     C_R   0.012714 0.891519 0.800604 -0.399971
C78   C     C_R   0.016865 0.948734 0.289477 -0.163861
C79   C     C_R   0.044741 0.884569 0.868774 0.540029
C80   C     C_R   0.065074 0.023357 0.287307 0.151300
H1    H     H_    0.870534 0.730373 0.509665 0.093458
H2    H     H_    0.937419 0.842814 0.637134 0.096621
H3    H     H_    0.019418 0.747119 0.387813 0.085826
H4    H     H_    0.987800 0.616447 0.354859 0.116140
H5    H     H_    0.761184 0.457901 0.478726 0.164635
H6    H     H_    0.723976 0.859432 0.491859 0.163946
H7    H     H_    0.831364 0.240488 0.466207 0.199293
H8    H     H_    0.018194 0.375702 0.304013 0.131265
H9    H     H_    0.012819 0.502419 0.300865 0.131494
H10   H     H_    0.285230 0.948233 0.416073 0.131030
H11   H     H_    0.366147 0.921288 0.352158 0.163724
H12   H     H_    0.633466 0.948724 0.432358 0.187561
H13   H     H_    0.862499 0.794985 0.236642 0.135782
H14   H     H_    0.647953 0.068248 0.741736 0.164768
H15   H     H_    0.520072 0.071224 0.735607 0.135101
H16   H     H_    0.607041 0.719160 0.027470 0.156668
H17   H     H_    0.378439 0.373849 0.720115 0.113869
H18   H     H_    0.628892 0.621216 0.231242 0.170131
H19   H     H_    0.202433 0.383103 0.812426 0.109820
H20   H     H_    0.160795 0.091763 0.850152 0.132476
H21   H     H_    0.954479 0.840353 0.753996 0.118239
H22   H     H_    0.114564 0.917666 0.221718 0.156825
H23   H     H_    0.851660 0.127502 0.611360 0.155303
H24   H     H_    0.269576 0.254311 0.619990 0.087424
N1    N     N_R   0.052570 0.055840 0.395080 -0.049791
N2    N     N_R   0.954640 0.834860 0.500130 -0.039794
N3    N     N_R   0.122510 0.958410 0.460270 -0.040939
N4    N     N_R   0.990190 0.031260 0.644790 -0.040808
N5    N     N_R   0.947430 0.944160 0.604920 -0.039080
N6    N     N_R   0.165270 0.045500 0.500140 -0.042738
N7    N     N_R   0.109810 0.150880 0.644800 -0.039377
N8    N     N_R   0.002890 0.838790 0.460260 -0.037236
N9    N     N_2   0.469189 0.594197 0.939705 -0.105793
N10   N     N_2   0.472297 0.568690 0.990229 -0.053405
N11   N     N_2   0.174392 0.031062 0.058537 -0.069291
N12   N     N_R   0.834730 0.954500 0.499860 -0.051350
N13   N     N_2   0.126895 0.958881 0.004764 -0.031821
N14   N     N_R   0.890190 0.849120 0.355200 -0.063816
N15   N     N_R   0.997110 0.161210 0.539740 -0.106817
N16   N     N_R   0.841940 0.845190 0.395070 -0.086694
N17   N     N_R   0.045360 0.165140 0.499870 -0.064042
N18   N     N_R   0.877490 0.041590 0.539730 -0.064248
N19   N     N_R   0.009810 0.968740 0.355210 -0.039677
N20   N     N_R   0.158060 0.154810 0.604930 -0.034147
Ni1   Ni    Ni4+2 0.104370 0.104380 0.500010 0.198997
Ni2   Ni    Ni4+2 0.895630 0.895620 0.499990 0.226895
Ni3   Ni    Ni4+2 0.006290 0.904630 0.408560 0.202066
Ni4   Ni    Ni4+2 0.993710 0.095370 0.591440 0.201259
H25   H     H_    0.135995 0.153361 0.378171 0.114016
H26   H     H_    0.159013 0.862496 0.451883 0.106116
H27   H     H_    0.071089 0.115181 0.763176 0.104785
H28   H     H_    0.293931 0.134961 0.575924 0.104893
H29   H     H_    0.124387 0.242705 0.745113 0.084159
H30   H     H_    0.830901 0.591819 0.472622 0.115759
O1    O     O_3   0.750268 0.317713 0.483758 -0.633077
C81   C     C_3   0.677643 0.241480 0.427577 0.256487
H31   H     H_    0.662331 0.196857 0.453744 0.127297
H32   H     H_    0.685451 0.208778 0.377261 0.069777
C82   C     C_3   0.604365 0.257458 0.401634 -0.962925
H33   H     H_    0.615583 0.298649 0.371756 0.252876
H34   H     H_    0.546774 0.196125 0.361908 0.220797
H35   H     H_    0.595615 0.288735 0.451502 0.270894
H36   H     H_    0.003778 0.281790 0.365862 0.134210
H37   H     H_    0.380400 0.045932 0.659667 0.134416
O2    O     O_3   0.496844 0.915576 0.342532 -0.642190
C83   C     C_3   0.527127 0.985422 0.325481 0.249154
H38   H     H_    0.585928 0.039774 0.374062 0.072434
H39   H     H_    0.479844 0.006325 0.311012 0.107688
C84   C     C_3   0.545714 0.959155 0.257346 -0.890764
H40   H     H_    0.488109 0.905942 0.207201 0.263850
H41   H     H_    0.569855 0.013701 0.243490 0.212047
H42   H     H_    0.593251 0.938544 0.270593 0.242474
O3    O     O_3   0.747595 0.045679 0.689977 -0.637799
C85   C     C_3   0.745381 0.975251 0.703256 0.242881
H43   H     H_    0.739262 0.925159 0.653276 0.087628
H44   H     H_    0.692516 0.947253 0.717175 0.091945
C86   C     C_3   0.826127 0.004568 0.770305 -0.857275
H45   H     H_    0.833735 0.053200 0.822004 0.254657
H46   H     H_    0.825197 0.949787 0.781445 0.207918
H47   H     H_    0.879742 0.032268 0.757378 0.257216
H48   H     H_    0.731026 0.802545 0.148217 0.141997
H49   H     H_    0.480895 0.516917 0.816903 0.122020
H50   H     H_    0.307287 0.525151 0.910371 0.121449
O4    O     O_3   0.485278 0.520471 0.105797 -0.620439
C87   C     C_3   0.451007 0.536236 0.157799 0.262149
H51   H     H_    0.440460 0.591723 0.162907 0.083838
H52   H     H_    0.492426 0.547489 0.214814 0.102431
C88   C     C_3   0.367434 0.458772 0.129862 -0.876320
H53   H     H_    0.375640 0.402379 0.125385 0.258326
H54   H     H_    0.339983 0.470157 0.170466 0.204570
H55   H     H_    0.324207 0.446101 0.073095 0.255259
O5    O     O_3   0.916709 0.228978 0.565321 -0.663931
C89   C     C_3   0.976939 0.281690 0.641568 0.229281
H56   H     H_    0.033746 0.332054 0.645188 0.101668
H57   H     H_    0.994670 0.243556 0.668968 0.087515
C90   C     C_3   0.940617 0.325200 0.685568 -0.855707
H58   H     H_    0.884772 0.277120 0.684721 0.256456
H59   H     H_    0.987604 0.367222 0.745563 0.203680
H60   H     H_    0.922664 0.364064 0.659519 0.268745
H61   H     H_    0.213667 0.084333 0.969651 0.158349
H62   H     H_    0.164913 0.152615 0.145110 0.165252
O6    O     O_3   0.107372 0.164631 0.250550 -0.633654
C91   C     C_3   0.177990 0.246176 0.285272 0.268295
H63   H     H_    0.189025 0.267168 0.241532 0.105357
H64   H     H_    0.234827 0.247453 0.321296 0.078310
C92   C     C_3   0.162650 0.309767 0.335970 -0.932806
H65   H     H_    0.155262 0.293846 0.382978 0.240428
H66   H     H_    0.216224 0.374590 0.360839 0.218435
H67   H     H_    0.105527 0.308917 0.301989 0.258118
O7    O     O_3   0.174615 0.908507 0.117208 -0.626200
C93   C     C_3   0.106515 0.825707 0.084243 0.283734
H68   H     H_    0.047325 0.821759 0.049705 0.114293
H69   H     H_    0.099448 0.804681 0.128969 0.080802
C94   C     C_3   0.123049 0.764884 0.031895 -0.849436
H70   H     H_    0.180747 0.765797 0.064806 0.250237
H71   H     H_    0.070152 0.699398 0.005602 0.202255
H72   H     H_    0.130509 0.783944 0.986289 0.271079
O8    O     O_3   0.004310 0.813917 0.880502 -0.639358
C95   C     C_3   0.961158 0.736867 0.813574 0.265141
H73   H     H_    0.997215 0.734869 0.779246 0.089324
H74   H     H_    0.899496 0.727637 0.778749 0.102316
C96   C     C_3   0.946049 0.663237 0.835135 -0.900484
H75   H     H_    0.913642 0.665154 0.872529 0.261408
H76   H     H_    0.906896 0.602171 0.782957 0.217056
H77   H     H_    0.006174 0.666821 0.865337 0.251069
O9    O     O_3   0.695081 0.769641 0.361228 -0.654287
C97   C     C_3   0.638353 0.796002 0.330585 0.227032
H78   H     H_    0.614961 0.773614 0.268231 0.104980
H79   H     H_    0.668138 0.866337 0.356472 0.097753
C98   C     C_3   0.562764 0.759734 0.346050 -0.886338
H80   H     H_    0.581004 0.784147 0.408120 0.250964
H81   H     H_    0.516814 0.777897 0.320192 0.257616
H82   H     H_    0.532996 0.689418 0.320615 0.237857
H83   H     H_    0.050168 0.207686 0.413266 0.145046
H84   H     H_    0.000271 0.885323 0.252303 0.096285

loop_
_geom_bond_atom_site_label_1
_geom_bond_atom_site_label_2
_ccdc_geom_bond_type
C66   C68   A    
C97   C98   S    
C40   C41   A    
C87   H51   S    
C95   H74   S    
C73   C74   A    
C71   H62   S    
C94   H71   S    
C19   C20   A    
C75   N13   S    
C91   H63   S    
C2    C12   A    
C23   N14   A    
C93   H69   S    
O2    C83   S    
C53   C59   A    
C67   H23   S    
O1    C81   S    
N2    N8    A    
C89   H56   S    
C40   C46   A    
C5    N20   A    
C26   C27   A    
O7    C93   S    
N12   N18   A    
C18   C24   A    
C22   C24   A    
O4    C87   S    
C68   H22   S    
C62   N10   S    
C13   N8    A    
C1    H25   S    
C11   H29   S    
C38   C39   A    
C11   C14   A    
N16   Ni2   S    
C94   H72   S    
C4    C33   S    
C44   C50   A    
C34   N15   A    
N4    N5    A    
N1    N19   A    
C60   C62   A    
C42   H11   S    
N14   N16   A    
C61   C63   A    
O6    C91   S    
C7    H26   S    
C21   C25   A    
C26   O1    S    
C33   C35   A    
C6    C15   A    
C46   C47   A    
C73   H61   S    
C77   H21   S    
C88   H55   S    
C66   C72   A    
O3    C85   S    
C68   C69   A    
C31   H9    S    
C96   H77   S    
C95   C96   S    
C18   H4    S    
C90   H58   S    
C70   C71   A    
C29   C30   A    
C56   H83   S    
C9    H2    S    
N15   Ni4   S    
C64   H18   S    
C94   H70   S    
C27   C32   A    
C5    H24   S    
C95   H73   S    
C86   H46   S    
C79   O8    S    
N12   Ni2   S    
C21   C22   A    
C4    C56   A    
C86   H45   S    
C73   C75   A    
C36   C41   A    
C87   H52   S    
C81   C82   S    
C8    N4    A    
C41   C49   A    
C44   C46   A    
C39   C42   A    
C83   H39   S    
C89   H57   S    
C9    N5    A    
C4    C34   A    
C96   H75   S    
C83   H38   S    
C11   N7    A    
C51   C52   A    
C76   C77   A    
C85   C86   S    
C81   H32   S    
C2    C67   A    
C84   H42   S    
C39   C40   A    
O9    C97   S    
C18   C19   A    
C57   N9    S    
N11   N13   D    
C3    C23   A    
C53   C54   A    
C32   H7    S    
C3    C45   A    
N4    Ni4   S    
C97   H78   S    
C60   C61   A    
C78   H84   S    
C15   C19   S    
C43   C44   A    
N8    Ni3   S    
C45   O9    S    
N17   Ni1   S    
C37   C38   A    
C43   O2    S    
C17   C76   S    
C83   C84   S    
N19   Ni3   S    
C47   C48   A    
C13   C15   A    
C8    H27   S    
C25   H5    S    
C50   C51   A    
C6    N2    A    
C77   C79   A    
C49   H15   S    
C78   N19   A    
C78   C80   A    
C85   H43   S    
C5    C14   A    
O8    C95   S    
N15   N17   A    
C96   H76   S    
C60   H16   S    
C45   N16   A    
C50   H12   S    
C88   H53   S    
C52   O3    S    
N1    Ni1   S    
C48   H14   S    
C86   H47   S    
C98   H81   S    
C55   C57   A    
C59   H17   S    
N3    N6    A    
C61   H48   S    
C54   H19   S    
C91   C92   S    
C65   O4    S    
C42   C43   A    
C74   C76   A    
C30   H8    S    
C58   H49   S    
C67   N18   A    
C27   C28   A    
C34   O5    S    
O5    C89   S    
C97   H79   S    
N9    N10   D    
C89   C90   S    
C9    C17   A    
C93   H68   S    
C38   H10   S    
C54   C55   A    
C28   C29   A    
C62   C65   A    
N7    N20   A    
C58   C59   A    
C85   H44   S    
C7    C16   A    
C16   C37   S    
C81   H31   S    
C69   O7    S    
C74   H20   S    
C82   H33   S    
N18   Ni4   S    
C47   C52   A    
C3    C63   S    
C70   N11   S    
C87   C88   S    
C98   H82   S    
C66   C80   S    
C29   C35   A    
N2    Ni2   S    
C8    C17   A    
C12   H6    S    
C32   C33   A    
C90   H60   S    
C92   H67   S    
C84   H41   S    
C25   C26   A    
C24   C31   A    
C55   H50   S    
C71   C72   A    
C10   C16   A    
C84   H40   S    
C56   N17   A    
C82   H34   S    
C57   C58   A    
C30   C31   A    
C75   C79   A    
C48   C49   A    
C64   C65   A    
C88   H54   S    
C82   H35   S    
C10   N6    A    
C7    N3    A    
C36   H37   S    
C69   C70   A    
C10   H28   S    
C93   C94   S    
C2    C51   S    
N6    Ni1   S    
N3    Ni3   S    
C63   C64   A    
C23   H13   S    
N5    Ni2   S    
C14   C53   S    
C20   C21   A    
C91   H64   S    
C36   C37   A    
C98   H80   S    
N14   Ni3   S    
C1    N1    A    
N7    Ni4   S    
C6    H1    S    
C1    C80   A    
N20   Ni1   S    
C22   C28   A    
C20   H30   S    
C92   H65   S    
C92   H66   S    
C13   H3    S    
C35   H36   S    
C90   H59   S    
C12   N12   A    
C72   O6    S    
