data_mof_unit_63118.cif
_audit_creation_date              2012-12-10T18:53:23-0500
_audit_creation_method            fapswitch 2.2
_symmetry_space_group_name_H-M    P1
_symmetry_Int_Tables_number       1
_space_group_crystal_system       monoclinic
_cell_length_a                    30.324125
_cell_length_b                    30.322591
_cell_length_c                    21.688818
_cell_angle_alpha                 89.999984
_cell_angle_beta                  90.0
_cell_angle_gamma                 90.0
_cell_volume                      19942.9991473

loop_
_atom_site_label
_atom_site_type_symbol
_atom_type_description
_atom_site_fract_x
_atom_site_fract_y
_atom_site_fract_z
_atom_type_partial_charge
C1    C     C_R   0.500000 0.086235 0.000005 0.926441
C2    C     C_R   0.086272 0.500000 0.000000 0.930300
C3    C     C_R   0.500000 0.913764 0.999995 0.926441
C4    C     C_R   0.913765 0.500000 0.000000 0.924518
C5    C     C_R   0.000000 0.586236 0.499995 0.926441
C6    C     C_R   0.586235 1.000000 0.500000 0.924517
C7    C     C_R   0.000000 0.413764 0.500005 0.926441
C8    C     C_R   0.413728 0.000000 0.500000 0.930303
C9    C     C_R   0.499991 0.225911 0.000041 -0.007495
C10   C     C_R   0.226052 0.500000 0.000000 -0.011725
C11   C     C_R   0.499991 0.774089 0.999959 -0.007495
C12   C     C_R   0.774096 0.500000 0.000000 -0.007602
C13   C     C_R   0.000009 0.725911 0.499959 -0.007495
C14   C     C_R   0.725904 1.000000 0.500000 -0.007603
C15   C     C_R   0.000009 0.274089 0.500041 -0.007495
C16   C     C_R   0.273948 1.000000 0.500000 -0.011723
C17   C     C_R   0.486627 0.296780 0.052758 -0.241893
C18   C     C_R   0.296892 0.515249 0.948266 -0.241769
C19   C     C_R   0.513327 0.703232 0.052714 -0.239576
C20   C     C_R   0.703236 0.486799 0.052808 -0.239688
C21   C     C_R   0.513327 0.296768 0.947286 -0.239576
C22   C     C_R   0.703236 0.513201 0.947192 -0.239688
C23   C     C_R   0.486627 0.703220 0.947241 -0.241894
C24   C     C_R   0.296892 0.484751 0.051734 -0.241769
C25   C     C_R   0.986673 0.796768 0.552714 -0.239576
C26   C     C_R   0.796764 0.013201 0.552808 -0.239687
C27   C     C_R   0.013373 0.203220 0.552758 -0.241893
C28   C     C_R   0.203108 0.015249 0.551734 -0.241768
C29   C     C_R   0.013373 0.796780 0.447242 -0.241893
C30   C     C_R   0.203108 0.984751 0.448266 -0.241769
C31   C     C_R   0.986673 0.203232 0.447286 -0.239576
C32   C     C_R   0.796764 0.986799 0.447192 -0.239688
C33   C     C_R   0.486507 0.342463 0.052925 0.603320
C34   C     C_R   0.342574 0.515342 0.948092 0.595879
C35   C     C_R   0.513445 0.657550 0.052905 0.590387
C36   C     C_R   0.657555 0.486684 0.052991 0.595620
C37   C     C_R   0.513445 0.342450 0.947095 0.590388
C38   C     C_R   0.657555 0.513316 0.947009 0.595620
C39   C     C_R   0.486507 0.657537 0.947075 0.603321
C40   C     C_R   0.342574 0.484658 0.051908 0.595879
C41   C     C_R   0.986555 0.842450 0.552905 0.590387
C42   C     C_R   0.842445 0.013316 0.552991 0.595620
C43   C     C_R   0.013493 0.157537 0.552925 0.603321
C44   C     C_R   0.157426 0.015342 0.551908 0.595878
C45   C     C_R   0.013493 0.842463 0.447075 0.603321
C46   C     C_R   0.157426 0.984658 0.448092 0.595878
C47   C     C_R   0.986555 0.157550 0.447095 0.590387
C48   C     C_R   0.842445 0.986684 0.447009 0.595620
C49   C     C_R   0.499981 0.365684 0.000007 -0.334286
C50   C     C_R   0.365762 0.500000 0.000000 -0.337490
C51   C     C_R   0.499981 0.634316 0.999993 -0.334285
C52   C     C_R   0.634324 0.500000 0.000000 -0.329725
C53   C     C_R   0.000019 0.865684 0.499993 -0.334285
C54   C     C_R   0.865676 1.000000 0.500000 -0.329724
C55   C     C_R   0.000019 0.134316 0.500006 -0.334286
C56   C     C_R   0.134238 1.000000 0.500000 -0.337485
C57   C     C_R   0.499982 0.273862 0.000030 -0.015667
C58   C     C_R   0.273988 0.500000 0.000000 -0.015779
C59   C     C_R   0.499982 0.726138 0.999970 -0.015666
C60   C     C_R   0.726147 0.500000 0.000000 -0.015348
C61   C     C_R   0.000018 0.773862 0.499970 -0.015667
C62   C     C_R   0.773853 1.000000 0.500000 -0.015348
C63   C     C_R   0.000018 0.226138 0.500029 -0.015667
C64   C     C_R   0.226012 1.000000 0.500000 -0.015780
C65   C     C_R   0.586282 0.500000 0.000000 0.931023
C66   C     C_R   0.499994 0.413720 0.000001 0.931465
C67   C     C_R   0.413747 0.500000 0.000000 0.933021
C68   C     C_R   0.499994 0.586280 0.999999 0.931465
C69   C     C_R   0.086253 1.000000 0.500000 0.933023
C70   C     C_R   0.000006 0.913720 0.499999 0.931466
C71   C     C_R   0.913718 0.000000 0.500000 0.931024
C72   C     C_R   0.000006 0.086280 0.500001 0.931465
C73   C     C_R   0.500003 0.999982 0.119938 0.834771
C74   C     C_R   0.000015 0.500002 0.119950 0.840053
C75   C     C_R   0.500003 0.000018 0.880062 0.834772
C76   C     C_R   0.000015 0.499998 0.880050 0.840053
C77   C     C_R   0.999997 0.500018 0.619938 0.834771
C78   C     C_R   0.499985 0.999998 0.619950 0.840054
C79   C     C_R   0.999997 0.499982 0.380062 0.834772
C80   C     C_R   0.499985 0.000002 0.380050 0.840054
C81   C     C_R   0.551796 0.936413 0.187012 -0.117027
C82   C     C_R   0.936607 0.447976 0.187031 -0.116962
C83   C     C_R   0.448326 0.063648 0.186951 -0.120477
C84   C     C_R   0.063328 0.552137 0.187091 -0.124119
C85   C     C_R   0.448326 0.936351 0.813049 -0.120477
C86   C     C_R   0.063328 0.447863 0.812909 -0.124119
C87   C     C_R   0.551796 0.063587 0.812988 -0.117027
C88   C     C_R   0.936607 0.552024 0.812969 -0.116962
C89   C     C_R   0.051674 0.436351 0.686951 -0.120476
C90   C     C_R   0.436672 0.947863 0.687091 -0.124119
C91   C     C_R   0.948203 0.563587 0.687012 -0.117028
C92   C     C_R   0.563393 0.052024 0.687031 -0.116961
C93   C     C_R   0.948203 0.436413 0.312988 -0.117027
C94   C     C_R   0.563393 0.947976 0.312969 -0.116961
C95   C     C_R   0.051674 0.563648 0.313049 -0.120476
C96   C     C_R   0.436672 0.052137 0.312909 -0.124118
C97   C     C_R   0.582330 0.910650 0.218690 -0.114632
C98   C     C_R   0.910962 0.417337 0.218703 -0.113196
C99   C     C_R   0.417837 0.089478 0.218595 -0.099219
C100  C     C_R   0.088898 0.582822 0.218800 -0.136590
C101  C     C_R   0.417837 0.910522 0.781405 -0.099219
C102  C     C_R   0.088898 0.417178 0.781200 -0.136590
C103  C     C_R   0.582330 0.089349 0.781310 -0.114632
C104  C     C_R   0.910962 0.582663 0.781297 -0.113196
C105  C     C_R   0.082163 0.410522 0.718595 -0.099219
C106  C     C_R   0.411102 0.917178 0.718801 -0.136590
C107  C     C_R   0.917670 0.589349 0.718690 -0.114632
C108  C     C_R   0.589038 0.082663 0.718703 -0.113196
C109  C     C_R   0.917670 0.410650 0.281310 -0.114632
C110  C     C_R   0.589038 0.917337 0.281297 -0.113196
C111  C     C_R   0.082163 0.589478 0.281405 -0.099219
C112  C     C_R   0.411102 0.082822 0.281199 -0.136590
C113  C     C_R   0.530253 0.972664 0.282157 0.060040
C114  C     C_R   0.972777 0.469637 0.282173 0.062990
C115  C     C_R   0.469782 0.027384 0.282130 0.079324
C116  C     C_R   0.027166 0.530393 0.282200 0.058684
C117  C     C_R   0.469782 0.972616 0.717870 0.079325
C118  C     C_R   0.027166 0.469607 0.717800 0.058684
C119  C     C_R   0.530253 0.027336 0.717843 0.060040
C120  C     C_R   0.972777 0.530363 0.717827 0.062990
C121  C     C_R   0.030218 0.472616 0.782130 0.079324
C122  C     C_R   0.472834 0.969607 0.782200 0.058684
C123  C     C_R   0.969747 0.527336 0.782157 0.060040
C124  C     C_R   0.527223 0.030363 0.782173 0.062990
C125  C     C_R   0.969747 0.472664 0.217843 0.060040
C126  C     C_R   0.527223 0.969637 0.217827 0.062990
C127  C     C_R   0.030218 0.527384 0.217869 0.079324
C128  C     C_R   0.472834 0.030393 0.217800 0.058684
C129  C     C_R   0.499999 0.000010 0.313859 -0.174519
C130  C     C_R   0.999986 0.499996 0.313886 -0.176191
C131  C     C_R   0.499999 0.999990 0.686141 -0.174519
C132  C     C_R   0.999986 0.500003 0.686114 -0.176191
C133  C     C_R   0.000001 0.499990 0.813859 -0.174519
C134  C     C_R   0.500014 0.000003 0.813886 -0.176191
C135  C     C_R   0.000001 0.500010 0.186141 -0.174519
C136  C     C_R   0.500014 0.999996 0.186114 -0.176191
C137  C     C_R   0.536491 0.203001 0.977054 -0.234304
C138  C     C_R   0.203150 0.462593 0.019879 -0.240199
C139  C     C_R   0.463497 0.797009 0.976974 -0.234496
C140  C     C_R   0.797010 0.536455 0.976880 -0.234707
C141  C     C_R   0.463498 0.202991 0.023026 -0.234496
C142  C     C_R   0.797010 0.463545 0.023120 -0.234707
C143  C     C_R   0.536491 0.796999 0.022946 -0.234305
C144  C     C_R   0.203150 0.537407 0.980121 -0.240199
C145  C     C_R   0.036503 0.702991 0.476974 -0.234496
C146  C     C_R   0.702990 0.963545 0.476880 -0.234707
C147  C     C_R   0.963509 0.296999 0.477054 -0.234305
C148  C     C_R   0.296850 0.962594 0.480119 -0.240200
C149  C     C_R   0.963509 0.703001 0.522946 -0.234304
C150  C     C_R   0.296850 0.037406 0.519881 -0.240200
C151  C     C_R   0.036503 0.297009 0.523026 -0.234496
C152  C     C_R   0.702990 0.036455 0.523120 -0.234707
C153  C     C_R   0.536605 0.157321 0.976899 0.566284
C154  C     C_R   0.157470 0.462463 0.020011 0.578213
C155  C     C_R   0.463390 0.842689 0.976839 0.566214
C156  C     C_R   0.842689 0.536568 0.976741 0.565937
C157  C     C_R   0.463390 0.157311 0.023161 0.566215
C158  C     C_R   0.842689 0.463432 0.023259 0.565937
C159  C     C_R   0.536605 0.842679 0.023101 0.566283
C160  C     C_R   0.157470 0.537537 0.979989 0.578213
C161  C     C_R   0.036610 0.657311 0.476840 0.566214
C162  C     C_R   0.657311 0.963432 0.476741 0.565936
C163  C     C_R   0.963394 0.342679 0.476899 0.566283
C164  C     C_R   0.342530 0.962463 0.479987 0.578212
C165  C     C_R   0.963394 0.657321 0.523101 0.566283
C166  C     C_R   0.342530 0.037537 0.520012 0.578212
C167  C     C_R   0.036610 0.342689 0.523160 0.566214
C168  C     C_R   0.657311 0.036568 0.523259 0.565936
C169  C     C_R   0.499998 0.134166 0.000021 -0.322835
C170  C     C_R   0.134268 0.500000 0.000000 -0.347988
C171  C     C_R   0.499998 0.865834 0.999979 -0.322835
C172  C     C_R   0.865837 0.500000 0.000000 -0.322181
C173  C     C_R   0.000002 0.634166 0.499979 -0.322835
C174  C     C_R   0.634163 1.000000 0.500000 -0.322180
C175  C     C_R   0.000002 0.365834 0.500021 -0.322835
C176  C     C_R   0.365732 0.000000 0.500000 -0.347988
H1    H     H_    0.398923 0.114244 0.194234 0.181315
H2    H     H_    0.113532 0.601940 0.194496 0.161288
H3    H     H_    0.601301 0.885916 0.194353 0.183162
H4    H     H_    0.886294 0.398283 0.194365 0.183126
H5    H     H_    0.601301 0.114084 0.805647 0.183162
H6    H     H_    0.886294 0.601717 0.805635 0.183126
H7    H     H_    0.398923 0.885756 0.805766 0.181315
H8    H     H_    0.113532 0.398060 0.805504 0.161288
H9    H     H_    0.898699 0.614084 0.694353 0.183162
H10   H     H_    0.613706 0.101717 0.694365 0.183126
H11   H     H_    0.101077 0.385756 0.694234 0.181314
H12   H     H_    0.386468 0.898059 0.694496 0.161287
H13   H     H_    0.101077 0.614244 0.305766 0.181314
H14   H     H_    0.386468 0.101940 0.305504 0.161287
H15   H     H_    0.898699 0.385916 0.305647 0.183162
H16   H     H_    0.613706 0.898283 0.305635 0.183126
H17   H     H_    0.547641 0.929621 0.138465 0.186073
H18   H     H_    0.929768 0.452132 0.138498 0.185424
H19   H     H_    0.452511 0.070425 0.138404 0.185359
H20   H     H_    0.070198 0.548012 0.138553 0.155387
H21   H     H_    0.452511 0.929575 0.861596 0.185359
H22   H     H_    0.070198 0.451988 0.861447 0.155387
H23   H     H_    0.547641 0.070379 0.861535 0.186073
H24   H     H_    0.929768 0.547868 0.861502 0.185424
H25   H     H_    0.047489 0.429575 0.638404 0.185359
H26   H     H_    0.429802 0.951988 0.638553 0.155387
H27   H     H_    0.952359 0.570379 0.638465 0.186073
H28   H     H_    0.570232 0.047867 0.638498 0.185423
H29   H     H_    0.952359 0.429621 0.361535 0.186073
H30   H     H_    0.570232 0.952132 0.361502 0.185423
H31   H     H_    0.047489 0.570425 0.361596 0.185359
H32   H     H_    0.429802 0.048012 0.361447 0.155387
H33   H     H_    0.565026 0.220517 0.959617 0.189256
H34   H     H_    0.220681 0.433369 0.034896 0.192496
H35   H     H_    0.434958 0.779501 0.959534 0.189669
H36   H     H_    0.779497 0.564959 0.959333 0.189246
H37   H     H_    0.434958 0.220499 0.040466 0.189668
H38   H     H_    0.779497 0.435041 0.040667 0.189246
H39   H     H_    0.565027 0.779483 0.040382 0.189256
H40   H     H_    0.220681 0.566631 0.965105 0.192496
H41   H     H_    0.065042 0.720499 0.459534 0.189669
H42   H     H_    0.720503 0.935041 0.459333 0.189246
H43   H     H_    0.934973 0.279483 0.459618 0.189256
H44   H     H_    0.279319 0.933370 0.465101 0.192495
H45   H     H_    0.934973 0.720517 0.540382 0.189256
H46   H     H_    0.279319 0.066630 0.534899 0.192495
H47   H     H_    0.065042 0.279500 0.540465 0.189669
H48   H     H_    0.720503 0.064959 0.540667 0.189246
H49   H     H_    0.476583 0.279264 0.093974 0.190710
H50   H     H_    0.279362 0.526799 0.907840 0.192659
H51   H     H_    0.523370 0.720758 0.093922 0.190270
H52   H     H_    0.720759 0.476870 0.094073 0.190106
H53   H     H_    0.523370 0.279241 0.906078 0.190271
H54   H     H_    0.720759 0.523130 0.905927 0.190106
H55   H     H_    0.476582 0.720736 0.906026 0.190710
H56   H     H_    0.279362 0.473201 0.092160 0.192659
H57   H     H_    0.976630 0.779241 0.593922 0.190270
H58   H     H_    0.779241 0.023130 0.594073 0.190106
H59   H     H_    0.023418 0.220736 0.593973 0.190710
H60   H     H_    0.220637 0.026800 0.592159 0.192658
H61   H     H_    0.023418 0.779264 0.406027 0.190710
H62   H     H_    0.220637 0.973200 0.407841 0.192658
H63   H     H_    0.976630 0.220758 0.406078 0.190271
H64   H     H_    0.779241 0.976870 0.405927 0.190106
O1    O     O_R   0.463050 0.065470 0.999990 -0.570634
O2    O     O_R   0.065470 0.536950 0.999990 -0.568817
O3    O     O_R   0.536950 0.934530 0.999990 -0.571239
O4    O     O_R   0.934530 0.463050 0.999990 -0.572063
O5    O     O_R   0.536950 0.065470 0.000010 -0.571239
O6    O     O_R   0.934530 0.536950 0.000010 -0.572064
O7    O     O_R   0.463050 0.934530 0.000010 -0.570633
O8    O     O_R   0.065470 0.463050 0.000010 -0.568816
O9    O     O_R   0.963050 0.565470 0.499990 -0.571239
O10   O     O_R   0.565470 0.036950 0.499990 -0.572064
O11   O     O_R   0.036950 0.434530 0.499990 -0.570633
O12   O     O_R   0.434530 0.963050 0.499990 -0.568817
O13   O     O_R   0.036950 0.565470 0.500010 -0.570633
O14   O     O_R   0.434530 0.036950 0.500010 -0.568818
O15   O     O_R   0.963050 0.434530 0.500010 -0.571239
O16   O     O_R   0.565470 0.963050 0.500010 -0.572063
O17   O     O_R   0.463050 0.999990 0.091600 -0.618282
O18   O     O_R   0.999990 0.536950 0.091600 -0.628782
O19   O     O_R   0.536950 0.000010 0.091600 -0.619996
O20   O     O_R   0.000010 0.463050 0.091600 -0.607517
O21   O     O_R   0.536950 0.999990 0.908400 -0.619996
O22   O     O_R   0.000010 0.536950 0.908400 -0.607517
O23   O     O_R   0.463050 0.000010 0.908400 -0.618282
O24   O     O_R   0.999990 0.463050 0.908400 -0.628782
O25   O     O_R   0.963050 0.499990 0.591600 -0.619996
O26   O     O_R   0.499990 0.036950 0.591600 -0.607516
O27   O     O_R   0.036950 0.500010 0.591600 -0.618282
O28   O     O_R   0.500010 0.963050 0.591600 -0.628782
O29   O     O_R   0.036950 0.499990 0.408400 -0.618282
O30   O     O_R   0.500010 0.036950 0.408400 -0.628782
O31   O     O_R   0.963050 0.500010 0.408400 -0.619996
O32   O     O_R   0.499990 0.963050 0.408400 -0.607516
O33   O     O_R   0.565470 0.500020 0.051710 -0.563082
O34   O     O_R   0.500020 0.434530 0.051710 -0.553090
O35   O     O_R   0.434530 0.499980 0.051710 -0.566134
O36   O     O_R   0.499980 0.565470 0.051710 -0.574443
O37   O     O_R   0.434530 0.500020 0.948290 -0.566133
O38   O     O_R   0.499980 0.434530 0.948290 -0.574443
O39   O     O_R   0.565470 0.499980 0.948290 -0.563082
O40   O     O_R   0.500020 0.565470 0.948290 -0.553090
O41   O     O_R   0.065470 0.000020 0.551710 -0.566134
O42   O     O_R   0.000020 0.934530 0.551710 -0.574443
O43   O     O_R   0.934530 0.999980 0.551710 -0.563082
O44   O     O_R   0.999980 0.065470 0.551710 -0.553090
O45   O     O_R   0.934530 0.000020 0.448290 -0.563082
O46   O     O_R   0.999980 0.934530 0.448290 -0.553090
O47   O     O_R   0.065470 0.999980 0.448290 -0.566134
O48   O     O_R   0.000020 0.065470 0.448290 -0.574443
Zn1   Zn    Zn3+2 0.450650 0.000000 0.000000 1.069083
Zn2   Zn    Zn3+2 0.000000 0.549350 0.000000 1.071230
Zn3   Zn    Zn3+2 0.549350 0.000000 0.000000 1.066196
Zn4   Zn    Zn3+2 0.000000 0.450650 0.000000 1.071230
Zn5   Zn    Zn3+2 0.950650 0.500000 0.500000 1.066197
Zn6   Zn    Zn3+2 0.500000 0.049350 0.500000 1.071229
Zn7   Zn    Zn3+2 0.049350 0.500000 0.500000 1.069082
Zn8   Zn    Zn3+2 0.500000 0.950650 0.500000 1.071229
Zn9   Zn    Zn3+2 0.500000 0.500000 0.069060 1.183938
Zn10  Zn    Zn3+2 0.500000 0.500000 0.930940 1.183938
Zn11  Zn    Zn3+2 0.000000 1.000000 0.569060 1.183938
Zn12  Zn    Zn3+2 0.000000 1.000000 0.430940 1.183938
F1    F     F_    0.572147 0.135983 0.953205 -0.649933
F2    F     F_    0.136214 0.425906 0.040618 -0.622625
F3    F     F_    0.427850 0.864037 0.953157 -0.649877
F4    F     F_    0.864034 0.572066 0.952931 -0.650037
F5    F     F_    0.427850 0.135963 0.046844 -0.649878
F6    F     F_    0.864034 0.427934 0.047069 -0.650037
F7    F     F_    0.572147 0.864017 0.046795 -0.649932
F8    F     F_    0.136214 0.574094 0.959382 -0.622625
F9    F     F_    0.072150 0.635963 0.453157 -0.649877
F10   F     F_    0.635965 0.927934 0.452931 -0.650037
F11   F     F_    0.927853 0.364017 0.453205 -0.649933
F12   F     F_    0.363786 0.925907 0.459378 -0.622624
F13   F     F_    0.927853 0.635983 0.546795 -0.649933
F14   F     F_    0.363786 0.074093 0.540622 -0.622625
F15   F     F_    0.072150 0.364037 0.546843 -0.649877
F16   F     F_    0.635965 0.072066 0.547069 -0.650037
F17   F     F_    0.472590 0.363691 0.104508 -0.598186
F18   F     F_    0.363868 0.531112 0.897614 -0.601233
F19   F     F_    0.527351 0.636337 0.104504 -0.613115
F20   F     F_    0.636342 0.472931 0.104670 -0.610557
F21   F     F_    0.527351 0.363663 0.895496 -0.613116
F22   F     F_    0.636342 0.527069 0.895330 -0.610557
F23   F     F_    0.472590 0.636309 0.895492 -0.598187
F24   F     F_    0.363868 0.468888 0.102386 -0.601233
F25   F     F_    0.972649 0.863663 0.604504 -0.613116
F26   F     F_    0.863658 0.027069 0.604670 -0.610557
F27   F     F_    0.027410 0.136309 0.604508 -0.598187
F28   F     F_    0.136132 0.031112 0.602384 -0.601235
F29   F     F_    0.027410 0.863691 0.395492 -0.598187
F30   F     F_    0.136132 0.968887 0.397616 -0.601235
F31   F     F_    0.972649 0.136337 0.395496 -0.613116
F32   F     F_    0.863658 0.972931 0.395330 -0.610557

loop_
_geom_bond_atom_site_label_1
_geom_bond_atom_site_label_2
_ccdc_geom_bond_type
C14   C146  A    
C81   C126  A    
O40   Zn10  S    
C83   C128  A    
C15   C151  A    
O36   Zn9   S    
O39   Zn10  S    
C78   O26   A    
C143  H39   S    
C92   C119  A    
C22   C60   A    
C87   C124  A    
C73   O17   A    
C96   H32   S    
C22   C38   A    
C154  C170  A    
O24   Zn4   S    
C157  C169  A    
C18   C58   A    
C165  F13   S    
C72   O44   A    
C144  C160  A    
C138  C154  A    
C47   F31   S    
C98   C109  A    
C157  F5    S    
C114  C130  A    
C142  C158  A    
C89   C105  A    
O3    Zn3   S    
C75   O23   A    
O47   Zn12  S    
O8    Zn4   S    
C84   C100  A    
C90   C117  A    
C91   C107  A    
C25   C41   A    
C160  F8    S    
C6    C174  S    
C70   O42   A    
C79   C130  S    
C28   C44   A    
C79   O31   A    
C29   C45   A    
C80   O32   A    
C82   C125  A    
C22   H54   S    
C86   C121  A    
O48   Zn12  S    
C137  C153  A    
C159  C171  A    
C86   H22   S    
C87   C103  A    
C141  C157  A    
C111  H13   S    
C35   C51   A    
C98   H4    S    
C45   F29   S    
C108  H10   S    
C76   O22   A    
C103  H5    S    
C76   C133  S    
C73   O19   A    
C68   O40   A    
C74   O20   A    
O44   Zn11  S    
O11   Zn7   S    
C126  C136  A    
C1    O5    A    
C158  C172  A    
O38   Zn10  S    
C145  C161  A    
C151  C167  A    
C156  C172  A    
C162  F10   S    
C93   C114  A    
C83   H19   S    
O29   Zn7   S    
C81   H17   S    
C146  H42   S    
C77   O27   A    
C116  C130  A    
C100  C111  A    
C155  F3    S    
C156  F4    S    
C19   C35   A    
C10   C138  A    
C11   C143  A    
C118  C121  A    
C104  C107  A    
C23   H55   S    
C52   C65   S    
O35   Zn9   S    
C90   H26   S    
C39   C51   A    
C75   O21   A    
C94   H30   S    
C13   C145  A    
C163  C175  A    
C75   C134  S    
O17   Zn1   S    
O5    Zn3   S    
C168  C174  A    
C79   O29   A    
C10   C58   S    
C150  C166  A    
C5    O13   A    
C19   H51   S    
C122  C134  A    
C2    O8    A    
C17   H49   S    
C92   C108  A    
C12   C142  A    
C119  C131  A    
C168  F16   S    
C50   C67   S    
C36   C52   A    
C26   H58   S    
C76   O24   A    
C45   C53   A    
O23   Zn1   S    
C9    C137  A    
C30   H62   S    
C88   C104  A    
C94   C113  A    
O42   Zn11  S    
C74   O18   A    
C29   C61   A    
C49   C66   S    
C82   C98   A    
C65   O33   A    
C148  C164  A    
C31   C63   A    
C149  C165  A    
C40   F24   S    
O34   Zn9   S    
C144  H40   S    
C113  C126  A    
C19   C59   A    
C166  F14   S    
O1    Zn1   S    
C138  H34   S    
C115  C128  A    
C7    O11   A    
O28   Zn8   S    
C117  C122  A    
O43   Zn11  S    
O30   Zn6   S    
C139  C155  A    
C95   C116  A    
O25   Zn5   S    
C158  F6    S    
C21   C37   A    
C10   C144  A    
O27   Zn7   S    
C2    O2    A    
C41   C53   A    
C28   H60   S    
C43   C55   A    
O45   Zn12  S    
C20   C60   A    
C86   C102  A    
C26   C42   A    
C167  C175  A    
C101  C106  A    
C8    O12   A    
C80   C129  S    
C4    C172  S    
C5    C173  S    
C30   C46   A    
C38   F22   S    
C101  H7    S    
C8    C176  S    
C164  F12   S    
O9    Zn5   S    
C20   H52   S    
C124  C134  A    
C71   O43   A    
C2    C170  S    
C147  C163  A    
C125  C135  A    
C84   H20   S    
C151  H47   S    
C117  C131  A    
O33   Zn9   S    
C118  C132  A    
C112  H14   S    
O37   Zn10  S    
C153  F1    S    
C56   C69   S    
C14   C152  A    
C31   C47   A    
C4    O4    A    
C93   C109  A    
C104  H6    S    
C30   C64   A    
C150  H46   S    
C87   H23   S    
O20   Zn4   S    
C146  C162  A    
C17   C33   A    
C123  C133  A    
C127  C135  A    
C128  C136  A    
O2    Zn2   S    
C33   C49   A    
C46   F30   S    
C102  C105  A    
C11   C139  A    
O31   Zn5   S    
C43   F27   S    
C39   F23   S    
O6    Zn2   S    
C54   C71   S    
C116  C127  A    
C12   C140  A    
C67   O37   A    
C92   H28   S    
C120  C123  A    
O18   Zn2   S    
C100  H2    S    
C83   C99   A    
C32   C48   A    
C3    O7    A    
C11   C59   S    
C53   C70   S    
C152  C168  A    
C44   F28   S    
C95   H31   S    
C5    O9    A    
C142  H38   S    
C33   F17   S    
O16   Zn8   S    
C6    O10   A    
C35   F19   S    
C36   F20   S    
C94   C110  A    
C137  H33   S    
C23   C59   A    
C37   C49   A    
C44   C56   A    
C73   C136  S    
C21   H53   S    
C74   C135  S    
O7    Zn1   S    
C6    O16   A    
C85   C122  A    
C25   C61   A    
C148  H44   S    
C4    O6    A    
C27   C63   A    
O32   Zn8   S    
C28   C64   A    
C85   H21   S    
C69   O47   A    
C152  H48   S    
C66   O34   A    
C163  F11   S    
C42   F26   S    
C140  H36   S    
C31   H63   S    
C7    O15   A    
C24   H56   S    
C143  C159  A    
O26   Zn6   S    
C167  F15   S    
C88   H24   S    
C42   C54   A    
C15   C147  A    
C40   C50   A    
O21   Zn3   S    
C77   O25   A    
C164  C176  A    
C67   O35   A    
C82   H18   S    
C90   C106  A    
C13   C149  A    
C20   C36   A    
C27   C43   A    
C145  H41   S    
C24   C58   A    
C153  C169  A    
C91   H27   S    
C17   C57   A    
C14   C62   S    
C89   H25   S    
O10   Zn6   S    
C72   O48   A    
O15   Zn5   S    
C93   H29   S    
O41   Zn11  S    
C119  C124  A    
C48   C54   A    
C96   C112  A    
C113  C129  A    
O13   Zn7   S    
C99   H1    S    
C97   H3    S    
C38   C52   A    
C154  F2    S    
C165  C173  A    
C161  C173  A    
C41   F25   S    
C8    O14   A    
C18   H50   S    
O4    Zn4   S    
C69   O41   A    
C70   O46   A    
C7    C175  S    
C65   O39   A    
C96   C115  A    
C103  C108  A    
C9    C57   S    
C55   C72   S    
C27   H59   S    
C84   C127  A    
C25   H57   S    
O46   Zn12  S    
C149  H45   S    
C88   C123  A    
C29   H61   S    
C34   C50   A    
C141  H37   S    
C114  C125  A    
C9    C141  A    
C32   H64   S    
C139  H35   S    
O22   Zn2   S    
C77   C132  S    
C78   O28   A    
C78   C131  S    
C21   C57   A    
C48   F32   S    
C68   O36   A    
O19   Zn3   S    
C3    O3    A    
C18   C34   A    
C1    O1    A    
C140  C156  A    
C161  F9    S    
C71   O45   A    
C46   C56   A    
C34   F18   S    
C85   C101  A    
C47   C55   A    
C115  C129  A    
C15   C63   S    
C120  C132  A    
O14   Zn6   S    
C37   F21   S    
C16   C150  A    
C162  C174  A    
C16   C64   S    
C107  H9    S    
C166  C176  A    
C16   C148  A    
C102  H8    S    
C105  H11   S    
C26   C62   A    
C106  H12   S    
C95   C111  A    
C97   C110  A    
C3    C171  S    
C81   C97   A    
C109  H15   S    
C23   C39   A    
C99   C112  A    
C110  H16   S    
C24   C40   A    
C66   O38   A    
C80   O30   A    
C51   C68   S    
C147  H43   S    
C12   C60   S    
C155  C171  A    
C13   C61   S    
C89   C118  A    
C159  F7    S    
C160  C170  A    
C91   C120  A    
C1    C169  S    
C32   C62   A    
C121  C133  A    
O12   Zn8   S    
