data_mof_unit_51235.cif
_audit_creation_date              2012-12-10T19:33:32-0500
_audit_creation_method            fapswitch 2.2
_symmetry_space_group_name_H-M    P1
_symmetry_Int_Tables_number       1
_space_group_crystal_system       triclinic
_cell_length_a                    10.987273
_cell_length_b                    15.838186
_cell_length_c                    17.168381
_cell_angle_alpha                 95.965436
_cell_angle_beta                  92.347926
_cell_angle_gamma                 91.731248
_cell_volume                      2967.1557233

loop_
_atom_site_label
_atom_site_type_symbol
_atom_type_description
_atom_site_fract_x
_atom_site_fract_y
_atom_site_fract_z
_atom_type_partial_charge
C1    C     C_R   0.500799 0.490061 0.349064 0.808204
C2    C     C_R   0.590695 0.538090 0.229210 0.017243
C3    C     C_R   0.583461 0.542571 0.147750 0.117593
C4    C     C_R   0.488105 0.497119 0.100829 0.185133
C5    C     C_R   0.403493 0.446415 0.135985 0.129532
C6    C     C_R   0.411392 0.440548 0.216468 0.113662
C7    C     C_R   0.505595 0.434630 0.855236 0.042081
C8    C     C_R   0.467737 0.436414 0.775346 0.017015
C9    C     C_R   0.533529 0.512224 0.901771 0.241953
C10   C     C_R   0.489680 0.512736 0.739185 -0.169419
C11   C     C_R   0.509431 0.590363 0.788288 0.048672
C12   C     C_R   0.265897 0.500701 0.500629 0.868099
C13   C     C_R   0.527686 0.589957 0.869510 0.073216
C14   C     C_R   0.435700 0.745239 0.457938 0.012268
C15   C     C_R   0.422791 0.833501 0.457706 -0.364133
C16   C     C_R   0.488905 0.889797 0.513431 0.332186
C17   C     C_R   0.569529 0.855893 0.566738 0.072120
C18   C     C_R   0.585456 0.766753 0.562075 0.289016
C19   C     C_R   0.552656 0.149771 0.522178 0.043267
C20   C     C_R   0.565230 0.240264 0.530769 0.188538
C21   C     C_R   0.456678 0.107558 0.474126 0.295484
C22   C     C_R   0.394388 0.247628 0.442395 -0.014198
C23   C     C_R   0.495465 0.509948 0.651841 0.796821
C24   C     C_R   0.377021 0.157698 0.433132 -0.083056
C25   C     C_R   0.734104 0.498910 0.494117 0.824815
C26   C     C_2   0.939604 0.562901 0.495542 0.126211
C27   C     C_2   0.861832 0.495722 0.472286 -0.105440
C28   C     C_2   0.068467 0.560743 0.477183 0.164005
C29   C     C_2   0.136136 0.502877 0.508309 -0.357537
C30   C     C_R   0.503632 0.487119 0.263613 -0.206452
Cu1   Cu    Cu3+1 0.494040 0.415220 0.496180 0.903024
Cu2   Cu    Cu3+1 0.505960 0.584780 0.503820 0.928965
H1    H     H_    0.335086 0.286799 0.411158 0.149293
H2    H     H_    0.358892 0.857054 0.416127 0.168806
H3    H     H_    0.380225 0.702725 0.416604 0.161809
H4    H     H_    0.094845 0.456716 0.542727 0.110324
N1    N     N_2   0.468187 0.502922 0.019311 -0.260307
N2    N     N_2   0.562026 0.512449 0.982637 -0.268577
N3    N     N_R   0.514910 0.712130 0.509560 -0.193071
N4    N     N_2   0.478060 0.980396 0.521075 -0.172664
N5    N     N_2   0.445242 0.015457 0.461892 -0.238167
N6    N     N_R   0.485090 0.287850 0.490450 -0.205455
O1    O     O_R   0.494430 0.420530 0.382500 -0.587148
O2    O     O_R   0.504490 0.563720 0.388950 -0.590341
O3    O     O_R   0.316910 0.428420 0.496780 -0.600991
O4    O     O_R   0.326970 0.571610 0.503230 -0.549100
O5    O     O_R   0.495510 0.436280 0.611050 -0.596143
O6    O     O_R   0.505570 0.579470 0.617500 -0.596012
O7    O     O_R   0.673030 0.428390 0.496770 -0.605048
O8    O     O_R   0.683090 0.571580 0.503220 -0.572626
N7    N     N_3   0.901513 0.634700 0.545843 -0.601177
H5    H     H_    0.970278 0.682338 0.552714 0.228218
H6    H     H_    0.890953 0.614536 0.601353 0.198111
N8    N     N_3   0.671350 0.596215 0.115276 -0.607248
H7    H     H_    0.626008 0.641044 0.085730 0.236904
H8    H     H_    0.726418 0.559450 0.077973 0.241117
C31   C     C_3   0.546516 0.673379 0.921495 -0.343155
C32   C     C_3   0.681974 0.700449 0.929787 -0.349125
C33   C     C_3   0.701836 0.785563 0.979809 -0.855571
H9    H     H_    0.653658 0.836086 0.951933 0.256502
H10   H     H_    0.667714 0.781642 0.039363 0.249454
H11   H     H_    0.800715 0.802900 0.985389 0.245343
H12   H     H_    0.734398 0.651512 0.957215 0.220304
H13   H     H_    0.717713 0.706390 0.870874 0.229517
H14   H     H_    0.493648 0.724120 0.897223 0.217272
H15   H     H_    0.509077 0.667953 0.979824 0.193873
C34   C     C_3   0.692878 0.588209 0.278309 -0.335478
C35   C     C_3   0.664396 0.682701 0.293741 -0.296346
C36   C     C_3   0.755038 0.729205 0.354418 -0.835236
H16   H     H_    0.749606 0.702062 0.411326 0.285521
H17   H     H_    0.849345 0.723922 0.333890 0.241946
H18   H     H_    0.733180 0.797416 0.363592 0.241132
H19   H     H_    0.668462 0.713228 0.238480 0.222692
H20   H     H_    0.571026 0.689873 0.315365 0.228487
H21   H     H_    0.710086 0.561815 0.334864 0.190026
H22   H     H_    0.780102 0.581723 0.247971 0.194000
C37   C     C_3   0.664510 0.281650 0.588426 -0.347594
C38   C     C_3   0.794987 0.271045 0.559299 -0.352419
C39   C     C_3   0.881300 0.237864 0.620380 -0.894194
H23   H     H_    0.897410 0.286706 0.671365 0.255599
H24   H     H_    0.843942 0.178994 0.641459 0.258246
H25   H     H_    0.969481 0.223096 0.593745 0.249669
H26   H     H_    0.795700 0.229198 0.503253 0.211607
H27   H     H_    0.833455 0.333621 0.547446 0.218952
H28   H     H_    0.652802 0.349344 0.603472 0.231351
H29   H     H_    0.654801 0.256044 0.645706 0.152791
N9    N     N_3   0.638196 0.099428 0.560902 -0.542823
H30   H     H_    0.724128 0.105235 0.538124 0.240239
H31   H     H_    0.640453 0.115687 0.621461 0.222714
N10   N     N_3   0.635900 0.914015 0.624776 -0.570754
H32   H     H_    0.572422 0.942565 0.661937 0.222355
H33   H     H_    0.695198 0.883306 0.660569 0.232966
N11   N     N_3   0.677443 0.736227 0.612416 -0.636591
H34   H     H_    0.761733 0.756134 0.593496 0.221824
H35   H     H_    0.676173 0.670721 0.608239 0.280021
C40   C     C_3   0.274361 0.112797 0.380975 -0.376330
C41   C     C_3   0.186114 0.170816 0.341864 -0.382947
C42   C     C_3   0.084977 0.118831 0.293493 -0.828619
H36   H     H_    0.124346 0.074980 0.247150 0.253737
H37   H     H_    0.030349 0.081422 0.331738 0.250901
H38   H     H_    0.023731 0.162057 0.264978 0.243816
H39   H     H_    0.143573 0.214040 0.387422 0.218241
H40   H     H_    0.236374 0.209224 0.302217 0.224591
H41   H     H_    0.315613 0.070190 0.334379 0.209808
H42   H     H_    0.220560 0.072417 0.417296 0.213223
C43   C     C_3   0.899008 0.417607 0.419106 -0.450942
C44   C     C_3   0.922570 0.437345 0.335224 -0.346639
C45   C     C_3   0.985132 0.364194 0.289744 -0.826834
H43   H     H_    0.074554 0.353167 0.318835 0.252600
H44   H     H_    0.926954 0.305239 0.286294 0.250387
H45   H     H_    0.000667 0.379900 0.229315 0.253587
H46   H     H_    0.834256 0.446672 0.304241 0.209087
H47   H     H_    0.980093 0.495971 0.334982 0.222537
H48   H     H_    0.978922 0.388086 0.445041 0.204364
H49   H     H_    0.825964 0.367083 0.414008 0.213743
N12   N     N_3   0.120892 0.623972 0.432772 -0.573005
H50   H     H_    0.052630 0.663420 0.415131 0.212044
H51   H     H_    0.152856 0.592579 0.381393 0.195496
C46   C     C_3   0.396628 0.359744 0.731524 -0.357860
C47   C     C_3   0.270403 0.384107 0.700685 -0.312269
C48   C     C_3   0.208724 0.311332 0.646821 -0.853461
H52   H     H_    0.266294 0.292760 0.596591 0.273735
H53   H     H_    0.191887 0.255517 0.679561 0.248717
H54   H     H_    0.120424 0.332509 0.623536 0.234868
H55   H     H_    0.212074 0.400583 0.751084 0.203317
H56   H     H_    0.276537 0.440352 0.667488 0.215965
H57   H     H_    0.450274 0.328271 0.684402 0.211020
H58   H     H_    0.378948 0.308712 0.769119 0.185032
C49   C     C_3   0.521034 0.350769 0.890956 -0.379337
C50   C     C_3   0.619528 0.297598 0.850288 -0.365310
C51   C     C_3   0.634306 0.213801 0.885620 -0.852825
H59   H     H_    0.661780 0.225776 0.948895 0.256068
H60   H     H_    0.547385 0.175550 0.878589 0.252910
H61   H     H_    0.705947 0.176963 0.855061 0.243059
H62   H     H_    0.596393 0.283155 0.786749 0.210473
H63   H     H_    0.708033 0.334120 0.856932 0.222828
H64   H     H_    0.549479 0.360942 0.953993 0.226895
H65   H     H_    0.432869 0.314573 0.889605 0.179940
N13   N     N_3   0.306939 0.400020 0.089685 -0.548386
H66   H     H_    0.254376 0.443209 0.062168 0.223460
H67   H     H_    0.345679 0.359294 0.046350 0.216846
N14   N     N_3   0.320409 0.389854 0.249627 -0.557412
H68   H     H_    0.277483 0.427790 0.293108 0.202451
H69   H     H_    0.363116 0.340606 0.274799 0.224609
N15   N     N_3   0.510263 0.671190 0.757850 -0.598003
H70   H     H_    0.431533 0.676434 0.722642 0.248688
H71   H     H_    0.589089 0.677509 0.727242 0.256620

loop_
_geom_bond_atom_site_label_1
_geom_bond_atom_site_label_2
_ccdc_geom_bond_type
C40   H42   S    
N11   H34   S    
Cu1   N6    S    
C12   C29   S    
N13   H67   S    
C44   H46   S    
C50   H62   S    
C31   H15   S    
N9    H30   S    
C51   H61   S    
N15   H70   S    
N10   H32   S    
C7    C8    A    
C37   C38   S    
C45   H43   S    
C29   H4    S    
C26   C27   D    
Cu1   O1    S    
C20   C37   S    
C43   H48   S    
C1    C30   S    
C28   C29   D    
C19   C21   A    
C19   N9    S    
C24   C40   S    
C5    C6    A    
C3    N8    S    
C47   H56   S    
C13   C31   S    
C43   C44   S    
C35   H20   S    
C15   C16   A    
C41   C42   S    
N12   H50   S    
Cu2   N3    S    
C36   H17   S    
C9    C13   A    
C25   O8    A    
C44   H47   S    
C48   H54   S    
C28   N12   S    
C14   N3    A    
C35   C36   S    
C38   H26   S    
C1    O1    A    
C49   H65   S    
C19   C20   A    
N12   H51   S    
C16   C17   A    
C44   C45   S    
C6    N14   S    
C15   H2    S    
C41   H39   S    
C46   H58   S    
C37   H28   S    
C33   H9    S    
N11   H35   S    
Cu1   O5    S    
Cu2   O6    S    
Cu1   O7    S    
N15   H71   S    
C5    N13   S    
C32   H13   S    
N8    H8    S    
C33   H10   S    
C23   O5    A    
N7    H5    S    
C12   O4    A    
C2    C34   S    
C14   H3    S    
C39   H24   S    
C47   H55   S    
C11   N15   S    
C27   C43   S    
C32   C33   S    
C34   C35   S    
N7    H6    S    
C36   H18   S    
C18   N3    A    
N1    N2    D    
C1    O2    A    
N10   H33   S    
Cu1   Cu2   S    
N13   H66   S    
C40   C41   S    
C17   C18   A    
Cu2   O2    S    
Cu2   O8    S    
C48   H52   S    
C41   H40   S    
C16   N4    S    
C21   N5    S    
N4    N5    D    
C6    C30   A    
C37   H29   S    
C42   H37   S    
N9    H31   S    
C22   C24   A    
C34   H21   S    
C51   H59   S    
C48   H53   S    
C47   C48   S    
C49   C50   S    
C32   H12   S    
C7    C9    A    
C22   H1    S    
N8    H7    S    
C33   H11   S    
C23   O6    A    
C38   C39   S    
Cu2   O4    S    
C50   H63   S    
C17   N10   S    
C31   H14   S    
C12   O3    A    
C51   H60   S    
C39   H25   S    
C20   N6    A    
C46   C47   S    
C10   C23   S    
C25   C27   S    
C42   H38   S    
C26   C28   S    
C45   H45   S    
C43   H49   S    
C2    C30   A    
C40   H41   S    
C2    C3    A    
C35   H19   S    
C26   N7    S    
C11   C13   A    
C31   C32   S    
C22   N6    A    
C9    N2    S    
C45   H44   S    
C50   C51   S    
N14   H69   S    
C36   H16   S    
C25   O7    A    
C7    C49   S    
C10   C11   A    
C39   H23   S    
C38   H27   S    
C4    C5    A    
C49   H64   S    
C4    N1    S    
C8    C10   A    
C42   H36   S    
Cu1   O3    S    
C21   C24   A    
N14   H68   S    
C18   N11   S    
C14   C15   A    
C34   H22   S    
C3    C4    A    
C8    C46   S    
C46   H57   S    
