data_mof_unit_51819.cif
_audit_creation_date              2012-12-10T20:48:20-0500
_audit_creation_method            fapswitch 2.2
_symmetry_space_group_name_H-M    P1
_symmetry_Int_Tables_number       1
_space_group_crystal_system       triclinic
_cell_length_a                    10.749569
_cell_length_b                    8.906077
_cell_length_c                    8.084428
_cell_angle_alpha                 89.999526
_cell_angle_beta                  89.820022
_cell_angle_gamma                 89.998507
_cell_volume                      773.970935395

loop_
_atom_site_label
_atom_site_type_symbol
_atom_type_description
_atom_site_fract_x
_atom_site_fract_y
_atom_site_fract_z
_atom_type_partial_charge
C1    C     C_R   0.499997 0.217944 0.500000 0.881923
C2    C     C_1   0.499986 0.934771 0.499999 -0.191747
C3    C     C_3   0.073943 0.662399 0.514795 0.290552
C4    C     C_3   0.926059 0.662362 0.484740 0.290506
C5    C     C_3   0.121441 0.488529 0.501041 -0.322820
C6    C     C_3   0.878563 0.488520 0.498978 -0.322813
C7    C     C_3   0.122525 0.230477 0.666966 -0.916687
C8    C     C_3   0.139034 0.264089 0.273541 -0.792502
C9    C     C_3   0.861009 0.264579 0.727133 -0.791688
C10   C     C_3   0.877508 0.230088 0.333784 -0.917050
C11   C     C_3   0.108256 0.735943 0.686429 -0.682619
C12   C     C_R   0.257550 0.490441 0.500276 0.949073
C13   C     C_3   0.145452 0.770795 0.392685 -0.775969
C14   C     C_3   0.854547 0.771026 0.606546 -0.776161
C15   C     C_3   0.891761 0.735532 0.312904 -0.682189
C16   C     C_R   0.742452 0.490437 0.499729 0.949307
C17   C     C_R   0.499986 0.782028 0.500000 0.891047
C18   C     C_1   0.499990 0.065227 0.500001 -0.179463
C19   C     C_3   0.073136 0.394728 0.657766 0.602006
C20   C     C_3   0.071986 0.410621 0.333026 0.593653
C21   C     C_3   0.928025 0.410992 0.667214 0.593527
C22   C     C_3   0.926873 0.394363 0.342519 0.601849
F1    F     F_    0.121407 0.454945 0.802546 -0.558079
F2    F     F_    0.097997 0.505724 0.202381 -0.580211
F3    F     F_    0.902006 0.506395 0.797592 -0.580444
F4    F     F_    0.878588 0.454238 0.197575 -0.558305
H1    H     H_    0.065896 0.147938 0.600403 0.181028
H2    H     H_    0.934134 0.147718 0.400610 0.181144
H3    H     H_    0.779754 0.221464 0.376839 0.232540
H4    H     H_    0.877668 0.190454 0.203363 0.281085
H5    H     H_    0.208343 0.724728 0.715653 0.255021
H6    H     H_    0.090976 0.858960 0.685845 0.186259
H7    H     H_    0.054852 0.694151 0.793182 0.320708
H8    H     H_    0.142453 0.741767 0.260611 0.296134
H9    H     H_    0.108771 0.887064 0.402760 0.201563
H10   H     H_    0.245383 0.778970 0.424846 0.220056
H11   H     H_    0.891261 0.887263 0.596210 0.201609
H12   H     H_    0.220270 0.221750 0.623908 0.232575
H13   H     H_    0.754629 0.779168 0.574293 0.219960
H14   H     H_    0.857484 0.742259 0.738693 0.296051
H15   H     H_    0.945140 0.693460 0.206261 0.320877
H16   H     H_    0.791685 0.724304 0.283692 0.255098
H17   H     H_    0.909093 0.858545 0.313140 0.186247
H18   H     H_    0.122399 0.191159 0.797503 0.281216
H19   H     H_    0.137351 0.168825 0.358927 0.164036
H20   H     H_    0.095753 0.225097 0.156545 0.266207
H21   H     H_    0.237739 0.282902 0.240838 0.270347
H22   H     H_    0.862612 0.169143 0.641992 0.163905
H23   H     H_    0.904365 0.225813 0.844162 0.266390
H24   H     H_    0.762353 0.283462 0.759981 0.270464
N1    N     N_1   0.500000 0.500030 0.073640 0.005364
N2    N     N_1   0.500000 0.500030 0.926360 0.005345
O1    O     O_R   0.500000 0.285340 0.636850 -0.629431
O2    O     O_R   0.500000 0.285340 0.363150 -0.629361
O3    O     O_R   0.314790 0.499970 0.636880 -0.570467
O4    O     O_R   0.314790 0.499970 0.363120 -0.592021
O5    O     O_R   0.685210 0.499970 0.636880 -0.592137
O6    O     O_R   0.685210 0.499970 0.363120 -0.570504
O7    O     O_R   0.500000 0.714650 0.636900 -0.621564
O8    O     O_R   0.500000 0.714650 0.363100 -0.621679
Zn1   Zn    Zn3+2 0.500000 0.499990 0.682780 1.025609
Zn2   Zn    Zn3+2 0.500000 0.499990 0.317220 1.025631

loop_
_geom_bond_atom_site_label_1
_geom_bond_atom_site_label_2
_ccdc_geom_bond_type
O6    Zn2   S    
C19   F1    S    
C1    O2    A    
O5    Zn1   S    
C5    C19   S    
C2    C18   T    
C10   H4    S    
C7    H1    S    
C11   H5    S    
C16   O5    A    
C4    C15   S    
C3    C4    S    
C8    H21   S    
C15   H17   S    
C13   H8    S    
C5    C20   S    
C16   O6    A    
C7    H18   S    
C10   C22   S    
C2    C17   S    
C10   H3    S    
C9    C21   S    
C1    C18   S    
C12   O4    A    
N1    Zn2   S    
O1    Zn1   S    
C17   O7    A    
O3    Zn1   S    
O8    Zn2   S    
C8    C20   S    
C7    H12   S    
C20   C22   S    
C11   H6    S    
C13   H9    S    
C7    C19   S    
N2    Zn1   S    
C4    C14   S    
O4    Zn2   S    
O7    Zn1   S    
C12   O3    A    
C3    C11   S    
C5    C12   S    
C17   O8    A    
C6    C16   S    
N1    N2    T    
C6    C22   S    
C3    C5    S    
C9    H22   S    
C11   H7    S    
C9    H23   S    
C15   H15   S    
C13   H10   S    
C4    C6    S    
C22   F4    S    
C10   H2    S    
C1    O1    A    
C8    H19   S    
C21   F3    S    
O2    Zn2   S    
C8    H20   S    
C19   C21   S    
C14   H13   S    
C6    C21   S    
C14   H14   S    
C9    H24   S    
C20   F2    S    
C15   H16   S    
C14   H11   S    
C3    C13   S    
