data_mof_unit_14887.cif
_audit_creation_date              2012-12-10T18:11:38-0500
_audit_creation_method            fapswitch 2.2
_symmetry_space_group_name_H-M    P1
_symmetry_Int_Tables_number       1
_space_group_crystal_system       triclinic
_cell_length_a                    10.548082
_cell_length_b                    12.616641
_cell_length_c                    13.150438
_cell_angle_alpha                 81.830717
_cell_angle_beta                  91.702481
_cell_angle_gamma                 103.657628
_cell_volume                      1683.32290892

loop_
_atom_site_label
_atom_site_type_symbol
_atom_type_description
_atom_site_fract_x
_atom_site_fract_y
_atom_site_fract_z
_atom_type_partial_charge
C1    C     C_R   0.483827 0.437879 0.692035 0.952223
C2    C     C_3   0.054097 0.528159 0.583310 -0.054528
C3    C     C_3   0.938748 0.429262 0.574665 -0.244849
C4    C     C_3   0.878552 0.505421 0.496642 -0.088979
C5    C     C_R   0.677019 0.712827 0.058141 -0.205097
C6    C     C_R   0.543712 0.602493 0.199357 -0.203423
C7    C     C_R   0.353542 0.310065 0.835119 -0.094331
C8    C     C_R   0.283365 0.315771 0.921757 -0.208787
C9    C     C_R   0.320786 0.404339 0.977490 0.293695
C10   C     C_R   0.447388 0.475980 0.960375 -0.067646
C11   C     C_R   0.519391 0.469603 0.872830 -0.078631
C12   C     C_R   0.742725 0.502328 0.498524 1.003820
C13   C     C_R   0.507857 0.551793 0.027247 0.128910
C14   C     C_R   0.618687 0.635884 0.994100 0.029679
C15   C     C_R   0.684728 0.630331 0.906114 -0.286114
C16   C     C_R   0.645768 0.539332 0.854896 0.422124
C17   C     C_R   0.476193 0.534174 0.131179 -0.169447
C18   C     C_R   0.642356 0.696759 0.161787 0.358080
C19   C     C_R   0.461413 0.397705 0.802834 -0.101357
C20   C     C_R   0.319433 0.088993 0.342221 -0.101291
C21   C     C_R   0.658187 0.801757 0.627649 -0.014516
C22   C     C_R   0.692363 0.907354 0.656134 -0.087427
C23   C     C_R   0.519611 0.562114 0.308631 0.899022
C24   C     C_R   0.627940 0.986372 0.609220 -0.181668
C25   C     C_R   0.534557 0.961929 0.531399 0.016976
C26   C     C_R   0.505446 0.853670 0.505406 0.288873
C27   C     C_R   0.471175 0.040996 0.477243 -0.000829
C28   C     C_R   0.380746 0.010400 0.397645 0.098688
C29   C     C_R   0.352620 0.901933 0.376070 -0.230917
C30   C     C_R   0.415095 0.825981 0.428049 -0.141606
C31   C     C_R   0.494659 0.150133 0.498446 -0.013595
C32   C     C_R   0.347537 0.194973 0.368613 0.030284
C33   C     C_R   0.257525 0.498990 0.497470 0.899726
C34   C     C_3   0.944132 0.474976 0.406143 -0.170138
C35   C     C_3   0.006825 0.400393 0.484434 0.399104
C36   C     C_3   0.121786 0.497335 0.494632 -0.185484
C37   C     C_3   0.061010 0.573706 0.416608 -0.214081
C38   C     C_3   0.991952 0.604868 0.506465 -0.065288
H1    H     H_    0.409236 0.459075 0.162275 0.209593
H2    H     H_    0.192621 0.255473 0.941052 0.213063
H3    H     H_    0.304268 0.257650 0.326897 0.183684
H4    H     H_    0.282405 0.874139 0.318268 0.196431
H5    H     H_    0.560900 0.180954 0.556939 0.152649
H6    H     H_    0.704535 0.738444 0.663442 0.201295
H7    H     H_    0.895153 0.452939 0.333579 0.201324
H8    H     H_    0.654127 0.066380 0.633827 0.185185
H9    H     H_    0.393705 0.746647 0.403398 0.203109
H10   H     H_    0.114411 0.631968 0.352097 0.191673
H11   H     H_    0.982053 0.688645 0.515807 0.217491
H12   H     H_    0.889459 0.367872 0.638457 0.234278
H13   H     H_    0.778907 0.686058 0.888230 0.212446
H14   H     H_    0.759193 0.778763 0.029639 0.204108
N1    N     N_R   0.432930 0.222190 0.444670 -0.115651
N2    N     N_R   0.566370 0.776980 0.554790 -0.129728
O1    O     O_R   0.467970 0.366730 0.627150 -0.579819
O2    O     O_R   0.510820 0.544830 0.662520 -0.627396
O3    O     O_R   0.664630 0.410960 0.482340 -0.644450
O4    O     O_R   0.707470 0.589060 0.517710 -0.553290
O5    O     O_R   0.489180 0.455170 0.337480 -0.632707
O6    O     O_R   0.532030 0.633270 0.372850 -0.576473
O7    O     O_R   0.292530 0.410940 0.482290 -0.559284
O8    O     O_R   0.335370 0.589040 0.517660 -0.667511
Zn1   Zn    Zn3+2 0.471390 0.381080 0.476380 1.029723
Zn2   Zn    Zn3+2 0.528610 0.618920 0.523620 1.029404
S1    S     S_3+6 0.007917 0.262705 0.468580 0.103092
O9    O     O_2   0.068435 0.263750 0.366622 -0.202583
O10   O     O_2   0.084997 0.214152 0.552977 -0.233817
O11   O     O_3   0.854157 0.185858 0.470665 -0.490860
H15   H     H_    0.811249 0.207156 0.527940 0.330780
C39   C     C_2   0.306506 0.215875 0.777056 1.017210
O12   O     O_2   0.189446 0.176871 0.769493 -0.563234
O13   O     O_R   0.396197 0.167993 0.735421 -0.768604
H16   H     H_    0.352255 0.103074 0.699395 0.348268
S2    S     S_3+6 0.194192 0.432800 0.048079 0.034536
O14   O     O_2   0.218110 0.554015 0.054005 -0.259074
O15   O     O_2   0.065998 0.396483 0.995687 -0.192838
O16   O     O_3   0.183636 0.362887 0.167245 -0.521404
H17   H     H_    0.187291 0.287410 0.157281 0.355271
S3    S     S_3+6 0.771436 0.500497 0.794101 0.023456
O17   O     O_2   0.725792 0.389426 0.759360 -0.305371
O18   O     O_2   0.822963 0.585893 0.704525 -0.359994
O19   O     O_3   0.893016 0.495000 0.878652 -0.439776
H18   H     H_    0.943520 0.572112 0.877103 0.387901
C40   C     C_2   0.228472 0.064807 0.256059 0.882491
O20   O     O_2   0.261657 0.026416 0.183628 -0.604942
O21   O     O_R   0.105650 0.088438 0.256819 -0.698494
H19   H     H_    0.052819 0.069764 0.193402 0.383957
C41   C     C_2   0.796341 0.936042 0.732940 0.971606
O22   O     O_2   0.861187 0.870203 0.766049 -0.613262
O23   O     O_R   0.821984 0.039304 0.766639 -0.750867
H20   H     H_    0.895674 0.049267 0.818293 0.385921
C42   C     C_2   0.118426 0.558798 0.681423 1.039684
O24   O     O_2   0.125707 0.650663 0.704171 -0.583804
O25   O     O_R   0.171198 0.482542 0.745685 -0.788349
H21   H     H_    0.214560 0.514193 0.808033 0.359399
S4    S     S_3+6 0.739820 0.785984 0.241727 0.063968
O26   O     O_2   0.799404 0.719597 0.325448 -0.280903
O27   O     O_2   0.847953 0.867658 0.181279 -0.273943
O28   O     O_3   0.647578 0.855472 0.294664 -0.505407
H22   H     H_    0.606988 0.893175 0.235774 0.359660

loop_
_geom_bond_atom_site_label_1
_geom_bond_atom_site_label_2
_ccdc_geom_bond_type
C29   H4    S    
C34   C37   S    
C18   S4    S    
C35   C36   S    
C7    C39   S    
C7    C8    A    
C38   H11   S    
O16   H17   S    
C23   O5    A    
C11   C19   A    
C29   C30   A    
S2    O15   D    
C36   C37   S    
C1    O2    A    
C40   O21   S    
C21   N2    A    
C35   S1    S    
C15   C16   A    
S4    O28   S    
C33   C36   S    
C34   C35   S    
C17   H1    S    
O7    Zn1   S    
O8    Zn2   S    
O11   H15   S    
C8    C9    A    
S1    O10   D    
S2    O16   S    
O1    Zn1   S    
C32   H3    S    
O2    Zn2   S    
C5    H14   S    
C39   O12   D    
C15   H13   S    
C4    C12   S    
C9    C10   A    
C12   O4    A    
C21   C22   A    
C26   N2    A    
C3    H12   S    
O3    Zn1   S    
O4    Zn2   S    
C23   O6    A    
C6    C18   A    
C4    C34   S    
C1    C19   S    
S2    O14   D    
C27   C31   A    
C30   H9    S    
C24   C25   A    
S3    O18   D    
O21   H19   S    
C33   O8    A    
C5    C18   A    
C20   C28   A    
C25   C26   A    
C22   C41   S    
O19   H18   S    
C31   N1    A    
S4    O27   D    
C37   C38   S    
C21   H6    S    
C11   C16   A    
C2    C38   S    
O28   H22   S    
C3    C35   S    
S1    O11   S    
S4    O26   D    
C42   O25   S    
C34   H7    S    
C40   O20   D    
C37   H10   S    
C2    C42   S    
C5    C14   A    
C31   H5    S    
C12   O3    A    
C41   O23   S    
C26   C30   A    
C7    C19   A    
C20   C40   S    
C22   C24   A    
C9    S2    S    
C3    C4    S    
C32   N1    A    
C20   C32   A    
C2    C36   S    
C6    C17   A    
C28   C29   A    
C4    C38   S    
O13   H16   S    
C10   C13   A    
S3    O19   S    
C25   C27   A    
O5    Zn1   S    
C13   C17   A    
O6    Zn2   S    
C16   S3    S    
C24   H8    S    
C2    C3    S    
C1    O1    A    
N1    Zn1   S    
O23   H20   S    
N2    Zn2   S    
C6    C23   S    
C42   O24   D    
O25   H21   S    
C10   C11   A    
S3    O17   D    
C41   O22   D    
C33   O7    A    
S1    O9    D    
C27   C28   A    
C14   C15   A    
C39   O13   S    
C8    H2    S    
C13   C14   A    
