data_mof_unit_51233.cif
_audit_creation_date              2012-12-10T16:47:18-0500
_audit_creation_method            fapswitch 2.2
_symmetry_space_group_name_H-M    P1
_symmetry_Int_Tables_number       1
_space_group_crystal_system       triclinic
_cell_length_a                    12.127576
_cell_length_b                    12.269049
_cell_length_c                    7.805517
_cell_angle_alpha                 90.115089
_cell_angle_beta                  94.307219
_cell_angle_gamma                 90.031944
_cell_volume                      1158.12989284

loop_
_atom_site_label
_atom_site_type_symbol
_atom_type_description
_atom_site_fract_x
_atom_site_fract_y
_atom_site_fract_z
_atom_type_partial_charge
C1    C     C_R   0.354793 0.851212 0.455983 0.919661
C2    C     C_2   0.713398 0.758587 0.559860 -0.100861
C3    C     C_2   0.736130 0.219773 0.567600 -0.102264
C4    C     C_2   0.263872 0.780225 0.432399 -0.102276
C5    C     C_2   0.786601 0.741412 0.440140 -0.100873
C6    C     C_2   0.213399 0.258587 0.559861 -0.100874
C7    C     C_2   0.236128 0.719775 0.567602 -0.102267
C8    C     C_2   0.763870 0.280227 0.432400 -0.102264
C9    C     C_R   0.645208 0.148787 0.544017 0.919661
C10   C     C_R   0.644965 0.851013 0.543818 0.919700
C11   C     C_R   0.355036 0.148988 0.456182 0.919702
C12   C     C_R   0.854792 0.351213 0.455983 0.919664
C13   C     C_R   0.145207 0.648787 0.544017 0.919660
C14   C     C_R   0.144964 0.351013 0.543818 0.919696
C15   C     C_R   0.855036 0.648987 0.456182 0.919698
C16   C     C_2   0.286599 0.241411 0.440138 -0.100877
H1    H     H_    0.794796 0.781427 0.189036 0.188997
H2    H     H_    0.390511 0.343440 0.325171 0.175034
H3    H     H_    0.705219 0.718580 0.810972 0.188997
H4    H     H_    0.609482 0.656555 0.674821 0.175029
H5    H     H_    0.828500 0.133602 0.748461 0.168930
H6    H     H_    0.753811 0.236225 0.827304 0.186352
H7    H     H_    0.171513 0.866387 0.251498 0.168936
H8    H     H_    0.246207 0.763749 0.172690 0.186357
H9    H     H_    0.684482 0.073047 0.043379 0.172315
H10   H     H_    0.688092 0.936485 0.034402 0.174874
H11   H     H_    0.315524 0.926943 0.956596 0.172324
H12   H     H_    0.890519 0.843448 0.325211 0.175032
H13   H     H_    0.311905 0.063485 0.965641 0.174868
H14   H     H_    0.184540 0.572964 0.043551 0.172336
H15   H     H_    0.188040 0.436408 0.034222 0.174850
H16   H     H_    0.815512 0.426951 0.956598 0.172311
H17   H     H_    0.811906 0.563502 0.965636 0.174866
H18   H     H_    0.205236 0.218586 0.810977 0.188983
H19   H     H_    0.109484 0.156562 0.674840 0.175036
H20   H     H_    0.328489 0.633612 0.748501 0.168935
H21   H     H_    0.253792 0.736248 0.827312 0.186366
H22   H     H_    0.671499 0.366398 0.251540 0.168928
H23   H     H_    0.746190 0.263776 0.172696 0.186355
H24   H     H_    0.294772 0.281411 0.189024 0.188989
N1    N     N_2   0.541470 0.000000 0.055820 0.000489
N2    N     N_3   0.692447 0.680346 0.691250 -0.448343
N3    N     N_3   0.802935 0.214267 0.728289 -0.441372
N4    N     N_3   0.197076 0.785721 0.271694 -0.441353
N5    N     N_3   0.643903 0.004822 0.988910 -0.323850
N6    N     N_3   0.356099 0.995155 0.011088 -0.323871
N7    N     N_3   0.143903 0.504820 0.988911 -0.323852
N8    N     N_3   0.856100 0.495164 0.011088 -0.323851
N9    N     N_2   0.458530 0.000000 0.944180 0.000489
N10   N     N_2   0.041470 0.500000 0.055820 0.000490
N11   N     N_2   0.958530 0.500000 0.944180 0.000496
N12   N     N_3   0.807557 0.819657 0.308760 -0.448354
N13   N     N_3   0.192452 0.180349 0.691259 -0.448338
N14   N     N_3   0.302924 0.714279 0.728307 -0.441358
N15   N     N_3   0.697066 0.285733 0.271711 -0.441370
N16   N     N_3   0.307546 0.319649 0.308742 -0.448337
O1    O     O_R   0.375700 0.885870 0.609240 -0.599907
O2    O     O_R   0.597720 0.114130 0.675960 -0.626532
O3    O     O_R   0.597720 0.885870 0.675960 -0.625616
O4    O     O_R   0.402280 0.114130 0.324040 -0.625624
O5    O     O_R   0.902280 0.385870 0.324040 -0.626530
O6    O     O_R   0.097720 0.614130 0.675960 -0.626503
O7    O     O_R   0.097720 0.385870 0.675960 -0.625648
O8    O     O_R   0.902280 0.614130 0.324040 -0.625621
O9    O     O_R   0.624300 0.114130 0.390760 -0.599905
O10   O     O_R   0.624300 0.885870 0.390760 -0.601239
O11   O     O_R   0.375700 0.114130 0.609240 -0.601233
O12   O     O_R   0.875700 0.385870 0.609240 -0.599907
O13   O     O_R   0.124300 0.614130 0.390760 -0.599915
O14   O     O_R   0.124300 0.385870 0.390760 -0.601229
O15   O     O_R   0.875700 0.614130 0.609240 -0.601234
O16   O     O_R   0.402280 0.885870 0.324040 -0.626526
Zn1   Zn    Zn3+2 0.482250 0.000000 0.690430 0.963643
Zn2   Zn    Zn3+2 0.517750 0.000000 0.309570 0.963640
Zn3   Zn    Zn3+2 0.982250 0.500000 0.690430 0.963643
Zn4   Zn    Zn3+2 0.017750 0.500000 0.309570 0.963642

loop_
_geom_bond_atom_site_label_1
_geom_bond_atom_site_label_2
_ccdc_geom_bond_type
H19   N13   S    
H16   N8    S    
O12   Zn3   S    
C12   O12   A    
N6    N9    S    
C3    N3    S    
O7    Zn3   S    
N11   Zn3   S    
C1    O1    A    
O10   Zn2   S    
H1    N12   S    
O13   Zn4   S    
C9    O2    A    
O1    Zn1   S    
H10   N5    S    
N1    Zn2   S    
H5    N3    S    
N8    N11   S    
H23   N15   S    
H22   N15   S    
H24   N16   S    
C15   O8    A    
C5    N12   S    
O11   Zn1   S    
O3    Zn1   S    
H3    N2    S    
H2    N16   S    
H15   N7    S    
C14   O14   A    
C4    C7    D    
C8    N15   S    
N1    N9    D    
C11   O11   A    
N7    N10   S    
C10   O10   A    
O5    Zn4   S    
C1    O16   A    
C13   O6    A    
H14   N7    S    
O16   Zn2   S    
C3    C8    D    
C4    N4    S    
O9    Zn2   S    
C16   N16   S    
C3    C9    S    
N10   Zn4   S    
C6    C14   S    
C11   C16   S    
H6    N3    S    
C8    C12   S    
N10   N11   D    
O8    Zn4   S    
H21   N14   S    
H11   N6    S    
O14   Zn4   S    
H8    N4    S    
N9    Zn1   S    
O6    Zn3   S    
C2    C5    D    
C6    N13   S    
C11   O4    A    
C2    C10   S    
H9    N5    S    
H4    N2    S    
C15   O15   A    
H13   N6    S    
C1    C4    S    
C10   O3    A    
O15   Zn3   S    
C12   O5    A    
H12   N12   S    
C13   O13   A    
C2    N2    S    
C14   O7    A    
O4    Zn2   S    
C9    O9    A    
C5    C15   S    
H20   N14   S    
H7    N4    S    
C6    C16   D    
C7    C13   S    
H18   N13   S    
H17   N8    S    
N1    N5    S    
C7    N14   S    
O2    Zn1   S    
