data_mof_unit_34384.cif
_audit_creation_date              2012-12-10T17:48:57-0500
_audit_creation_method            fapswitch 2.2
_symmetry_space_group_name_H-M    P1
_symmetry_Int_Tables_number       1
_space_group_crystal_system       triclinic
_cell_length_a                    10.752198
_cell_length_b                    14.717378
_cell_length_c                    14.689079
_cell_angle_alpha                 64.929211
_cell_angle_beta                  103.865035
_cell_angle_gamma                 103.43541
_cell_volume                      2021.37477954

loop_
_atom_site_label
_atom_site_type_symbol
_atom_type_description
_atom_site_fract_x
_atom_site_fract_y
_atom_site_fract_z
_atom_type_partial_charge
C1    C     C_R   0.480847 0.119782 0.312003 0.854311
C2    C     C_3   0.878792 0.000842 0.501421 -0.065159
C3    C     C_3   0.912562 0.890545 0.558570 0.045060
C4    C     C_3   0.970921 0.070846 0.553731 0.164001
C5    C     C_R   0.464871 0.187200 0.203591 -0.105952
C6    C     C_R   0.526747 0.812049 0.795919 -0.078789
C7    C     C_R   0.372240 0.214329 0.028247 -0.119245
C8    C     C_R   0.393705 0.149505 0.130390 -0.181359
C9    C     C_R   0.514714 0.290957 0.173057 0.192282
C10   C     C_R   0.469895 0.358886 0.074564 0.015666
C11   C     C_R   0.409691 0.319577 0.998922 0.064051
C12   C     C_R   0.259907 0.999869 0.500198 0.821358
C13   C     C_R   0.483901 0.464560 0.049182 0.089700
C14   C     C_R   0.470883 0.531853 0.945747 0.051627
C15   C     C_R   0.422998 0.490734 0.870469 -0.213786
C16   C     C_R   0.388252 0.386599 0.896391 0.164906
C17   C     C_R   0.497597 0.503591 0.124251 -0.126299
C18   C     C_R   0.513695 0.607237 0.099563 -0.171529
C19   C     C_R   0.518075 0.676053 0.998896 0.097081
C20   C     C_R   0.499167 0.638158 0.921355 0.078774
C21   C     C_R   0.538707 0.781976 0.973249 0.159366
C22   C     C_R   0.541368 0.848918 0.871942 -0.164226
C23   C     C_R   0.521338 0.880173 0.688015 0.853248
C24   C     C_R   0.509944 0.707686 0.821665 -0.202173
C25   C     C_R   0.691746 0.278368 0.681437 -0.258847
C26   C     C_R   0.672178 0.201428 0.646589 0.469017
C27   C     C_R   0.523096 0.287368 0.504969 0.048707
C28   C     C_R   0.532780 0.366077 0.540060 -0.026256
C29   C     C_R   0.622343 0.360132 0.630395 0.050343
C30   C     C_R   0.461940 0.451587 0.488324 0.033760
C31   C     C_R   0.497352 0.534313 0.522228 0.017876
C32   C     C_R   0.584216 0.522197 0.613502 -0.211346
C33   C     C_R   0.643462 0.436580 0.667878 0.192205
C34   C     C_R   0.740282 0.999994 0.500614 0.855484
C35   C     C_R   0.354734 0.458395 0.407305 0.218949
C36   C     C_R   0.300786 0.547893 0.354447 -0.170490
C37   C     C_R   0.342336 0.630698 0.382393 0.092006
C38   C     C_R   0.440119 0.625370 0.467040 -0.000002
C39   C     C_R   0.282588 0.717869 0.328248 -0.246819
C40   C     C_R   0.319772 0.799315 0.358371 0.116269
C41   C     C_R   0.476296 0.712580 0.492200 0.027218
C42   C     C_3   0.048923 0.047696 0.389114 0.109923
C43   C     C_3   0.903345 0.039832 0.390422 -0.415268
C44   C     C_3   0.054578 0.889895 0.554502 -0.374100
C45   C     C_3   0.112675 0.062293 0.560405 -0.435185
C46   C     C_3   0.121865 0.999634 0.500219 -0.024919
Cu1   Cu    Cu3+1 0.465900 0.918260 0.475680 0.978341
Cu2   Cu    Cu3+1 0.534100 0.081740 0.524320 1.039252
H1    H     H_    0.951327 0.045776 0.632279 0.204626
H2    H     H_    0.108804 0.854935 0.632536 0.199625
H3    H     H_    0.507928 0.681920 0.762659 0.160425
H4    H     H_    0.553989 0.929767 0.852716 0.197322
H5    H     H_    0.523153 0.632309 0.160552 0.180229
H6    H     H_    0.321914 0.181462 0.973707 0.188691
H7    H     H_    0.356314 0.069509 0.151780 0.187485
H8    H     H_    0.090377 0.129325 0.355747 0.192022
H9    H     H_    0.402304 0.537956 0.790732 0.159785
H10   H     H_    0.489640 0.453896 0.202539 0.184895
H11   H     H_    0.554402 0.717739 0.552032 0.135602
H12   H     H_    0.273577 0.866432 0.316554 0.170505
H13   H     H_    0.220525 0.551321 0.292674 0.194993
H14   H     H_    0.762342 0.272877 0.748973 0.207829
H15   H     H_    0.471012 0.292010 0.431888 0.189925
H16   H     H_    0.871398 0.115179 0.343833 0.220357
H17   H     H_    0.605128 0.577079 0.647545 0.154594
H18   H     H_    0.206711 0.722731 0.263414 0.167509
H19   H     H_    0.843920 0.987198 0.354662 0.215576
H20   H     H_    0.056193 0.842052 0.513166 0.211412
H21   H     H_    0.849253 0.841202 0.520286 0.169927
H22   H     H_    0.156078 0.025222 0.641713 0.186190
H23   H     H_    0.169558 0.139221 0.530831 0.253520
N1    N     N_R   0.585360 0.204570 0.560800 -0.205661
N2    N     N_R   0.414550 0.795430 0.439160 -0.192263
O1    O     O_R   0.455060 0.022100 0.338110 -0.590290
O2    O     O_R   0.512640 0.160150 0.379180 -0.550778
O3    O     O_R   0.288900 0.930980 0.479450 -0.562133
O4    O     O_R   0.346480 0.069030 0.520520 -0.590583
O5    O     O_R   0.487360 0.839850 0.620820 -0.597341
O6    O     O_R   0.544940 0.977900 0.661890 -0.559774
O7    O     O_R   0.653520 0.930970 0.479480 -0.594502
O8    O     O_R   0.711100 0.069020 0.520550 -0.511475
Br1   Br    Br    0.068404 0.988994 0.297146 -0.525470
Br2   Br    Br    0.879366 0.828156 0.699175 -0.509238
I1    I     I_    0.307301 0.338101 0.774158 -0.302260
Br3   Br    Br    0.672112 0.333465 0.251813 -0.435547
I2    I     I_    0.563455 0.848262 0.081317 -0.323927
I3    I     I_    0.764922 0.431405 0.807661 -0.266618
Br4   Br    Br    0.776946 0.096046 0.723089 -0.435822
Br5   Br    Br    0.250645 0.347637 0.374027 -0.524402
Br6   Br    Br    0.948085 0.214657 0.484653 -0.363992

loop_
_geom_bond_atom_site_label_1
_geom_bond_atom_site_label_2
_ccdc_geom_bond_type
C40   H12   S    
C45   H23   S    
C26   N1    A    
C19   C20   A    
C42   Br1   S    
C7    C8    A    
C45   C46   S    
C40   N2    A    
C7    C11   A    
C30   C35   A    
C1    C5    S    
C1    O1    A    
Cu2   O6    S    
C36   C37   A    
C3    H21   S    
Cu1   O3    S    
C30   C31   A    
C15   C16   A    
C6    C22   A    
C29   C33   A    
C16   I1    S    
Cu2   O8    S    
C18   C19   A    
C42   C46   S    
C20   C24   A    
C18   H5    S    
C9    Br3   S    
C31   C32   A    
C34   O8    A    
C9    C10   A    
C17   H10   S    
C42   H8    S    
C2    C34   S    
C24   H3    S    
C13   C14   A    
C15   H9    S    
Cu2   O2    S    
Cu1   O7    S    
Cu2   N1    S    
C8    H7    S    
C44   C46   S    
C43   H16   S    
C4    Br6   S    
C4    C45   S    
C25   C29   A    
C3    C44   S    
C1    O2    A    
C14   C20   A    
Cu1   N2    S    
C38   C41   A    
C12   C46   S    
C39   C40   A    
C25   C26   A    
C35   C36   A    
Cu2   O4    S    
C2    C4    S    
C5    C9    A    
C37   C38   A    
C11   C16   A    
Cu1   Cu2   S    
C2    C43   S    
C6    C24   A    
C12   O4    A    
C17   C18   A    
C41   H11   S    
C27   H15   S    
C35   Br5   S    
C43   H19   S    
C12   O3    A    
C3    Br2   S    
C39   H18   S    
C44   H20   S    
C42   C43   S    
C36   H13   S    
C22   H4    S    
C44   H2    S    
C21   I2    S    
C28   C29   A    
C19   C21   A    
C45   H22   S    
Cu1   O1    S    
C34   O7    A    
C10   C13   A    
C5    C8    A    
Cu1   O5    S    
C31   C38   A    
C13   C17   A    
C4    H1    S    
C32   C33   A    
C28   C30   A    
C2    C3    S    
C33   I3    S    
C37   C39   A    
C6    C23   S    
C25   H14   S    
C23   O5    A    
C10   C11   A    
C41   N2    A    
C26   Br4   S    
C27   C28   A    
C14   C15   A    
C7    H6    S    
C23   O6    A    
C21   C22   A    
C27   N1    A    
C32   H17   S    
