data_mof_unit_5094.cif
_audit_creation_date              2012-12-11T17:43:17-0500
_audit_creation_method            fapswitch 2.2
_symmetry_space_group_name_H-M    P1
_symmetry_Int_Tables_number       1
_space_group_crystal_system       triclinic
_cell_length_a                    15.103416
_cell_length_b                    15.163845
_cell_length_c                    16.882172
_cell_angle_alpha                 108.800904
_cell_angle_beta                  105.876606
_cell_angle_gamma                 109.72291
_cell_volume                      3112.20221281

loop_
_atom_site_label
_atom_site_type_symbol
_atom_type_description
_atom_site_fract_x
_atom_site_fract_y
_atom_site_fract_z
_atom_type_partial_charge
C1    C     C_R   0.084863 0.292391 0.082704 -0.145516
C2    C     C_R   0.911484 0.724704 0.969789 -0.125195
C3    C     C_R   0.025520 0.582257 0.745757 0.056842
C4    C     C_R   0.972354 0.534699 0.274977 0.054588
C5    C     C_R   0.761220 0.197631 0.725614 0.053226
C6    C     C_R   0.335966 0.782559 0.255389 0.068265
C7    C     C_R   0.292285 0.464961 0.971319 -0.014551
C8    C     C_R   0.641106 0.434453 0.943793 0.000760
C9    C     C_R   0.913489 0.935067 0.052219 -0.237662
C10   C     C_R   0.093676 0.111882 0.100447 -0.233796
C11   C     C_R   0.005282 0.927722 0.060380 0.068026
C12   C     C_R   0.999068 0.114721 0.077589 0.054292
C13   C     C_R   0.098365 0.020146 0.090337 0.025925
C14   C     C_R   0.908986 0.028142 0.061012 0.029000
C15   C     C_R   0.715351 0.951780 0.979041 -0.178495
C16   C     C_R   0.280373 0.076653 0.195388 -0.170368
C17   C     C_R   0.623241 0.036004 0.042617 -0.077977
C18   C     C_R   0.402593 0.051714 0.134753 -0.113832
C19   C     C_R   0.482990 0.583174 0.276038 -0.119121
C20   C     C_R   0.504466 0.295687 0.647535 -0.113552
C21   C     C_R   0.477123 0.564210 0.187607 -0.116630
C22   C     C_R   0.494961 0.312297 0.730535 -0.131429
C23   C     C_R   0.935128 0.519801 0.746954 -0.137769
C24   C     C_R   0.064362 0.548654 0.265630 -0.125402
C25   C     C_R   0.448638 0.462433 0.122946 0.107869
C26   C     C_R   0.470824 0.392137 0.772204 0.117619
C27   C     C_R   0.427108 0.380343 0.148056 -0.179377
C28   C     C_R   0.454720 0.453688 0.728346 -0.169864
C29   C     C_R   0.431330 0.399419 0.236034 -0.120979
C30   C     C_R   0.463939 0.436499 0.645131 -0.109475
C31   C     C_R   0.459383 0.500874 0.300062 -0.109436
C32   C     C_R   0.489029 0.357780 0.604892 -0.101642
C33   C     C_R   0.528973 0.430559 0.018858 -0.222453
C34   C     C_R   0.380116 0.423915 0.873494 -0.228084
C35   C     C_R   0.540267 0.419938 0.937659 0.070861
C36   C     C_R   0.373606 0.442321 0.958089 0.081667
C37   C     C_R   0.463987 0.412064 0.861963 0.017533
C38   C     C_R   0.447134 0.442085 0.030564 0.011501
C39   C     C_R   0.622266 0.954235 0.973376 -0.104674
C40   C     C_R   0.380202 0.088548 0.210147 -0.134410
C41   C     C_R   0.963024 0.579546 0.361627 0.129540
C42   C     C_R   0.033252 0.624705 0.679618 0.129844
C43   C     C_R   0.137763 0.697919 0.608574 -0.224688
C44   C     C_R   0.857779 0.561861 0.446661 -0.224960
C45   C     C_R   0.777444 0.203317 0.812486 -0.128845
C46   C     C_R   0.280364 0.784468 0.176440 -0.154985
C47   C     C_R   0.131063 0.681451 0.683516 -0.178400
C48   C     C_R   0.864903 0.546076 0.363314 -0.170744
C49   C     C_R   0.942475 0.597310 0.605210 -0.281376
C50   C     C_R   0.053227 0.643914 0.445293 -0.276963
C51   C     C_R   0.948531 0.608266 0.527944 0.187722
C52   C     C_R   0.046957 0.654429 0.528171 0.189329
C53   C     C_R   0.720657 0.102124 0.639436 0.132129
C54   C     C_R   0.444361 0.856704 0.322520 0.134443
C55   C     C_R   0.592996 0.029067 0.392061 -0.232189
C56   C     C_R   0.613769 0.913177 0.555047 -0.232359
C57   C     C_R   0.500588 0.947923 0.317046 -0.178578
C58   C     C_R   0.683700 0.002968 0.637963 -0.168876
C59   C     C_R   0.488526 0.841877 0.398537 -0.306549
C60   C     C_R   0.702673 0.108255 0.555801 -0.287949
C61   C     C_R   0.579365 0.922945 0.474174 0.197616
C62   C     C_R   0.628551 0.019574 0.473070 0.193900
C63   C     C_R   0.717287 0.115616 0.117761 -0.104690
C64   C     C_R   0.325430 0.003794 0.044323 -0.117271
C65   C     C_R   0.810714 0.113651 0.123684 -0.147872
C66   C     C_R   0.225499 0.992399 0.029169 -0.149941
C67   C     C_R   0.266591 0.539703 0.955733 0.079186
C68   C     C_R   0.698599 0.400884 0.992748 0.045311
C69   C     C_R   0.810493 0.031775 0.054106 0.111985
C70   C     C_R   0.202021 0.027172 0.104806 0.100965
C71   C     C_R   0.782754 0.298000 0.734533 -0.129022
C72   C     C_R   0.273712 0.689936 0.253158 -0.135051
C73   C     C_R   0.245936 0.434714 0.023889 -0.135212
C74   C     C_R   0.705176 0.501220 0.921257 -0.146951
C75   C     C_R   0.106921 0.606477 0.824668 -0.129760
C76   C     C_R   0.890726 0.464394 0.187942 -0.136237
C77   C     C_R   0.913269 0.204522 0.001739 -0.138687
C78   C     C_R   0.084350 0.804986 0.052701 -0.133020
C79   C     C_R   0.997477 0.200555 0.056012 0.062177
C80   C     C_R   0.999605 0.823047 0.031533 0.052335
H1    H     H_    0.161777 0.324174 0.136438 0.098697
H2    H     H_    0.831659 0.708849 0.937754 0.093932
H3    H     H_    0.713374 0.888116 0.924517 0.111195
H4    H     H_    0.263958 0.105920 0.254331 0.119440
H5    H     H_    0.463678 0.515930 0.368530 0.098216
H6    H     H_    0.496460 0.344872 0.540648 0.096986
H7    H     H_    0.507001 0.661858 0.326291 0.117240
H8    H     H_    0.523862 0.234685 0.616310 0.115788
H9    H     H_    0.495702 0.628616 0.169805 0.116597
H10   H     H_    0.506719 0.263107 0.762418 0.116397
H11   H     H_    0.406240 0.301633 0.099185 0.130036
H12   H     H_    0.436779 0.516087 0.759267 0.118139
H13   H     H_    0.413602 0.335759 0.254754 0.118141
H14   H     H_    0.452139 0.484626 0.612056 0.104460
H15   H     H_    0.589363 0.439199 0.077839 0.133350
H16   H     H_    0.320306 0.419712 0.817202 0.135657
H17   H     H_    0.129328 0.675398 0.445891 0.118257
H18   H     H_    0.866421 0.557029 0.602132 0.115300
H19   H     H_    0.793446 0.500723 0.300367 0.118752
H20   H     H_    0.202797 0.706637 0.740977 0.119089
H21   H     H_    0.213847 0.735217 0.610208 0.126569
H22   H     H_    0.781607 0.528426 0.445918 0.127542
H23   H     H_    0.856473 0.499249 0.704176 0.088477
H24   H     H_    0.143084 0.597732 0.318788 0.094556
H25   H     H_    0.549354 0.892834 0.915180 0.111226
H26   H     H_    0.440249 0.126348 0.280063 0.111697
H27   H     H_    0.735668 0.183315 0.555277 0.119850
H28   H     H_    0.447788 0.772123 0.404266 0.112306
H29   H     H_    0.700731 0.994730 0.700859 0.116172
H30   H     H_    0.470609 0.960003 0.257825 0.122677
H31   H     H_    0.631275 0.102119 0.389533 0.124573
H32   H     H_    0.578815 0.838431 0.555954 0.123541
H33   H     H_    0.551111 0.038048 0.037407 0.097817
H34   H     H_    0.479885 0.060635 0.146755 0.101086
H35   H     H_    0.717795 0.179026 0.171239 0.109503
H36   H     H_    0.343154 0.975864 0.986032 0.108479
H37   H     H_    0.883037 0.175626 0.182371 0.116825
H38   H     H_    0.166391 0.956069 0.958982 0.119807
H39   H     H_    0.768188 0.140518 0.831398 0.095884
H40   H     H_    0.310767 0.836189 0.148328 0.107370
H41   H     H_    0.777863 0.323063 0.681262 0.095736
H42   H     H_    0.296876 0.653683 0.294866 0.088800
H43   H     H_    0.248161 0.377246 0.047740 0.125631
H44   H     H_    0.683181 0.535196 0.876749 0.115357
H45   H     H_    0.184702 0.669839 0.854739 0.105206
H46   H     H_    0.808790 0.436836 0.169359 0.101953
H47   H     H_    0.831887 0.151516 0.975825 0.117165
H48   H     H_    0.163073 0.858514 0.102760 0.129829
H49   H     H_    0.844215 0.867289 0.036988 0.129418
H50   H     H_    0.164701 0.178306 0.116917 0.128728
N1    N     N_R   0.055660 0.348550 0.045620 -0.039125
N2    N     N_R   0.944340 0.651450 0.954380 -0.039522
N3    N     N_R   0.960830 0.507850 0.823700 -0.039726
N4    N     N_R   0.039170 0.492150 0.176300 -0.041358
N5    N     N_R   0.811290 0.303410 0.871650 -0.041938
N6    N     N_R   0.188710 0.696590 0.128350 -0.041296
N7    N     N_R   0.205200 0.552990 0.997670 -0.062464
N8    N     N_R   0.794800 0.447010 0.002330 -0.058423
N9    N     N_R   0.814800 0.361830 0.823700 -0.040512
N10   N     N_R   0.185200 0.638170 0.176300 -0.038021
N11   N     N_R   0.201680 0.494570 0.045620 -0.049885
N12   N     N_R   0.798320 0.505430 0.954380 -0.048016
N13   N     N_R   0.068420 0.560530 0.871650 -0.042950
N14   N     N_R   0.931580 0.439470 0.128350 -0.039572
N15   N     N_R   0.948070 0.295860 0.997670 -0.040655
N16   N     N_R   0.051930 0.704140 0.002330 -0.043655
Ni1   Ni    Ni4+2 0.119340 0.493420 0.109960 0.212408
Ni2   Ni    Ni4+2 0.880660 0.506580 0.890040 0.211668
Ni3   Ni    Ni4+2 0.872590 0.372590 0.000000 0.226853
Ni4   Ni    Ni4+2 0.127410 0.627410 0.000000 0.215403
C81   C     C_1   0.319186 0.610527 0.924756 -0.006325
N17   N     N_1   0.362832 0.667322 0.900363 -0.112324
C82   C     C_1   0.656274 0.305343 0.000800 -0.005325
N18   N     N_1   0.621761 0.228563 0.006979 -0.096279

loop_
_geom_bond_atom_site_label_1
_geom_bond_atom_site_label_2
_ccdc_geom_bond_type
C74   H44   S    
C63   C65   A    
C3    C42   S    
C31   H5    S    
C27   C29   A    
C34   C37   A    
C76   H46   S    
C7    C36   S    
C3    C23   A    
N6    N10   A    
C19   C31   A    
C18   H34   S    
C10   H50   S    
C17   H33   S    
C7    C73   A    
C73   N11   A    
C65   C69   A    
C6    C72   A    
N4    Ni1   S    
C64   H36   S    
C5    C53   S    
C35   C37   A    
C34   H16   S    
C19   H7    S    
C4    C24   A    
C78   C80   A    
C43   C52   A    
C4    C41   S    
C1    H1    S    
C58   H29   S    
C12   C79   S    
C16   H4    S    
C60   C62   A    
C17   C39   A    
C18   C40   A    
N7    N11   A    
C49   H18   S    
N16   Ni4   S    
C68   N8    A    
N13   Ni4   S    
C23   H23   S    
C49   C51   A    
C2    N2    A    
C81   N17   T    
C27   H11   S    
C3    C75   A    
C77   H47   S    
C59   H28   S    
C55   H31   S    
C45   H39   S    
C74   N12   A    
C78   H48   S    
C6    C54   S    
C33   H15   S    
N10   Ni1   S    
C29   H13   S    
C53   C60   A    
C10   C12   A    
C54   C59   A    
C77   C79   A    
N8    Ni3   S    
C15   C69   A    
N9    Ni2   S    
C45   N5    A    
C59   C61   A    
C23   N3    A    
N11   Ni1   S    
C67   C81   S    
C51   C52   A    
N2    Ni2   S    
N12   Ni2   S    
C16   C70   A    
C68   C82   S    
N8    N12   A    
C66   H38   S    
C44   H22   S    
C71   N9    A    
C73   H43   S    
N5    Ni3   S    
C5    C45   A    
C47   H20   S    
C24   H24   S    
C8    C35   S    
C64   C66   A    
N3    N13   A    
N5    N9    A    
C9    C14   A    
C43   H21   S    
N14   Ni3   S    
C25   C38   S    
C50   C52   A    
C57   H30   S    
C29   C31   A    
C32   H6    S    
C8    C74   A    
C22   H10   S    
C46   H40   S    
C28   H12   S    
N3    Ni2   S    
N1    Ni1   S    
C9    C11   A    
C15   C39   A    
C60   H27   S    
C75   N13   A    
C16   C40   A    
C76   N14   A    
C44   C51   A    
C12   C14   A    
C8    C68   A    
C55   C57   A    
C22   C26   A    
C1    C79   A    
C14   C69   S    
N7    Ni4   S    
C2    H2    S    
C77   N15   A    
C41   C50   A    
N4    N14   A    
C40   H26   S    
C20   C32   A    
C24   N4    A    
C39   H25   S    
C48   H19   S    
C21   C25   A    
C50   H17   S    
C6    C46   A    
C72   H42   S    
C71   H41   S    
C21   H9    S    
C20   C22   A    
C1    N1    A    
C10   C13   A    
N6    Ni4   S    
C53   C58   A    
C26   C37   S    
C9    H49   S    
C25   C27   A    
C26   C28   A    
C33   C38   A    
N2    N16   A    
C28   C30   A    
C63   H35   S    
C30   H14   S    
C17   C63   A    
C30   C32   A    
C11   C13   A    
C18   C64   A    
C66   C70   A    
C15   H3    S    
C20   H8    S    
C36   C38   A    
C33   C35   A    
C41   C48   A    
C56   C58   A    
N1    N15   A    
C34   C36   A    
C42   C47   A    
C61   C62   A    
C67   N7    A    
C4    C76   A    
C2    C80   A    
C11   C80   S    
C78   N16   A    
C42   C49   A    
C7    C67   A    
C46   N6    A    
C72   N10   A    
C55   C62   A    
C5    C71   A    
C13   C70   S    
C65   H37   S    
C56   C61   A    
C75   H45   S    
C82   N18   T    
C43   C47   A    
C56   H32   S    
N15   Ni3   S    
C44   C48   A    
C19   C21   A    
C54   C57   A    
