data_mof_unit_29325.cif
_audit_creation_date              2013-03-05T15:52:19-0500
_audit_creation_method            fapswitch 2.2
_symmetry_space_group_name_H-M    P1
_symmetry_Int_Tables_number       1
_space_group_crystal_system       triclinic
_cell_length_a                    10.666705
_cell_length_b                    10.729915
_cell_length_c                    17.083364
_cell_angle_alpha                 80.616087
_cell_angle_beta                  99.289857
_cell_angle_gamma                 118.653516
_cell_volume                      1684.98826213

loop_
_atom_site_label
_atom_site_type_symbol
_atom_site_description
_atom_site_fract_x
_atom_site_fract_y
_atom_site_fract_z
_atom_type_partial_charge
O1    O     O_R   0.754020 0.497590 0.609930 -0.492148
O2    O     O_R   0.481420 0.271390 0.600630 -0.492559
C1    C     C_R   0.361072 0.229105 0.627461 0.548291
O3    O     O_R   0.263810 0.254550 0.589590 -0.521964
O4    O     O_R   0.300820 0.531200 0.560890 -0.504604
C2    C     C_R   0.369859 0.654308 0.586314 0.550158
O5    O     O_R   0.491480 0.744020 0.564270 -0.508837
O6    O     O_R   0.726290 0.693800 0.583010 -0.503149
C3    C     C_R   0.776927 0.618902 0.626851 0.549920
O7    O     O_R   0.747830 0.500190 0.434090 -0.507999
O8    O     O_R   0.475680 0.273800 0.437630 -0.433400
C4    C     C_R   0.350694 0.224693 0.400375 0.572566
O9    O     O_R   0.257620 0.257160 0.413750 -0.552346
O10   O     O_R   0.295080 0.533620 0.397890 -0.523010
C5    C     C_R   0.365930 0.653645 0.360566 0.555116
O11   O     O_R   0.485280 0.746620 0.388440 -0.504606
O12   O     O_R   0.720550 0.696220 0.420010 -0.517958
C6    C     C_R   0.773014 0.623557 0.400450 0.545525
Cr1   Cr    Cr6+3 0.608440 0.389080 0.519680 1.063536
Cr2   Cr    Cr6+3 0.288640 0.400090 0.490760 0.986114
Cr3   Cr    Cr6+3 0.602940 0.710800 0.489510 1.021843
O13   O     O_3   0.500010 0.499990 0.499980 -0.259147
C7    C     C_R   0.281992 0.734311 0.799415 -0.022080
C8    C     C_R   0.186122 0.607598 0.765181 0.066615
C9    C     C_R   0.204107 0.585516 0.691058 -0.017631
C10   C     C_R   0.391486 0.827830 0.674628 -0.143390
C11   C     C_R   0.375272 0.849353 0.750258 -0.162154
C12   C     C_3   0.143021 0.455269 0.796602 0.113136
C13   C     C_3   0.163892 0.431866 0.715365 -0.169420
C14   C     C_R   0.315871 0.690325 0.648091 -0.003701
H1    H     H_    0.473788 0.914840 0.641054 0.155386
H2    H     H_    0.443492 0.952458 0.772471 0.150252
H3    H     H_    0.218011 0.440082 0.846099 0.124591
H4    H     H_    0.255287 0.408640 0.717079 0.109820
H5    H     H_    0.063139 0.359648 0.681518 0.184434
C15   C     C_1   0.823511 0.656941 0.705936 -0.014402
C16   C     C_1   0.851584 0.684931 0.773598 -0.021767
C17   C     C_1   0.344911 0.187043 0.709679 -0.047388
C18   C     C_1   0.320628 0.159191 0.778053 -0.050833
C19   C     C_1   0.337065 0.663318 0.277539 -0.067222
C20   C     C_1   0.324307 0.672840 0.206856 -0.078519
C21   C     C_R   0.866026 0.683667 0.166290 0.028068
C22   C     C_R   0.934143 0.624110 0.225689 0.033526
C23   C     C_R   0.919397 0.617821 0.304550 0.008445
C24   C     C_R   0.789727 0.754914 0.268129 -0.165555
C25   C     C_R   0.806140 0.762013 0.188164 -0.143354
C26   C     C_3   0.931761 0.481967 0.235851 -0.254393
C27   C     C_3   0.916059 0.475234 0.323225 -0.274678
C28   C     C_R   0.836583 0.672365 0.326270 0.023445
H6    H     H_    0.727408 0.801801 0.282834 0.139225
H7    H     H_    0.764476 0.820569 0.143607 0.154854
H8    H     H_    0.035143 0.489316 0.225471 0.149539
H9    H     H_    0.835881 0.400729 0.203562 0.168450
H10   H     H_    0.811496 0.388019 0.341054 0.190289
H11   H     H_    0.011439 0.481080 0.363169 0.144234
C29   C     C_R   0.319083 0.155167 0.163955 -0.052666
C30   C     C_R   0.201730 0.141795 0.196762 0.049609
C31   C     C_R   0.201117 0.140446 0.276719 -0.049812
C32   C     C_R   0.437548 0.151595 0.298781 0.244319
C33   C     C_R   0.438888 0.157868 0.215117 0.102343
C34   C     C_3   0.122609 0.227251 0.173360 0.129369
C35   C     C_3   0.114927 0.222140 0.262086 0.046518
C36   C     C_R   0.324021 0.158388 0.327932 -0.000766
H12   H     H_    0.189197 0.335615 0.143899 0.089418
H13   H     H_    0.170169 0.330814 0.282544 0.137884
O14   O     O_R   0.163320 0.092900 0.874450 -0.498604
O15   O     O_R   0.934650 0.822080 0.882840 -0.492959
C37   C     C_R   0.892561 0.702298 0.855699 0.545244
O16   O     O_R   0.915520 0.604140 0.893670 -0.512700
O17   O     O_R   0.191760 0.638110 0.923230 -0.513893
C38   C     C_R   0.282463 0.749858 0.882861 0.560980
O18   O     O_R   0.406180 0.826930 0.920660 -0.505602
O19   O     O_R   0.358620 0.062870 0.901950 -0.519711
C39   C     C_R   0.284406 0.114136 0.857621 0.532792
O20   O     O_R   0.163910 0.085460 0.050210 -0.459511
O21   O     O_R   0.935200 0.815170 0.045770 -0.477263
C40   C     C_R   0.892195 0.693168 0.085498 0.544503
O22   O     O_R   0.916120 0.596690 0.069430 -0.529590
O23   O     O_R   0.192310 0.631200 0.086170 -0.504314
C41   C     C_R   0.313094 0.700806 0.123798 0.552370
O24   O     O_R   0.406770 0.819480 0.096420 -0.523796
O25   O     O_R   0.359170 0.055960 0.064880 -0.498892
C42   C     C_R   0.287045 0.110011 0.084552 0.551091
Cr4   Cr    Cr6+3 0.052530 0.947560 0.964210 1.071332
Cr5   Cr    Cr6+3 0.059970 0.626800 0.992920 1.004111
Cr6   Cr    Cr6+3 0.373320 0.938440 0.995370 1.007874
O26   O     O_3   0.161940 0.837600 0.984160 -0.280337
O27   O     O_3   0.549729 0.152477 0.352684 -0.686266
H14   H     H_    0.623422 0.151139 0.325271 0.333624
N1    N     N_2   0.567814 0.191570 0.182420 -0.539853
H15   H     H_    0.587213 0.257218 0.129654 0.254365
C43   C     C_3   0.609350 0.079970 0.187913 -0.279523
H16   H     H_    0.718880 0.117240 0.218735 0.148312
H17   H     H_    0.612795 0.057781 0.127321 0.181784
H18   H     H_    0.535025 0.980218 0.221447 0.178534
O28   O     O_3   0.989852 0.150000 0.130430 -0.674262
H19   H     H_    0.945273 0.214459 0.118050 0.317757
N2    N     N_2   0.969484 0.136237 0.285197 -0.517118
H20   H     H_    0.914714 0.037035 0.264627 0.290710
C44   C     C_3   0.948476 0.133537 0.366990 -0.281071
H21   H     H_    0.831821 0.084977 0.372989 0.128645
H22   H     H_    0.000472 0.243347 0.385297 0.166878
H23   H     H_    0.991988 0.067581 0.406709 0.172135
O29   O     O_3   0.998200 0.381328 0.811373 -0.671163
H24   H     H_    0.996030 0.390380 0.867924 0.348008

loop_
_geom_bond_atom_site_label_1
_geom_bond_atom_site_label_2
_geom_bond_distance
_ccdc_geom_bond_type
C23   C28   1.390312 A    
C31   C35   1.517666 S    
C27   H11   1.110530 S    
O11   Cr3   2.061706 S    
O19   C39   1.261326 A    
Cr4   O26   1.982727 S    
O21   Cr4   1.933428 S    
C20   C41   1.399451 S    
C30   C31   1.364685 A    
C34   O28   1.402655 S    
O4    Cr2   1.937879 S    
C40   O22   1.257276 A    
C27   H10   1.108264 S    
C4    O9    1.260989 A    
O8    Cr1   1.935148 S    
C10   C11   1.400105 A    
C12   C13   1.518420 S    
C17   C18   1.195989 T    
O20   Cr4   2.053968 S    
C5    O11   1.258527 A    
O14   C39   1.272423 A    
C16   C37   1.414976 S    
C31   C36   1.401333 A    
C29   C30   1.389123 A    
C21   C25   1.396020 A    
C18   C39   1.416614 S    
C32   O27   1.384248 S    
C43   H16   1.106406 S    
C35   N2    1.456027 S    
C1    C17   1.415284 S    
C37   O16   1.250327 A    
C3    C15   1.416817 S    
C7    C8    1.403258 A    
O17   C38   1.297150 A    
C7    C11   1.404559 A    
O24   Cr6   2.063000 S    
O9    Cr2   2.054997 S    
C26   H9    1.108940 S    
C11   H2    1.083105 S    
C32   C33   1.421911 A    
Cr3   O13   1.975781 S    
C43   H17   1.109289 S    
O29   H24   0.991585 S    
O6    Cr3   1.942272 S    
Cr5   O26   1.975924 S    
C9    C13   1.493493 S    
O19   Cr6   1.944034 S    
O1    Cr1   2.054881 S    
O15   C37   1.281467 A    
C7    C38   1.460975 S    
Cr1   O13   1.982657 S    
O1    C3    1.277683 A    
O21   C40   1.272641 A    
C4    C36   1.448451 S    
Cr6   O26   1.969697 S    
O6    C3    1.260131 A    
O25   Cr6   1.936905 S    
C25   H7    1.083642 S    
O25   C42   1.271259 A    
C44   H23   1.110589 S    
O12   Cr3   1.933289 S    
C29   C33   1.417731 A    
C34   H12   1.114588 S    
C22   C23   1.368532 A    
O10   Cr2   1.942716 S    
C12   O29   1.401658 S    
N1    C43   1.448358 S    
C26   C27   1.514992 S    
C24   C28   1.413601 A    
O7    Cr1   2.050221 S    
O28   H19   0.992192 S    
C44   H22   1.109571 S    
O12   C6    1.263523 A    
C8    C9    1.384291 A    
C2    O5    1.262261 A    
O22   Cr5   2.049766 S    
C19   C20   1.186194 T    
C2    C14   1.461995 S    
Cr2   O13   1.969721 S    
C12   H3    1.114939 S    
C10   C14   1.411290 A    
N2    C44   1.444014 S    
C21   C22   1.400634 A    
C1    O3    1.251709 A    
O23   Cr5   1.940938 S    
O16   Cr5   2.059052 S    
C29   C42   1.448249 S    
C9    C14   1.397250 A    
C15   C16   1.196315 T    
C35   H13   1.111983 S    
O2    Cr1   1.933238 S    
C8    C12   1.497980 S    
C41   O24   1.255021 A    
O18   Cr6   2.056208 S    
O8    C4    1.273499 A    
C30   C34   1.492163 S    
C26   H8    1.108551 S    
C33   N1    1.428014 S    
C13   H5    1.112024 S    
C32   C36   1.418073 A    
O2    C1    1.275722 A    
C38   O18   1.301829 A    
O5    Cr3   2.053482 S    
O20   C42   1.268271 A    
N1    H15   1.031950 S    
O4    C2    1.275439 A    
O15   Cr4   1.936117 S    
C24   H6    1.083479 S    
O7    C6    1.270985 A    
C13   H4    1.111196 S    
C44   H21   1.110090 S    
C43   H18   1.111396 S    
C34   C35   1.521803 S    
C5    C19   1.399659 S    
O14   Cr4   2.053708 S    
O23   C41   1.263828 A    
O3    Cr2   2.060897 S    
C24   C25   1.390359 A    
C10   H1    1.083152 S    
O27   H14   0.984515 S    
C21   C40   1.429846 S    
N2    H20   1.028158 S    
O10   C5    1.261214 A    
O17   Cr5   1.933367 S    
C22   C26   1.494954 S    
C23   C27   1.495332 S    
C6    C28   1.435401 S    
