data_mof_unit_67820.cif
_audit_creation_date              2012-12-10T16:54:00-0500
_audit_creation_method            fapswitch 2.2
_symmetry_space_group_name_H-M    P1
_symmetry_Int_Tables_number       1
_space_group_crystal_system       triclinic
_cell_length_a                    7.820894
_cell_length_b                    8.653599
_cell_length_c                    10.779962
_cell_angle_alpha                 91.099275
_cell_angle_beta                  85.814663
_cell_angle_gamma                 93.643218
_cell_volume                      726.082073086

loop_
_atom_site_label
_atom_site_type_symbol
_atom_type_description
_atom_site_fract_x
_atom_site_fract_y
_atom_site_fract_z
_atom_type_partial_charge
C1    C     C_R   0.544667 0.793256 0.484636 0.933340
C2    C     C_3   0.346908 0.601429 0.936510 -0.123261
C3    C     C_3   0.334986 0.584435 0.079988 -0.197493
C4    C     C_3   0.493864 0.344196 0.929671 0.123915
C5    C     C_3   0.683967 0.612974 0.920121 0.195298
C6    C     C_3   0.511566 0.517171 0.878599 -0.067415
C7    C     C_3   0.845194 0.614279 0.127436 -0.813234
C8    C     C_3   0.611126 0.226635 0.861100 -0.850675
C9    C     C_3   0.746174 0.012698 0.403944 -0.803895
C10   C     C_1   0.257134 0.989679 0.451599 0.248857
C11   C     C_1   0.988576 0.675200 0.587363 0.426474
C12   C     C_3   0.508783 0.526845 0.122972 -0.025586
C13   C     C_3   0.313547 0.764196 0.885429 -0.854067
C14   C     C_1   0.272541 0.723244 0.146187 0.207710
C15   C     C_1   0.317642 0.272334 0.912639 0.185845
C16   C     C_3   0.429248 0.225487 0.149198 -0.873932
C17   C     C_3   0.856122 0.536001 0.876466 -0.900075
C18   C     C_1   0.699325 0.763733 0.856150 0.207412
C19   C     C_3   0.644265 0.812102 0.110559 -0.892194
C20   C     C_3   0.529808 0.355276 0.070405 -0.101392
C21   C     C_3   0.669456 0.639742 0.069209 0.302739
C22   C     C_2   0.568090 0.954452 0.455034 -0.065340
C23   C     C_2   0.431481 0.044414 0.470476 -0.233073
C24   C     C_R   0.504143 0.508389 0.741659 0.906625
C25   C     C_R   0.455033 0.206190 0.493875 0.912815
C26   C     C_R   0.502626 0.517875 0.259685 0.895900
H1    H     H_    0.230502 0.535160 0.907001 0.194547
H2    H     H_    0.749448 0.250013 0.867889 0.249438
H3    H     H_    0.816840 0.917662 0.358068 0.243790
H4    H     H_    0.738398 0.098532 0.329570 0.239976
H5    H     H_    0.820571 0.063122 0.480371 0.278819
H6    H     H_    0.182910 0.796998 0.918249 0.237132
H7    H     H_    0.400154 0.860083 0.914293 0.242186
H8    H     H_    0.319185 0.765564 0.782617 0.261208
H9    H     H_    0.292521 0.250362 0.169384 0.248933
H10   H     H_    0.434344 0.111823 0.100599 0.250840
H11   H     H_    0.488352 0.212350 0.238223 0.236963
H12   H     H_    0.665976 0.330120 0.077362 0.192481
H13   H     H_    0.887855 0.443288 0.937729 0.227474
H14   H     H_    0.868298 0.485166 0.782934 0.270404
H15   H     H_    0.965544 0.623398 0.875012 0.223877
H16   H     H_    0.545194 0.867251 0.065007 0.233496
H17   H     H_    0.610176 0.819923 0.211886 0.228405
H18   H     H_    0.763256 0.887495 0.089951 0.249492
H19   H     H_    0.009719 0.369218 0.418718 0.188511
H20   H     H_    0.232537 0.492591 0.104130 0.139694
H21   H     H_    0.852565 0.665862 0.222356 0.265325
H22   H     H_    0.875204 0.491523 0.133892 0.219971
H23   H     H_    0.952665 0.677972 0.074368 0.232859
H24   H     H_    0.582316 0.111802 0.903941 0.239076
H25   H     H_    0.586237 0.212996 0.761240 0.251658
N1    N     N_2   0.950330 0.457950 0.465890 -0.194672
N2    N     N_2   0.049670 0.542050 0.534110 -0.153002
N3    N     N_1   0.117762 0.948858 0.434157 -0.210697
N4    N     N_1   0.943238 0.788883 0.632270 -0.210147
N5    N     N_1   0.222642 0.832842 0.195740 -0.216317
N6    N     N_1   0.181727 0.216156 0.899280 -0.223952
N7    N     N_1   0.710142 0.881934 0.807109 -0.223403
O1    O     O_R   0.389250 0.738570 0.508370 -0.642071
O2    O     O_R   0.678390 0.711620 0.486510 -0.623625
O3    O     O_R   0.355430 0.513500 0.696140 -0.632268
O4    O     O_R   0.644580 0.486550 0.674270 -0.627968
O5    O     O_R   0.321610 0.288380 0.513490 -0.620127
O6    O     O_R   0.610750 0.261430 0.491630 -0.612350
O7    O     O_R   0.355420 0.513450 0.325730 -0.634395
O8    O     O_R   0.644570 0.486500 0.303860 -0.639249
Zn1   Zn    Zn3+2 0.306940 0.517990 0.514600 0.944575
Zn2   Zn    Zn3+2 0.693060 0.482010 0.485400 0.927816

loop_
_geom_bond_atom_site_label_1
_geom_bond_atom_site_label_2
_ccdc_geom_bond_type
O8    Zn2   S    
C13   H7    S    
C24   O3    A    
C5    C18   S    
O4    Zn2   S    
C10   C23   S    
C20   H12   S    
O3    Zn1   S    
C13   H6    S    
C14   N5    T    
N1    Zn2   S    
C19   H16   S    
C9    H3    S    
C16   H11   S    
C4    C8    S    
C2    H1    S    
C6    C24   S    
C7    H22   S    
C12   C20   S    
C4    C15   S    
C1    O1    A    
C2    C3    S    
C19   H18   S    
C5    C21   S    
C1    C22   S    
C16   H10   S    
C15   N6    T    
C8    H25   S    
C7    H23   S    
C2    C6    S    
C3    C14   S    
C26   O8    A    
C9    H4    S    
N2    Zn1   S    
C17   H14   S    
O6    Zn2   S    
C16   C20   S    
C19   C21   S    
C19   H17   S    
O5    Zn1   S    
C23   C25   S    
C16   H9    S    
C17   H13   S    
C5    C6    S    
C10   N3    T    
C17   H15   S    
C9    C22   S    
C5    C17   S    
C9    H5    S    
C4    C20   S    
C8    H24   S    
C13   H8    S    
C11   N4    T    
N1    N2    D    
O2    Zn2   S    
C8    H2    S    
C4    C6    S    
C25   O5    A    
C1    O2    A    
C2    C13   S    
C22   C23   D    
C24   O4    A    
C3    C12   S    
C3    H20   S    
H19   N1    S    
O1    Zn1   S    
C7    C21   S    
C26   O7    A    
C12   C21   S    
C18   N7    T    
C7    H21   S    
C12   C26   S    
O7    Zn1   S    
C25   O6    A    
C11   N2    S    
