data_mof_unit_18296.cif
_audit_creation_date              2012-12-10T20:27:55-0500
_audit_creation_method            fapswitch 2.2
_symmetry_space_group_name_H-M    P1
_symmetry_Int_Tables_number       1
_space_group_crystal_system       triclinic
_cell_length_a                    12.784823
_cell_length_b                    10.706333
_cell_length_c                    9.97485
_cell_angle_alpha                 90.035714
_cell_angle_beta                  96.855834
_cell_angle_gamma                 91.123455
_cell_volume                      1355.31392565

loop_
_atom_site_label
_atom_site_type_symbol
_atom_type_description
_atom_site_fract_x
_atom_site_fract_y
_atom_site_fract_z
_atom_type_partial_charge
C1    C     C_R   0.502759 0.260727 0.500498 0.920137
C2    C     C_R   0.026368 0.550546 0.545204 0.026649
C3    C     C_R   0.974575 0.452448 0.465284 0.130374
C4    C     C_R   0.868212 0.430044 0.467678 -0.148429
C5    C     C_R   0.864425 0.592667 0.636298 -0.150447
C6    C     C_R   0.971339 0.614290 0.637057 -0.140884
C7    C     C_R   0.455408 0.063499 0.598325 0.054330
C8    C     C_R   0.502045 0.128605 0.499455 -0.234630
C9    C     C_R   0.540212 0.064691 0.393221 0.671327
C10   C     C_R   0.534860 0.936254 0.390213 -0.286315
C11   C     C_R   0.498702 0.871566 0.498038 -0.208759
C12   C     C_R   0.298673 0.500833 0.473475 0.959900
C13   C     C_R   0.455184 0.935729 0.598633 0.263869
C14   C     C_3   0.479385 0.928951 0.748657 -0.409824
C15   C     C_3   0.479406 0.070419 0.748654 -0.459690
C16   C     C_R   0.408429 0.486809 0.055080 -0.005800
C17   C     C_R   0.587983 0.537236 0.081492 0.350919
C18   C     C_R   0.589091 0.523927 0.939762 0.593167
C19   C     C_R   0.407846 0.494793 0.914774 0.059311
C20   C     C_3   0.318609 0.403991 0.887143 -0.453044
C21   C     C_3   0.320595 0.390059 0.040232 0.298304
C22   C     C_R   0.501612 0.739486 0.500189 0.987897
C23   C     C_R   0.701241 0.499073 0.526978 0.864448
C24   C     C_R   0.813157 0.505339 0.546315 -0.044339
C25   C     C_R   0.186251 0.497888 0.456834 -0.158421
C26   C     C_R   0.028613 0.380401 0.380844 -0.123695
C27   C     C_R   0.135141 0.401186 0.379321 -0.251909
C28   C     C_R   0.131388 0.580364 0.531252 0.308540
H1    H     H_    0.826957 0.358288 0.403641 0.176593
H2    H     H_    0.558177 0.889689 0.781637 0.211703
H3    H     H_    0.413037 0.109558 0.796395 0.252194
H4    H     H_    0.558043 0.113467 0.782406 0.229990
H5    H     H_    0.246214 0.449443 0.839121 0.178809
H6    H     H_    0.341221 0.320306 0.832074 0.230861
H7    H     H_    0.247489 0.422710 0.078110 0.092359
H8    H     H_    0.821032 0.647854 0.701250 0.206772
H9    H     H_    0.989319 0.305548 0.319848 0.181198
H10   H     H_    0.009301 0.680864 0.709288 0.195564
H11   H     H_    0.178415 0.339490 0.320936 0.211438
H12   H     H_    0.565014 0.888425 0.307964 0.240445
H13   H     H_    0.413294 0.886758 0.797100 0.268500
N1    N     N_R   0.499290 0.499140 0.142710 -0.155152
N2    N     N_R   0.499290 0.499180 0.857070 -0.168108
O1    O     O_R   0.500010 0.316790 0.614690 -0.644092
O2    O     O_R   0.500000 0.316760 0.385350 -0.503560
O3    O     O_R   0.346360 0.499990 0.595720 -0.591434
O4    O     O_R   0.346350 0.499960 0.366370 -0.622354
O5    O     O_R   0.500000 0.683240 0.614650 -0.599146
O6    O     O_R   0.499990 0.683210 0.385310 -0.577602
O7    O     O_R   0.653650 0.500040 0.633630 -0.564450
O8    O     O_R   0.653640 0.500010 0.404280 -0.543494
Zn1   Zn    Zn3+2 0.500010 0.500020 0.653130 1.043043
Zn2   Zn    Zn3+2 0.499990 0.499980 0.346870 1.104894
S1    S     S_3+6 0.701867 0.618134 0.162268 0.090152
O9    O     O_2   0.784268 0.523670 0.205195 -0.285653
O10   O     O_2   0.745120 0.704535 0.062570 -0.241486
O11   O     O_3   0.680073 0.707272 0.293752 -0.569832
H14   H     H_    0.750795 0.737097 0.333857 0.373294
F1    F     F_    0.680159 0.540233 0.884695 -0.603248
S2    S     S_3+6 0.355482 0.234574 0.091051 0.042927
O12   O     O_2   0.336493 0.213861 0.234944 -0.286386
O13   O     O_2   0.287235 0.143615 0.003129 -0.304654
O14   O     O_3   0.482666 0.211732 0.072326 -0.510143
H15   H     H_    0.487455 0.121070 0.054813 0.397092
S3    S     S_3+6 0.191254 0.725821 0.589420 0.026948
O15   O     O_2   0.267970 0.767234 0.494939 -0.294658
O16   O     O_2   0.111178 0.826454 0.592433 -0.273805
O17   O     O_3   0.256137 0.708186 0.744792 -0.550138
H16   H     H_    0.201198 0.684302 0.802544 0.340319
F2    F     F_    0.590822 0.125197 0.299552 -0.618688

loop_
_geom_bond_atom_site_label_1
_geom_bond_atom_site_label_2
_ccdc_geom_bond_type
C8    C9    A    
C4    H1    S    
O7    Zn1   S    
C23   C24   S    
C6    H10   S    
C26   H9    S    
C15   H3    S    
C16   C21   S    
C21   H7    S    
C16   N1    A    
C25   C27   A    
C1    C8    S    
C9    C10   A    
S1    O9    D    
C11   C22   S    
C23   O8    A    
C19   C20   S    
C7    C13   A    
C12   C25   S    
O4    Zn2   S    
S3    O17   S    
C20   H6    S    
O1    Zn1   S    
C7    C15   S    
C17   C18   A    
C26   C27   A    
O2    Zn2   S    
C7    C8    A    
C18   N2    A    
C20   C21   S    
C25   C28   A    
C11   C13   A    
C1    O2    A    
O11   H14   S    
C2    C6    A    
C5    C24   A    
C14   H13   S    
C14   H2    S    
C12   O4    A    
O6    Zn2   S    
C20   H5    S    
C10   H12   S    
C19   N2    A    
C22   O5    A    
C2    C3    A    
C22   O6    A    
N1    Zn2   S    
C16   C19   A    
C5    C6    A    
C4    C24   A    
S1    O10   D    
N2    Zn1   S    
S2    O14   S    
C10   C11   A    
O14   H15   S    
C5    H8    S    
O3    Zn1   S    
C18   F1    S    
O5    Zn1   S    
C9    F2    S    
C21   S2    S    
C12   O3    A    
S3    O15   D    
C17   N1    A    
O17   H16   S    
C23   O7    A    
C2    C28   A    
C1    O1    A    
C13   C14   S    
O8    Zn2   S    
C14   C15   S    
C28   S3    S    
C17   S1    S    
C3    C26   A    
S2    O13   D    
C3    C4    A    
C27   H11   S    
S2    O12   D    
S3    O16   D    
S1    O11   S    
C15   H4    S    
