data_mof_unit_10210.cif
_audit_creation_date              2012-12-11T17:47:31-0500
_audit_creation_method            fapswitch 2.2
_symmetry_space_group_name_H-M    P1
_symmetry_Int_Tables_number       1
_space_group_crystal_system       triclinic
_cell_length_a                    14.894994
_cell_length_b                    14.952457
_cell_length_c                    15.188974
_cell_angle_alpha                 110.717018
_cell_angle_beta                  108.783165
_cell_angle_gamma                 108.684774
_cell_volume                      2610.64651462

loop_
_atom_site_label
_atom_site_type_symbol
_atom_type_description
_atom_site_fract_x
_atom_site_fract_y
_atom_site_fract_z
_atom_type_partial_charge
C1    C     C_R   0.906741 0.194298 0.991545 -0.143990
C2    C     C_R   0.829879 0.960138 0.917290 -0.209549
C3    C     C_R   0.079433 0.034387 0.685617 -0.222286
C4    C     C_R   0.857314 0.963262 0.214537 -0.215593
C5    C     C_R   0.004549 0.971999 0.705783 0.181424
C6    C     C_R   0.889648 0.956364 0.136183 0.197419
C7    C     C_R   0.676635 0.305506 0.204564 -0.114422
C8    C     C_R   0.382091 0.760290 0.900438 -0.120755
C9    C     C_R   0.781801 0.375026 0.292717 -0.116213
C10   C     C_R   0.303934 0.666807 0.799368 -0.155776
C11   C     C_R   0.852862 0.333678 0.316859 0.120407
C12   C     C_R   0.028118 0.754271 0.941455 -0.122488
C13   C     C_R   0.246983 0.676931 0.712934 0.116739
C14   C     C_R   0.817174 0.221963 0.252072 -0.205927
C15   C     C_R   0.275671 0.782691 0.727731 -0.157983
C16   C     C_R   0.299137 0.802033 0.209652 -0.143715
C17   C     C_R   0.686032 0.249857 0.777371 -0.134523
C18   C     C_R   0.712121 0.152805 0.163308 -0.115219
C19   C     C_R   0.357412 0.875865 0.827690 -0.110390
C20   C     C_R   0.641797 0.194627 0.139566 -0.111403
C21   C     C_R   0.409806 0.864624 0.914345 -0.094688
C22   C     C_R   0.977633 0.408935 0.505152 -0.245765
C23   C     C_R   0.304512 0.861435 0.306498 0.064852
C24   C     C_R   0.142970 0.571787 0.513099 -0.246218
C25   C     C_R   0.067803 0.495260 0.604269 0.067723
C26   C     C_R   0.048396 0.489733 0.415567 0.075647
C27   C     C_R   0.152752 0.578707 0.609794 0.026795
C28   C     C_R   0.963982 0.407920 0.411373 0.011323
C29   C     C_R   0.031633 0.003474 0.813788 0.046102
C30   C     C_R   0.813009 0.879635 0.026145 0.011246
C31   C     C_R   0.216362 0.133837 0.873823 -0.151665
C32   C     C_R   0.672814 0.826240 0.073863 -0.091853
C33   C     C_R   0.090136 0.950135 0.379119 -0.127498
C34   C     C_R   0.679114 0.230499 0.678037 0.039759
C35   C     C_R   0.849583 0.073152 0.577938 -0.140918
C36   C     C_R   0.194751 0.006708 0.396133 -0.144249
C37   C     C_R   0.746026 0.055114 0.560065 -0.121126
C38   C     C_R   0.284233 0.020425 0.479105 0.121570
C39   C     C_R   0.687382 0.080065 0.488457 0.103082
C40   C     C_R   0.224285 0.407401 0.972177 -0.134015
C41   C     C_R   0.789037 0.590647 0.096714 -0.144325
C42   C     C_R   0.269445 0.986694 0.551180 -0.181692
C43   C     C_R   0.727238 0.108785 0.424779 -0.181435
C44   C     C_R   0.164538 0.929235 0.532938 -0.139826
C45   C     C_R   0.325474 0.499048 0.045888 0.058987
C46   C     C_R   0.827920 0.118793 0.437982 -0.136494
C47   C     C_R   0.074749 0.909407 0.445765 -0.134485
C48   C     C_R   0.889790 0.102357 0.515395 -0.129468
C49   C     C_R   0.481810 0.136836 0.564493 -0.247402
C50   C     C_R   0.492675 0.996776 0.393885 -0.240214
C51   C     C_R   0.582531 0.152642 0.572697 0.075013
C52   C     C_R   0.393109 0.971653 0.391380 0.066601
C53   C     C_R   0.587548 0.081986 0.484706 0.021689
C54   C     C_R   0.386469 0.045017 0.475608 0.023540
C55   C     C_R   0.185484 0.113543 0.768742 -0.115942
C56   C     C_R   0.699542 0.498829 0.068543 0.047460
C57   C     C_R   0.749113 0.897944 0.183244 -0.150316
C58   C     C_R   0.841806 0.882917 0.943109 0.058944
C59   C     C_R   0.949507 0.956698 0.841789 0.055442
C60   C     C_R   0.139231 0.080754 0.896949 -0.176037
C61   C     C_R   0.704360 0.816391 0.995503 -0.162416
C62   C     C_R   0.902927 0.836509 0.910263 0.050073
C63   C     C_R   0.900582 0.012450 0.887715 0.046392
C64   C     C_R   0.053449 0.590501 0.313853 -0.143198
C65   C     C_R   0.004693 0.409411 0.701581 -0.171717
C66   C     C_3   0.504600 0.396318 0.050106 -0.313244
C67   C     C_R   0.033658 0.496449 0.320578 0.048751
C68   C     C_3   0.529559 0.597904 0.096717 -0.214535
C69   C     C_3   0.433168 0.420684 0.972638 -0.228594
C70   C     C_3   0.601565 0.573730 0.174715 -0.234419
C71   C     C_3   0.427280 0.497974 0.067326 0.123288
C72   C     C_3   0.606144 0.496691 0.079152 0.078177
C73   C     C_3   0.497662 0.474123 0.143637 0.258938
C74   C     C_3   0.534463 0.519886 0.003165 0.279903
C75   C     C_R   0.315192 0.591521 0.063360 -0.144177
C76   C     C_R   0.699917 0.408220 0.004745 -0.147238
C77   C     C_R   0.971654 0.406568 0.218167 -0.098447
C78   C     C_R   0.057011 0.500309 0.696552 0.057512
C79   C     C_R   0.085694 0.591723 0.788299 -0.136193
C80   C     C_R   0.212500 0.797197 0.304662 -0.139696
C81   C     C_R   0.782898 0.269407 0.693322 -0.114102
C82   C     C_R   0.996697 0.195604 0.900185 -0.139188
C83   C     C_R   0.931559 0.748825 0.028190 -0.155737
C84   C     C_R   0.935681 0.129872 0.926515 0.071262
C85   C     C_R   0.949595 0.779971 0.956783 0.064174
C86   C     C_3   0.903031 0.778639 0.573377 -0.935399
C87   C     C_3   0.034946 0.142074 0.219663 -0.929191
C88   C     C_3   0.472681 0.532092 0.301572 -0.919019
C89   C     C_R   0.937571 0.861454 0.842574 -0.202166
C90   C     C_3   0.468473 0.545023 0.849892 -0.973285
H1    H     H_    0.847842 0.167224 0.016172 0.093828
H2    H     H_    0.418943 0.751848 0.968748 0.092171
H3    H     H_    0.807897 0.460885 0.342243 0.110244
H4    H     H_    0.282511 0.586465 0.790095 0.126547
H5    H     H_    0.871873 0.189588 0.268183 0.125822
H6    H     H_    0.232663 0.793333 0.663008 0.105294
H7    H     H_    0.685568 0.067087 0.112763 0.123074
H8    H     H_    0.378177 0.956790 0.838656 0.104749
H9    H     H_    0.909746 0.348884 0.501393 0.139775
H10   H     H_    0.206655 0.633678 0.513994 0.131008
H11   H     H_    0.348351 0.831761 0.176724 0.090415
H12   H     H_    0.065460 0.769530 0.894686 0.092504
H13   H     H_    0.620164 0.229819 0.795292 0.095336
H14   H     H_    0.162243 0.101921 0.979851 0.134726
H15   H     H_    0.643708 0.762780 0.910861 0.140213
H16   H     H_    0.993124 0.862327 0.429517 0.110896
H17   H     H_    0.969896 0.115231 0.528810 0.109373
H18   H     H_    0.020434 0.931674 0.310517 0.110476
H19   H     H_    0.899759 0.068478 0.643158 0.107325
H20   H     H_    0.205418 0.030786 0.339334 0.109501
H21   H     H_    0.716289 0.032626 0.609620 0.118206
H22   H     H_    0.337554 0.995457 0.614781 0.115122
H23   H     H_    0.055164 0.021314 0.605386 0.135531
H24   H     H_    0.682373 0.126915 0.368037 0.132838
H25   H     H_    0.152674 0.897072 0.584284 0.128558
H26   H     H_    0.860191 0.143267 0.391378 0.120669
H27   H     H_    0.477749 0.191092 0.631147 0.127760
H28   H     H_    0.499802 0.940993 0.331219 0.125144
H29   H     H_    0.975369 0.820772 0.807361 0.119533
H30   H     H_    0.782158 0.993790 0.942154 0.121339
H31   H     H_    0.495580 0.314156 0.031166 0.121518
H32   H     H_    0.538925 0.680279 0.118471 0.109485
H33   H     H_    0.204637 0.322621 0.937628 0.121317
H34   H     H_    0.915453 0.020431 0.299385 0.125943
H35   H     H_    0.816132 0.674802 0.153294 0.107506
H36   H     H_    0.095579 0.674162 0.379620 0.102620
H37   H     H_    0.983008 0.326038 0.649300 0.123049
H38   H     H_    0.378799 0.676234 0.113003 0.094101
H39   H     H_    0.645729 0.323702 0.976219 0.101094
H40   H     H_    0.944558 0.321645 0.194091 0.109543
H41   H     H_    0.134021 0.676618 0.814373 0.114901
H42   H     H_    0.186186 0.815706 0.362971 0.136234
H43   H     H_    0.807474 0.275374 0.635528 0.127692
H44   H     H_    0.015600 0.170052 0.836108 0.109772
H45   H     H_    0.298624 0.194037 0.938206 0.124542
H46   H     H_    0.874600 0.752079 0.056401 0.120433
H47   H     H_    0.243665 0.158501 0.751415 0.121364
H48   H     H_    0.723841 0.904356 0.243479 0.135930
H49   H     H_    0.867787 0.894804 0.557293 0.168748
H50   H     H_    0.819121 0.711251 0.510354 0.248841
H51   H     H_    0.933091 0.758139 0.636137 0.256305
H52   H     H_    0.955855 0.783538 0.535801 0.237642
H53   H     H_    0.053459 0.006187 0.204130 0.159238
H54   H     H_    0.115155 0.186945 0.227367 0.257395
H55   H     H_    0.043877 0.172208 0.301792 0.239393
H56   H     H_    0.588634 0.780001 0.049292 0.109875
H57   H     H_    0.976473 0.159271 0.171232 0.253395
H58   H     H_    0.520111 0.416021 0.250055 0.160316
H59   H     H_    0.448212 0.501361 0.351382 0.253467
H60   H     H_    0.413010 0.554881 0.264369 0.260979
H61   H     H_    0.554896 0.605780 0.354971 0.245528
H62   H     H_    0.582260 0.494491 0.885604 0.177998
H63   H     H_    0.495963 0.575805 0.801551 0.258479
H64   H     H_    0.444624 0.600020 0.895154 0.255454
H65   H     H_    0.396986 0.461284 0.793899 0.249721
H66   H     H_    0.364457 0.359364 0.889460 0.126077
H67   H     H_    0.560436 0.141367 0.070885 0.093563
H68   H     H_    0.671751 0.634475 0.257298 0.129297
H69   H     H_    0.470719 0.936582 0.992650 0.095780
H70   H     H_    0.622304 0.337804 0.187114 0.100798
N1    N     N_R   0.947560 0.293820 0.002910 -0.040659
N2    N     N_R   0.789450 0.443190 0.997090 -0.038138
N3    N     N_R   0.945970 0.443180 0.152110 -0.040874
N4    N     N_R   0.054030 0.556820 0.847890 -0.038362
N5    N     N_R   0.151530 0.706170 0.208880 -0.041028
N6    N     N_R   0.848470 0.293830 0.791120 -0.044835
N7    N     N_R   0.004980 0.293810 0.946140 -0.040034
N8    N     N_R   0.995020 0.706190 0.053860 -0.041190
N9    N     N_2   0.901870 0.881036 0.618388 -0.112849
N10   N     N_2   0.998485 0.025805 0.166344 -0.109571
N11   N     N_2   0.474107 0.447238 0.219089 -0.116609
N12   N     N_R   0.052440 0.706180 0.997090 -0.041265
N13   N     N_2   0.555585 0.542766 0.924589 -0.109663
N14   N     N_R   0.208960 0.706170 0.152110 -0.037702
N15   N     N_R   0.791040 0.293830 0.847890 -0.041324
N16   N     N_R   0.154330 0.443160 0.946140 -0.041503
N17   N     N_R   0.845670 0.556840 0.053860 -0.040885
N18   N     N_R   0.002190 0.556820 0.208880 -0.039382
N19   N     N_R   0.997810 0.443180 0.791120 -0.039249
N20   N     N_R   0.210550 0.556810 0.002910 -0.038780
Ni1   Ni    Ni4+2 0.869690 0.369690 0.000000 0.216484
Ni2   Ni    Ni4+2 0.130310 0.630310 0.000000 0.213206
Ni3   Ni    Ni4+2 0.001390 0.369680 0.869810 0.213074
Ni4   Ni    Ni4+2 0.998610 0.630320 0.130190 0.215424

loop_
_geom_bond_atom_site_label_1
_geom_bond_atom_site_label_2
_ccdc_geom_bond_type
C77   N3    A    
N16   Ni3   S    
C58   C62   A    
C80   H42   S    
C64   H36   S    
C45   C71   S    
C86   N9    S    
C88   H59   S    
C14   C18   A    
C76   N2    A    
C67   C77   A    
C24   C27   A    
C79   N4    A    
N14   Ni2   S    
C12   N12   A    
C1    C84   A    
C15   C19   A    
C90   N13   S    
N6    N15   A    
C87   H57   S    
C12   C85   A    
C56   C76   A    
C26   C67   S    
C65   H37   S    
C41   N17   A    
C19   C21   A    
C24   C26   A    
C32   C61   A    
C38   C42   A    
C43   H24   S    
C5    N9    S    
C11   C14   A    
C66   C69   S    
C32   H56   S    
C10   H4    S    
C68   C74   S    
C49   C54   A    
C62   C89   A    
C33   C36   A    
C4    H34   S    
C75   H38   S    
C59   C89   A    
C69   C71   S    
C42   H22   S    
N2    N17   A    
C88   H60   S    
C3    C55   A    
C66   C72   S    
C89   H29   S    
C44   H25   S    
C52   C54   A    
C49   C51   A    
C22   C25   A    
C4    C57   A    
C50   C52   A    
C81   N6    A    
C8    H2    S    
C18   H7    S    
C87   H54   S    
C73   N11   S    
C61   H15   S    
C45   C75   A    
N19   Ni3   S    
C35   H19   S    
C44   C47   A    
C86   H50   S    
N15   Ni1   S    
C1    N1    A    
C1    H1    S    
C88   N11   S    
C22   C28   A    
C21   H69   S    
C33   H18   S    
C42   C44   A    
C32   C57   A    
N3    N18   A    
C14   H5    S    
C35   C48   A    
C19   H8    S    
N20   Ni2   S    
C5    C29   A    
C82   N7    A    
C40   C45   A    
C62   C85   S    
C49   H27   S    
C50   C53   A    
C25   C78   S    
C69   H66   S    
C64   C67   A    
C41   H35   S    
N3    Ni1   S    
N2    Ni1   S    
C72   C74   S    
C3    H23   S    
C68   H32   S    
C15   H6    S    
C40   N16   A    
C2    H30   S    
C78   C79   A    
C39   C43   A    
C7    H70   S    
C65   N19   A    
N8    Ni4   S    
N5    N14   A    
C87   N10   S    
C6    C30   A    
C51   C53   A    
C31   C60   A    
C82   H44   S    
C41   C56   A    
C12   H12   S    
C64   N18   A    
C76   H39   S    
C38   C54   S    
C29   C60   A    
N8    N12   A    
C47   H16   S    
C79   H41   S    
C70   C73   S    
C8    C21   A    
C34   C51   S    
C66   H31   S    
C69   C74   S    
C90   H63   S    
C75   N20   A    
C9    C11   A    
C83   H46   S    
N1    N7    A    
N4    N19   A    
C74   N13   S    
H62   N13   S    
C31   H45   S    
C83   C85   A    
C16   C23   A    
C82   C84   A    
C20   H67   S    
C13   C15   A    
C36   H20   S    
C23   C80   A    
C88   H61   S    
C11   C28   S    
C4    C6    A    
C90   H64   S    
C17   C34   A    
C9    H3    S    
C80   N5    A    
C2    C63   A    
C86   H52   S    
C71   C73   S    
C6    N10   S    
C16   N14   A    
C7    C9    A    
C40   H33   S    
N7    Ni3   S    
C22   H9    S    
C87   H55   S    
C56   C72   S    
C50   H28   S    
N5    Ni4   S    
C59   C63   A    
N6    Ni3   S    
H53   N10   S    
C3    C5    A    
C10   C13   A    
C24   H10   S    
C2    C58   A    
C81   H43   S    
C25   C27   A    
N17   Ni4   S    
C83   N8    A    
C26   C28   A    
C55   H47   S    
C46   H26   S    
C63   C84   S    
C65   C78   A    
C31   C55   A    
C36   C38   A    
C17   H13   S    
C35   C37   A    
C37   C39   A    
C66   C73   S    
C23   C52   S    
C39   C53   S    
H58   N11   S    
C68   C71   S    
C33   C47   A    
C30   C58   S    
C57   H48   S    
H49   N9    S    
C18   C20   A    
C77   H40   S    
N1    Ni1   S    
C43   C46   A    
C37   H21   S    
N4    Ni2   S    
C48   H17   S    
C46   C48   A    
N12   Ni2   S    
C16   H11   S    
N16   N20   A    
C8    C10   A    
C7    C20   A    
C30   C61   A    
C68   C70   S    
C29   C59   S    
C13   C27   S    
C70   C72   S    
C70   H68   S    
C90   H65   S    
C60   H14   S    
C34   C81   A    
N18   Ni4   S    
C17   N15   A    
C86   H51   S    
