data_mof_unit_41974.cif
_audit_creation_date              2012-12-10T17:37:46-0500
_audit_creation_method            fapswitch 2.2
_symmetry_space_group_name_H-M    P1
_symmetry_Int_Tables_number       1
_space_group_crystal_system       triclinic
_cell_length_a                    12.283743
_cell_length_b                    13.183457
_cell_length_c                    17.234101
_cell_angle_alpha                 104.234583
_cell_angle_beta                  75.349727
_cell_angle_gamma                 116.12322
_cell_volume                      2395.11064763

loop_
_atom_site_label
_atom_site_type_symbol
_atom_type_description
_atom_site_fract_x
_atom_site_fract_y
_atom_site_fract_z
_atom_type_partial_charge
C1    C     C_R   0.144690 0.713580 0.507524 0.813634
C2    C     C_R   0.942080 0.569702 0.798917 0.403145
C3    C     C_R   0.893046 0.485021 0.164445 0.463294
C4    C     C_R   0.900003 0.471792 0.241010 -0.389256
C5    C     C_R   0.122637 0.536502 0.206760 0.290159
C6    C     C_R   0.117248 0.548873 0.129558 0.347352
C7    C     C_R   0.003494 0.526797 0.109970 -0.093407
C8    C     C_2   0.931061 0.456013 0.981230 -0.149157
C9    C     C_2   0.000055 0.543451 0.030026 -0.097102
C10   C     C_R   0.013266 0.498534 0.262903 -0.221433
C11   C     C_R   0.739773 0.966987 0.431093 -0.205824
C12   C     C_R   0.986094 0.499780 0.651663 0.844972
C13   C     C_R   0.774720 0.165113 0.478301 -0.073680
C14   C     C_R   0.178503 0.914180 0.562264 -0.340773
C15   C     C_R   0.255339 0.025098 0.589302 0.359459
C16   C     C_R   0.383180 0.060086 0.571507 0.382416
C17   C     C_R   0.435732 0.987251 0.514966 -0.082579
C18   C     C_R   0.355800 0.874337 0.486609 -0.026169
C19   C     C_R   0.564768 0.020325 0.487899 0.038356
C20   C     C_R   0.612207 0.937133 0.446588 0.058158
C21   C     C_R   0.532101 0.828614 0.415684 0.379034
C22   C     C_R   0.406680 0.801861 0.430693 -0.215396
C23   C     C_R   0.856070 0.286511 0.488449 0.798452
C24   C     C_R   0.647953 0.134598 0.495762 -0.210255
C25   C     C_R   0.820654 0.080362 0.448782 -0.203243
C26   C     C_R   0.227155 0.836114 0.515473 -0.122985
C27   C     C_R   0.649930 0.682997 0.625305 0.382646
C28   C     C_R   0.251827 0.354206 0.389310 0.146604
C29   C     C_R   0.352264 0.324428 0.365330 -0.264010
C30   C     C_R   0.451578 0.380238 0.407193 -0.161996
C31   C     C_R   0.451830 0.467353 0.474085 0.057238
C32   C     C_R   0.347147 0.495002 0.495906 0.264381
C33   C     C_R   0.551810 0.528272 0.519519 -0.117481
C34   C     C_R   0.012149 0.497613 0.347857 0.884295
C35   C     C_R   0.547178 0.618360 0.584525 -0.033704
C36   C     C_R   0.440506 0.640856 0.606316 0.341137
C37   C     C_R   0.345062 0.580861 0.562208 -0.196293
C38   C     C_R   0.656960 0.503021 0.503086 0.044879
C39   C     C_R   0.748230 0.650707 0.606764 -0.015627
C40   C     C_R   0.976135 0.491919 0.736253 -0.227936
C41   C     C_R   0.997536 0.404841 0.755677 0.335932
C42   C     C_R   0.977314 0.391623 0.836168 -0.206897
C43   C     C_R   0.940945 0.466634 0.897651 0.004458
C44   C     C_R   0.922895 0.555192 0.879378 -0.213744
Cu1   Cu    Cu3+1 0.900140 0.524980 0.518800 0.944275
Cu2   Cu    Cu3+1 0.099860 0.475020 0.481200 0.990358
H1    H     H_    0.918690 0.102267 0.435210 0.170210
H2    H     H_    0.777367 0.903633 0.402950 0.176295
H3    H     H_    0.615401 0.201623 0.510162 0.219389
H4    H     H_    0.080274 0.887264 0.582490 0.191572
H5    H     H_    0.350961 0.723009 0.397092 0.220252
H6    H     H_    0.825837 0.698188 0.638573 0.156060
H7    H     H_    0.818020 0.443934 0.285683 0.174998
H8    H     H_    0.667359 0.435850 0.455745 0.126335
H9    H     H_    0.175082 0.310487 0.356580 0.119123
H10   H     H_    0.526742 0.353708 0.385480 0.117717
H11   H     H_    0.353175 0.257937 0.314087 0.144358
H12   H     H_    0.269756 0.605013 0.583001 0.221958
H13   H     H_    0.063674 0.623105 0.007869 0.169950
H14   H     H_    0.895333 0.613761 0.927646 0.166192
H15   H     H_    0.879504 0.372111 0.999835 0.155813
H16   H     H_    0.993526 0.324699 0.851056 0.177675
N1    N     N_R   0.749710 0.562810 0.547300 -0.214077
N2    N     N_R   0.249640 0.437820 0.453210 -0.192516
O1    O     O_R   0.025490 0.682370 0.523640 -0.594155
O2    O     O_R   0.194150 0.640180 0.491890 -0.611217
O3    O     O_R   0.905900 0.523560 0.631310 -0.557286
O4    O     O_R   0.074570 0.481370 0.599560 -0.554524
O5    O     O_R   0.805850 0.359820 0.508110 -0.601166
O6    O     O_R   0.974510 0.317630 0.476360 -0.573522
O7    O     O_R   0.925430 0.518630 0.400440 -0.597093
O8    O     O_R   0.094100 0.476440 0.368690 -0.551437
Cl1   Cl    Cl    0.049538 0.309703 0.681994 -0.552119
O9    O     O_3   0.224495 0.589284 0.074571 -0.570574
C45   C     C_3   0.246734 0.494913 0.025842 0.065912
H17   H     H_    0.168614 0.437091 0.992885 0.132688
H18   H     H_    0.260573 0.445548 0.063766 0.168968
C46   C     C_3   0.363015 0.538603 0.963304 -0.289536
H19   H     H_    0.350345 0.588025 0.925037 0.245347
H20   H     H_    0.441921 0.596426 0.995221 0.231041
C47   C     C_3   0.392109 0.440241 0.908789 -0.887159
H21   H     H_    0.407076 0.390730 0.945713 0.245762
H22   H     H_    0.477061 0.474865 0.864290 0.275240
H23   H     H_    0.315457 0.382415 0.874972 0.275134
O10   O     O_3   0.575178 0.747428 0.370205 -0.619566
C48   C     C_3   0.592269 0.753602 0.287021 0.044985
H24   H     H_    0.671857 0.834053 0.272121 0.136494
H25   H     H_    0.508915 0.751108 0.270545 0.194425
C49   C     C_3   0.618380 0.651586 0.236280 -0.284092
H26   H     H_    0.703220 0.654141 0.250187 0.228730
H27   H     H_    0.540547 0.570866 0.252200 0.239384
C50   C     C_3   0.634954 0.652677 0.145590 -0.863309
H28   H     H_    0.550200 0.648038 0.130164 0.278351
H29   H     H_    0.653576 0.577804 0.110174 0.274896
H30   H     H_    0.713698 0.731805 0.128054 0.246469
O11   O     O_3   0.454489 0.165075 0.610725 -0.598215
C51   C     C_3   0.471183 0.150804 0.684878 0.064070
H31   H     H_    0.499067 0.078481 0.676937 0.138101
H32   H     H_    0.384391 0.134557 0.729359 0.188498
C52   C     C_3   0.572043 0.260664 0.718503 -0.291843
H33   H     H_    0.660937 0.274024 0.676766 0.221296
H34   H     H_    0.549379 0.334762 0.722132 0.250012
C53   C     C_3   0.585672 0.255617 0.802921 -0.931390
H35   H     H_    0.500012 0.249375 0.846549 0.262435
H36   H     H_    0.662957 0.334491 0.823996 0.269406
H37   H     H_    0.604916 0.180455 0.801737 0.260057
Cl2   Cl    Cl    0.189225 0.117862 0.651372 -0.562403
Cl3   Cl    Cl    0.413608 0.738434 0.691809 -0.646436
O12   O     O_3   0.657361 0.778439 0.682798 -0.557307
C54   C     C_3   0.715231 0.875336 0.642841 0.094584
H38   H     H_    0.660984 0.867812 0.597073 0.167409
H39   H     H_    0.810107 0.885494 0.611838 0.121896
C55   C     C_3   0.723921 0.981971 0.705393 -0.298486
H40   H     H_    0.631699 0.969663 0.742101 0.250115
H41   H     H_    0.787311 0.996372 0.746795 0.233308
C56   C     C_3   0.771097 0.086702 0.664104 -0.853808
H42   H     H_    0.859578 0.096823 0.622853 0.306339
H43   H     H_    0.785244 0.164310 0.710592 0.271085
H44   H     H_    0.702869 0.077546 0.628546 0.251723
Cl4   Cl    Cl    0.267973 0.576415 0.232406 -0.673224
O13   O     O_3   0.784384 0.469510 0.141775 -0.609469
C57   C     C_3   0.675320 0.386189 0.178021 0.054223
H45   H     H_    0.597823 0.385690 0.155644 0.172936
H46   H     H_    0.655664 0.410285 0.244762 0.128614
C58   C     C_3   0.672919 0.265012 0.152687 -0.385720
H47   H     H_    0.683523 0.242864 0.085469 0.222077
H48   H     H_    0.749733 0.260379 0.172364 0.213125
C59   C     C_3   0.552308 0.177082 0.190161 -0.895189
H49   H     H_    0.541733 0.195828 0.257451 0.249675
H50   H     H_    0.552305 0.090346 0.169961 0.264666
H51   H     H_    0.473158 0.178025 0.170777 0.253843
O14   O     O_3   0.921497 0.657094 0.782699 -0.600461
C60   C     C_3   0.034949 0.747052 0.759065 0.083626
H52   H     H_    0.017139 0.793983 0.721605 0.168660
H53   H     H_    0.105703 0.716746 0.720169 0.131117
C61   C     C_3   0.085845 0.830276 0.833444 -0.348257
H54   H     H_    0.014390 0.859065 0.872420 0.228798
H55   H     H_    0.110570 0.786442 0.869349 0.219446
C62   C     C_3   0.199962 0.934401 0.808266 -0.883083
H56   H     H_    0.272569 0.907705 0.768749 0.281324
H57   H     H_    0.236472 0.992136 0.863071 0.254036
H58   H     H_    0.176256 0.982110 0.775011 0.274735

loop_
_geom_bond_atom_site_label_1
_geom_bond_atom_site_label_2
_ccdc_geom_bond_type
C8    C9    D    
C4    H7    S    
Cu1   O7    S    
C41   C42   A    
C23   O5    A    
C19   C20   A    
C18   C26   A    
C8    C43   S    
C43   C44   A    
C59   H49   S    
C47   H23   S    
C51   H31   S    
C14   H4    S    
Cu1   Cu2   S    
C12   O4    A    
C58   H47   S    
C28   C29   A    
Cu2   O2    S    
C3    C7    A    
C5    C6    A    
C62   H58   S    
C48   H25   S    
C36   Cl3   S    
C11   C25   A    
C15   C16   A    
C56   H42   S    
C13   C23   S    
C17   C18   A    
C15   Cl2   S    
C54   H38   S    
C50   H28   S    
C47   H22   S    
C38   N1    A    
C53   H36   S    
C35   C36   A    
C27   C39   A    
O14   C60   S    
Cu1   O3    S    
C58   C59   S    
C2    O14   S    
C31   C33   A    
C49   H27   S    
C25   H1    S    
Cu2   O8    S    
C37   H12   S    
C8    H15   S    
C55   C56   S    
C39   H6    S    
C18   C22   A    
C21   C22   A    
C23   O6    A    
C13   C25   A    
C11   H2    S    
C61   C62   S    
C52   H34   S    
C51   H32   S    
C28   H9    S    
C6    O9    S    
C12   O3    A    
C21   O10   S    
C11   C20   A    
C16   O11   S    
O9    C45   S    
C5    Cl4   S    
Cu1   O5    S    
C32   N2    A    
C61   H55   S    
C2    C44   A    
C46   H19   S    
C16   C17   A    
C27   C35   A    
O10   C48   S    
C30   H10   S    
Cu1   N1    S    
C52   C53   S    
C47   H21   S    
C13   C24   A    
Cu2   N2    S    
C9    H13   S    
C12   C40   S    
C45   H17   S    
Cu2   O4    S    
C29   C30   A    
C2    C40   A    
C60   C61   S    
C1    O1    A    
C31   C32   A    
C38   H8    S    
O11   C51   S    
C50   H29   S    
C1    O2    A    
C10   C34   S    
C32   C37   A    
C14   C26   A    
C49   C50   S    
C45   H18   S    
C54   C55   S    
O13   C57   S    
C28   N2    A    
C40   C41   A    
C29   H11   S    
Cu1   O1    S    
C60   H52   S    
C42   C43   A    
C4    C10   A    
C3    C4    A    
C59   H51   S    
C34   O8    A    
C51   C52   S    
C60   H53   S    
C55   H40   S    
C24   H3    S    
C7    C9    S    
C42   H16   S    
C36   C37   A    
C48   H24   S    
C61   H54   S    
C48   C49   S    
C59   H50   S    
C62   H56   S    
C6    C7    A    
C39   N1    A    
C33   C38   A    
C56   H44   S    
C57   C58   S    
C19   C24   A    
C49   H26   S    
C5    C10   A    
O12   C54   S    
C62   H57   S    
C46   C47   S    
C30   C31   A    
C44   H14   S    
C52   H33   S    
C33   C35   A    
C56   H43   S    
C53   H37   S    
C46   H20   S    
C50   H30   S    
C45   C46   S    
C54   H39   S    
Cu2   O6    S    
C41   Cl1   S    
C17   C19   A    
C1    C26   S    
C20   C21   A    
C27   O12   S    
C53   H35   S    
C58   H48   S    
C14   C15   A    
C57   H45   S    
C57   H46   S    
C34   O7    A    
C3    O13   S    
C22   H5    S    
C55   H41   S    
