data_mof_unit_28895.cif
_audit_creation_date              2013-03-05T15:57:38-0500
_audit_creation_method            fapswitch 2.2
_symmetry_space_group_name_H-M    P1
_symmetry_Int_Tables_number       1
_space_group_crystal_system       triclinic
_cell_length_a                    19.075271
_cell_length_b                    18.049754
_cell_length_c                    12.619918
_cell_angle_alpha                 91.957408
_cell_angle_beta                  101.087339
_cell_angle_gamma                 90.772184
_cell_volume                      4260.60910831

loop_
_atom_site_label
_atom_site_type_symbol
_atom_site_description
_atom_site_fract_x
_atom_site_fract_y
_atom_site_fract_z
_atom_type_partial_charge
O1    O     O_R   0.448200 0.076800 0.373930 -0.594577
O2    O     O_R   0.448200 0.923200 0.373930 -0.584567
O3    O     O_R   0.948200 0.576800 0.373930 -0.595352
O4    O     O_R   0.948200 0.423200 0.373930 -0.583360
O5    O     O_R   0.414750 0.076790 0.542400 -0.595388
O6    O     O_R   0.414750 0.923210 0.542400 -0.624198
O7    O     O_R   0.914750 0.576790 0.542400 -0.595725
O8    O     O_R   0.914750 0.423210 0.542400 -0.623194
C1    C     C_R   0.409149 0.099748 0.442731 0.861995
C2    C     C_R   0.411968 0.895680 0.443465 0.854841
C3    C     C_R   0.909184 0.599769 0.442740 0.858966
C4    C     C_R   0.911485 0.396151 0.443049 0.853506
Zn1   Zn    Zn3+2 0.522330 1.000000 0.387520 1.078191
Zn2   Zn    Zn3+2 0.022330 0.500000 0.387520 1.078749
Zn3   Zn    Zn3+2 0.477660 0.000000 0.612480 0.945781
Zn4   Zn    Zn3+2 0.977660 0.500000 0.612480 0.946459
O9    O     O_R   0.585240 0.923200 0.457600 -0.544466
O10   O     O_R   0.585240 0.076800 0.457600 -0.532827
O11   O     O_R   0.085240 0.423200 0.457600 -0.544139
O12   O     O_R   0.085240 0.576800 0.457600 -0.533045
O13   O     O_R   0.551780 0.923190 0.626070 -0.612291
O14   O     O_R   0.551780 0.076810 0.626070 -0.624579
O15   O     O_R   0.051780 0.423190 0.626070 -0.611643
O16   O     O_R   0.051780 0.576810 0.626070 -0.623905
C5    C     C_R   0.586724 0.895908 0.553856 0.927541
C6    C     C_R   0.587210 0.105099 0.556277 0.934192
C7    C     C_R   0.086625 0.395823 0.553800 0.928166
C8    C     C_R   0.087064 0.605221 0.556177 0.933893
C9    C     C_R   0.728956 0.223378 0.730104 0.274295
C10   C     C_R   0.729946 0.791304 0.717714 0.199257
C11   C     C_R   0.227784 0.723813 0.730684 0.262436
C12   C     C_R   0.229205 0.290479 0.717719 0.199516
H1    H     H_    0.634066 0.170839 0.760405 0.177924
H2    H     H_    0.638807 0.847195 0.754915 0.185860
H3    H     H_    0.132799 0.671447 0.760357 0.177698
H4    H     H_    0.138091 0.346463 0.754780 0.186083
C13   C     C_R   0.635260 0.169268 0.590775 -0.206811
C14   C     C_R   0.633232 0.833565 0.583278 -0.176322
C15   C     C_R   0.134830 0.669641 0.590550 -0.186314
C16   C     C_R   0.132855 0.333233 0.583146 -0.177155
C17   C     C_R   0.335640 0.817501 0.299603 -0.109185
C18   C     C_R   0.303781 0.117150 0.303750 -0.171348
C19   C     C_R   0.831792 0.322224 0.297899 -0.110500
C20   C     C_R   0.803788 0.617149 0.303891 -0.171612
C21   C     C_R   0.278971 0.767217 0.268012 -0.136101
C22   C     C_R   0.231122 0.130155 0.285054 -0.124987
C23   C     C_R   0.774160 0.273156 0.265931 -0.133381
C24   C     C_R   0.731155 0.630254 0.285330 -0.124776
C25   C     C_R   0.245686 0.736423 0.345782 -0.048900
C26   C     C_R   0.202252 0.170465 0.361513 -0.091064
C27   C     C_R   0.741862 0.240912 0.343656 -0.051501
C28   C     C_R   0.702440 0.670738 0.361779 -0.091433
C29   C     C_R   0.270758 0.753656 0.457054 0.117559
C30   C     C_R   0.246897 0.207068 0.451355 0.099271
C31   C     C_R   0.768570 0.255900 0.455074 0.117400
C32   C     C_R   0.747224 0.707427 0.451423 0.099240
C33   C     C_R   0.336498 0.791751 0.487630 0.048821
C34   C     C_R   0.320462 0.192418 0.470724 0.027781
C35   C     C_R   0.834990 0.292764 0.485122 0.044945
C36   C     C_R   0.820763 0.692716 0.470619 0.027638
C37   C     C_R   0.732174 0.234839 0.537586 -0.072259
C38   C     C_R   0.720750 0.752905 0.527799 -0.087713
C39   C     C_R   0.233184 0.733794 0.538824 -0.092811
C40   C     C_R   0.220282 0.252428 0.527728 -0.087724
C41   C     C_R   0.768123 0.239783 0.648361 0.019441
C42   C     C_R   0.763761 0.765901 0.633175 0.007091
C43   C     C_R   0.267516 0.740878 0.650242 0.057061
C44   C     C_R   0.263157 0.265244 0.633252 0.006994
C45   C     C_R   0.339371 0.766018 0.676767 0.204304
C46   C     C_R   0.337725 0.254199 0.648440 0.198314
C47   C     C_R   0.841280 0.260528 0.672518 0.174003
C48   C     C_R   0.838322 0.754821 0.648146 0.199563
C49   C     C_R   0.372983 0.790108 0.595444 -0.258994
C50   C     C_R   0.365527 0.222348 0.563987 -0.172921
C51   C     C_R   0.873339 0.287707 0.591349 -0.226950
C52   C     C_R   0.865968 0.722744 0.563680 -0.175159
C53   C     C_R   0.660233 0.210330 0.513534 0.298946
C54   C     C_R   0.655137 0.789856 0.502236 0.289931
C55   C     C_R   0.161195 0.709432 0.513280 0.298847
C56   C     C_R   0.154699 0.289476 0.502108 0.289781
C57   C     C_R   0.663238 0.185960 0.699558 -0.280598
C58   C     C_R   0.663570 0.824051 0.691298 -0.324501
C59   C     C_R   0.161781 0.687083 0.699455 -0.331805
C60   C     C_R   0.162920 0.323381 0.691187 -0.324349
C61   C     C_R   0.363539 0.831765 0.409527 -0.099399
C62   C     C_R   0.347222 0.143163 0.400688 -0.070949
C63   C     C_R   0.861584 0.333717 0.407743 -0.102423
C64   C     C_R   0.847344 0.643259 0.400673 -0.071116
H5    H     H_    0.356258 0.846756 0.238614 0.232878
H6    H     H_    0.324073 0.078982 0.249246 0.185744
H7    H     H_    0.851739 0.352685 0.237425 0.233952
H8    H     H_    0.823965 0.578831 0.249459 0.186169
H9    H     H_    0.695926 0.204876 0.315487 0.187487
H10   H     H_    0.645026 0.669505 0.351670 0.184842
H11   H     H_    0.200152 0.699846 0.317748 0.188352
H12   H     H_    0.144828 0.169182 0.351234 0.184540
H13   H     H_    0.258256 0.755242 0.183026 0.164413
H14   H     H_    0.196387 0.104166 0.215345 0.181216
H15   H     H_    0.752023 0.263202 0.180963 0.166244
H16   H     H_    0.696320 0.604196 0.215778 0.182055
H17   H     H_    0.428654 0.807238 0.617760 0.178560
H18   H     H_    0.422981 0.217408 0.574063 0.173891
H19   H     H_    0.929554 0.303079 0.611560 0.171828
H20   H     H_    0.923404 0.717706 0.573584 0.172652
C65   C     C_R   0.640044 0.955312 0.141926 -0.286815
C66   C     C_R   0.139757 0.454585 0.141787 -0.286942
H21   H     H_    0.665473 0.928860 0.951577 0.156536
H22   H     H_    0.165081 0.428078 0.951222 0.156616
H23   H     H_    0.695407 0.943152 0.140541 0.180218
H24   H     H_    0.195015 0.441947 0.140368 0.180713
N1    N     N_R   0.552340 1.000000 0.237260 -0.173611
N2    N     N_R   0.052340 0.500000 0.237260 -0.173303
C67   C     C_R   0.375569 0.997363 0.756236 0.175570
C68   C     C_R   0.875540 0.497740 0.756253 0.182686
C69   C     C_R   0.346875 0.979013 0.847064 0.129301
C70   C     C_R   0.846740 0.479966 0.847243 0.117073
C71   C     C_R   0.392924 0.965249 0.944391 0.192697
C72   C     C_R   0.892759 0.465908 0.944489 0.193359
C73   C     C_R   0.467400 0.972076 0.950811 -0.163828
C74   C     C_R   0.967261 0.472285 0.950813 -0.157803
C75   C     C_R   0.494536 0.983108 0.855510 0.013837
C76   C     C_R   0.994434 0.483077 0.855498 0.015635
C77   C     C_R   0.516913 0.970089 0.049396 0.074421
C78   C     C_R   0.016780 0.470216 0.049354 0.073494
C79   C     C_R   0.588371 0.951955 0.047615 0.064829
C80   C     C_R   0.088121 0.451640 0.047485 0.064847
C81   C     C_R   0.610181 0.942335 0.950128 -0.267846
C82   C     C_R   0.109881 0.441890 0.949940 -0.268487
C83   C     C_R   0.569321 0.974086 0.859839 0.252690
C84   C     C_R   0.069140 0.473832 0.859730 0.250076
C85   C     C_R   0.500108 0.993303 0.148393 -0.049566
C86   C     C_R   0.000110 0.493685 0.148354 -0.047619
C87   C     C_R   0.621679 0.982765 0.236338 0.498706
C88   C     C_R   0.121557 0.482093 0.236308 0.497339
N3    N     N_R   0.448170 1.000000 0.762060 -0.152131
N4    N     N_R   0.948170 0.500000 0.762060 -0.151254
H25   H     H_    0.446842 0.008735 0.156198 0.170373
H26   H     H_    0.946942 0.509500 0.156144 0.170483
N5    N     N_2   0.329533 0.001183 0.653722 -0.225998
H27   H     H_    0.305271 0.951111 0.625201 0.264489
C89   C     C_3   0.280138 0.061650 0.641246 -0.688698
H28   H     H_    0.259498 0.068680 0.554000 0.234525
H29   H     H_    0.307437 0.113419 0.677517 0.230963
H30   H     H_    0.233688 0.050076 0.679405 0.266170
N6    N     N_2   0.829528 0.501448 0.653703 -0.227066
H31   H     H_    0.805042 0.451418 0.625488 0.263260
C90   C     C_3   0.780502 0.562237 0.640678 -0.685466
H32   H     H_    0.760051 0.569061 0.553340 0.234297
H33   H     H_    0.808058 0.613930 0.676754 0.230508
H34   H     H_    0.733873 0.551195 0.678659 0.267197
N7    N     N_R   0.365141 0.928262 0.026914 0.208630
O17   O     O_R   0.389432 0.863754 0.057099 -0.410956
O18   O     O_R   0.314742 0.957431 0.069993 -0.382949
N8    N     N_R   0.864821 0.429241 0.027150 0.201454
O19   O     O_R   0.889149 0.364874 0.058002 -0.420050
O20   O     O_R   0.814447 0.458672 0.070005 -0.381528
N9    N     N_R   0.271421 0.967152 0.837716 0.233614
O21   O     O_R   0.234936 0.012332 0.887473 -0.356562
O22   O     O_R   0.238168 0.914782 0.773199 -0.420185
N10   N     N_R   0.771102 0.469797 0.838532 0.232039
O23   O     O_R   0.735864 0.515920 0.888895 -0.350938
O24   O     O_R   0.736390 0.418544 0.773411 -0.411841
N11   N     N_2   0.605309 0.019424 0.797368 -0.226046
H35   H     H_    0.591928 0.073329 0.811221 0.220715
C91   C     C_3   0.681757 0.013241 0.801695 -0.808732
H36   H     H_    0.697782 0.045388 0.736809 0.251541
H37   H     H_    0.696744 0.955467 0.788339 0.237960
H38   H     H_    0.712091 0.035074 0.880841 0.224706
N12   N     N_2   0.105212 0.519235 0.797430 -0.225634
H39   H     H_    0.092197 0.573198 0.811720 0.220700
C92   C     C_3   0.181542 0.512567 0.801287 -0.805125
H40   H     H_    0.197882 0.546062 0.737958 0.253460
H41   H     H_    0.195858 0.454937 0.785410 0.238482
H42   H     H_    0.212121 0.532534 0.881240 0.224530
N13   N     N_2   0.378556 0.768143 0.784814 -0.259109
H43   H     H_    0.405476 0.817921 0.807120 0.239798
C93   C     C_3   0.424640 0.705644 0.810100 -0.700945
H44   H     H_    0.447617 0.707635 0.897957 0.261183
H45   H     H_    0.469057 0.707563 0.764634 0.226637
H46   H     H_    0.393952 0.652668 0.789350 0.241224
N14   N     N_2   0.386757 0.281303 0.742065 -0.282875
H47   H     H_    0.371771 0.326662 0.783515 0.252305
C94   C     C_3   0.424822 0.225403 0.808829 -0.724188
H48   H     H_    0.463676 0.252707 0.876097 0.248677
H49   H     H_    0.454924 0.189249 0.761147 0.239738
H50   H     H_    0.386992 0.190706 0.843397 0.241943
N15   N     N_2   0.884350 0.250704 0.776154 -0.311030
H51   H     H_    0.921947 0.292607 0.800507 0.239470
C95   C     C_3   0.915211 0.178068 0.788975 -0.718054
H52   H     H_    0.942645 0.172518 0.874185 0.254236
H53   H     H_    0.954834 0.170431 0.735621 0.242850
H54   H     H_    0.872969 0.134061 0.768771 0.243645
N16   N     N_2   0.887486 0.782104 0.741520 -0.283728
H55   H     H_    0.872546 0.827507 0.782927 0.251933
C96   C     C_3   0.925800 0.726360 0.808308 -0.731089
H56   H     H_    0.964669 0.753816 0.875415 0.246440
H57   H     H_    0.955921 0.690260 0.760586 0.239615
H58   H     H_    0.888141 0.691584 0.843098 0.243523
N17   N     N_2   0.751199 0.249265 0.839894 -0.250266
H59   H     H_    0.786266 0.293914 0.855131 0.295869
C97   C     C_3   0.760643 0.194201 0.921852 -0.715880
H60   H     H_    0.783389 0.221118 0.001706 0.259290
H61   H     H_    0.797797 0.150948 0.903558 0.239067
H62   H     H_    0.708513 0.168310 0.927551 0.224236
N18   N     N_2   0.761366 0.783880 0.828439 -0.327689
H63   H     H_    0.753362 0.828888 0.877042 0.220138
C98   C     C_3   0.743093 0.714762 0.872077 -0.681840
H64   H     H_    0.773254 0.710941 0.956152 0.248470
H65   H     H_    0.757373 0.666981 0.823356 0.251510
H66   H     H_    0.684935 0.711907 0.872808 0.246618
N19   N     N_2   0.252170 0.746151 0.841143 -0.240938
H67   H     H_    0.221494 0.787127 0.866822 0.283889
C99   C     C_3   0.264926 0.686990 0.916514 -0.739229
H68   H     H_    0.296092 0.709364 0.994765 0.270302
H69   H     H_    0.296103 0.642397 0.885778 0.245406
H70   H     H_    0.213484 0.663803 0.930844 0.212123
N20   N     N_2   0.260462 0.282876 0.828470 -0.327123
H71   H     H_    0.252609 0.327934 0.877086 0.220671
C100  C     C_3   0.241782 0.213853 0.871964 -0.684687
H72   H     H_    0.271805 0.209897 0.956097 0.248565
H73   H     H_    0.255914 0.165979 0.823281 0.251062
H74   H     H_    0.183591 0.211297 0.872508 0.246870
N21   N     N_R   0.609516 0.242091 0.427501 0.194862
O25   O     O_R   0.546788 0.211469 0.393095 -0.387661
O26   O     O_R   0.619681 0.309860 0.400681 -0.370406
N22   N     N_R   0.614258 0.790614 0.393718 0.193848
O27   O     O_R   0.545898 0.775953 0.375592 -0.412556
O28   O     O_R   0.643604 0.811996 0.314661 -0.352039
N23   N     N_R   0.111589 0.740547 0.425205 0.195369
O29   O     O_R   0.048441 0.710807 0.391074 -0.387316
O30   O     O_R   0.122979 0.807531 0.396297 -0.372482
N24   N     N_R   0.113678 0.290142 0.393673 0.193799
O31   O     O_R   0.045285 0.275704 0.375870 -0.411311
O32   O     O_R   0.142905 0.311262 0.314364 -0.351151
N25   N     N_R   0.676386 0.995030 0.330437 0.220136
O33   O     O_R   0.721468 0.942899 0.360849 -0.350509
O34   O     O_R   0.694705 0.062841 0.362970 -0.433742
N26   N     N_R   0.176326 0.493394 0.330594 0.220679
O35   O     O_R   0.221429 0.441032 0.359589 -0.349649
O36   O     O_R   0.194726 0.560861 0.364808 -0.435049

loop_
_geom_bond_atom_site_label_1
_geom_bond_atom_site_label_2
_geom_bond_distance
_ccdc_geom_bond_type
C54   N22   1.440336 S    
C17   H5    1.079111 S    
C92   H40   1.106869 S    
C2    C61   1.467342 S    
C52   H20   1.083986 S    
C91   H36   1.106616 S    
C96   H57   1.110757 S    
C31   C35   1.402515 A    
N17   C97   1.446868 S    
C40   C56   1.413679 A    
N12   H39   1.026943 S    
C16   C60   1.392165 A    
N21   O25   1.300665 A    
O10   C6    1.323294 A    
C48   C52   1.389916 A    
C71   C73   1.410787 A    
N6    H31   1.031076 S    
C36   C64   1.401312 A    
C11   C59   1.395973 A    
H2    C58   1.081880 S    
N13   C93   1.445906 S    
C39   C55   1.409515 A    
C99   H68   1.110043 S    
O7    C3    1.323087 A    
C19   C63   1.400627 A    
C92   H41   1.100546 S    
C83   N11   1.414057 S    
O5    C1    1.323007 A    
N9    O21   1.300806 A    
Zn1   O10   1.899226 S    
C69   N9    1.433871 S    
C40   C44   1.432065 A    
C65   C87   1.383037 A    
N11   C91   1.454701 S    
C70   N10   1.434552 S    
C94   H49   1.110780 S    
C18   C22   1.385124 A    
C1    C62   1.450275 S    
C77   C79   1.410297 A    
Zn3   N3    2.070801 S    
C16   C56   1.400322 A    
C84   N12   1.414244 S    
C86   H26   1.078865 S    
N14   H47   1.029665 S    
C23   H15   1.082146 S    
C98   H65   1.109308 S    
C78   C86   1.400642 A    
C87   N25   1.430870 S    
C33   C49   1.405549 A    
C95   H53   1.111673 S    
O2    Zn1   1.946334 S    
C66   C88   1.383253 A    
C55   N23   1.448690 S    
O13   C5    1.314967 A    
O6    Zn3   1.899101 S    
H1    C57   1.071622 S    
C53   N21   1.448051 S    
Zn3   O14   1.946324 S    
C42   C48   1.416128 A    
C90   H32   1.107872 S    
C37   C53   1.409004 A    
C69   C71   1.397749 A    
Zn4   O16   1.946324 S    
N25   O34   1.299130 A    
C98   H66   1.111709 S    
C80   C82   1.379258 A    
N25   O33   1.300683 A    
C67   N5    1.421400 S    
C45   C49   1.389062 A    
C18   C62   1.401453 A    
O15   C7    1.314851 A    
O4    C4    1.320812 A    
O11   C7    1.322035 A    
C7    C16   1.456342 S    
N8    O20   1.300787 A    
C12   N20   1.422176 S    
C20   H8    1.083858 S    
C12   C44   1.415446 A    
C96   H58   1.109396 S    
C77   C85   1.400388 A    
C11   C43   1.418041 A    
N5    C89   1.444346 S    
N18   C98   1.445777 S    
C22   H14   1.082696 S    
N7    O17   1.300957 A    
N17   H59   1.029243 S    
O8    Zn4   1.899101 S    
C14   C58   1.392108 A    
C51   H19   1.083457 S    
N12   C92   1.454204 S    
C13   C57   1.394959 A    
C95   H52   1.110217 S    
C97   H61   1.109338 S    
C56   N24   1.440347 S    
C24   H16   1.082698 S    
C34   C62   1.401511 A    
N6    C90   1.444427 S    
C74   C76   1.416548 A    
C66   C80   1.390229 A    
C39   C43   1.433050 A    
C73   C75   1.416707 A    
C12   C60   1.390875 A    
C92   H42   1.109653 S    
N26   O36   1.298781 A    
O5    Zn3   1.965635 S    
C38   C42   1.431951 A    
C98   H64   1.110314 S    
Zn2   O12   1.899226 S    
C90   H34   1.107415 S    
O1    C1    1.308755 A    
C35   C63   1.409624 A    
C94   H50   1.109420 S    
C75   C83   1.428771 A    
C100  H72   1.110320 S    
C29   C33   1.402418 A    
N1    C87   1.364945 A    
C23   C27   1.393626 A    
C14   C54   1.400404 A    
C8    C15   1.468113 S    
N16   C96   1.448368 S    
N20   H71   1.031912 S    
N18   H63   1.031905 S    
C10   N18   1.422171 S    
C13   C53   1.394581 A    
C36   C52   1.403927 A    
C19   H7    1.078988 S    
C32   C36   1.407373 A    
C43   C45   1.411750 A    
N10   O24   1.300724 A    
C10   C58   1.391002 A    
C95   H54   1.111357 S    
Zn2   N2    2.083516 S    
C94   H48   1.110154 S    
C81   C83   1.396183 A    
N19   H67   1.030877 S    
C46   C50   1.389759 A    
N23   O29   1.300726 A    
C85   H25   1.078835 S    
C37   C41   1.433058 A    
C5    C14   1.455999 S    
C100  H73   1.109294 S    
C46   N14   1.425952 S    
C68   C70   1.409371 A    
N13   H43   1.031929 S    
C21   C25   1.393828 A    
C3    C64   1.449863 S    
O8    C4    1.319760 A    
C93   H46   1.111055 S    
N24   O32   1.301091 A    
C71   N7    1.435757 S    
C26   C30   1.417581 A    
C17   C21   1.390797 A    
C25   H11   1.079739 S    
C28   H10   1.077793 S    
C76   N4    1.376301 A    
N8    O19   1.301032 A    
C10   C42   1.415545 A    
O3    Zn2   1.981506 S    
C27   H9    1.079942 S    
C9    C41   1.421760 A    
N1    C85   1.350105 A    
O7    Zn4   1.965635 S    
N19   C99   1.446238 S    
C65   C79   1.390692 A    
C9    C57   1.396331 A    
N16   H55   1.029660 S    
Zn4   O15   1.981498 S    
N22   O28   1.301152 A    
C67   N3    1.372744 A    
C30   C34   1.407587 A    
C97   H62   1.108899 S    
C32   C38   1.414989 A    
C89   H30   1.107530 S    
O1    Zn1   1.981506 S    
C31   C37   1.417307 A    
O2    C2    1.322203 A    
C35   C51   1.404847 A    
C48   N16   1.425988 S    
C17   C61   1.400665 A    
C34   C50   1.403920 A    
C78   C80   1.410306 A    
C66   H24   1.084833 S    
C99   H70   1.110465 S    
C65   H23   1.084831 S    
N26   O35   1.300709 A    
H3    C59   1.072409 S    
C4    C63   1.465680 S    
C90   H33   1.104460 S    
N2    C86   1.350085 A    
Zn2   O11   1.965766 S    
C38   C54   1.413265 A    
O16   C8    1.320564 A    
C68   N6    1.421373 S    
C47   N15   1.422483 S    
C82   C84   1.396075 A    
O6    C2    1.319111 A    
N9    O22   1.300553 A    
N5    H27   1.031025 S    
N21   O26   1.302126 A    
C6    C13   1.467844 S    
C73   C77   1.411810 A    
C91   H38   1.110144 S    
C76   C84   1.427999 A    
O12   C8    1.323359 A    
C22   C26   1.389565 A    
C97   H60   1.110217 S    
Zn1   O9    1.965766 S    
C50   H18   1.083990 S    
O9    C5    1.321781 A    
N10   O23   1.300807 A    
C93   H44   1.110247 S    
C89   H29   1.104458 S    
C99   H69   1.110080 S    
C15   C59   1.395223 A    
N15   H51   1.032264 S    
N23   O30   1.302149 A    
C20   C24   1.385001 A    
C41   C47   1.412443 A    
C89   H28   1.107956 S    
C100  H74   1.111695 S    
C47   C51   1.389634 A    
C29   C39   1.417724 A    
C9    N17   1.429120 S    
C26   H12   1.077812 S    
Zn3   O13   1.981498 S    
C30   C40   1.415118 A    
C93   H45   1.111670 S    
H4    C60   1.081954 S    
C25   C29   1.416056 A    
Zn1   N1    2.083516 S    
C49   H17   1.082966 S    
N24   O31   1.301741 A    
C70   C72   1.397859 A    
C72   N8    1.435865 S    
C27   C31   1.415836 A    
N7    O18   1.300804 A    
O4    Zn2   1.946334 S    
N20   C100  1.445810 S    
C72   C74   1.410890 A    
N15   C95   1.445791 S    
N11   H35   1.026955 S    
O3    C3    1.308490 A    
C88   N26   1.431247 S    
H21   C81   1.082460 S    
C96   H56   1.110161 S    
C28   C32   1.417754 A    
C24   C28   1.389485 A    
C11   N19   1.424529 S    
C75   N3    1.377213 A    
C91   H37   1.100992 S    
N22   O27   1.301755 A    
O14   C6    1.320474 A    
C79   C81   1.378780 A    
C44   C46   1.416012 A    
C68   N4    1.373213 A    
H22   C82   1.082555 S    
C21   H13   1.082600 S    
C45   N13   1.422355 S    
C18   H6    1.083856 S    
C20   C64   1.401439 A    
N2    C88   1.365728 A    
C19   C23   1.390863 A    
C33   C61   1.411863 A    
C74   C78   1.411546 A    
N14   C94   1.448349 S    
C15   C55   1.395138 A    
C67   C69   1.409087 A    
Zn4   N4    2.070801 S    
