data_mof_unit_58596.cif
_audit_creation_date              2012-12-11T17:47:33-0500
_audit_creation_method            fapswitch 2.2
_symmetry_space_group_name_H-M    P1
_symmetry_Int_Tables_number       1
_space_group_crystal_system       triclinic
_cell_length_a                    14.846875
_cell_length_b                    14.864297
_cell_length_c                    15.125561
_cell_angle_alpha                 110.387838
_cell_angle_beta                  108.883817
_cell_angle_gamma                 108.618637
_cell_volume                      2585.543663

loop_
_atom_site_label
_atom_site_type_symbol
_atom_type_description
_atom_site_fract_x
_atom_site_fract_y
_atom_site_fract_z
_atom_type_partial_charge
C1    C     C_R   0.907418 0.194060 0.992439 -0.131686
C2    C     C_R   0.026036 0.751827 0.938413 -0.089120
C3    C     C_R   0.296720 0.869065 0.298749 0.110356
C4    C     C_R   0.677121 0.212861 0.673940 0.084750
C5    C     C_R   0.325017 0.499162 0.049888 0.041127
C6    C     C_R   0.693312 0.498241 0.058167 0.037651
C7    C     C_R   0.037543 0.496129 0.320509 0.052720
C8    C     C_R   0.053510 0.498103 0.694358 0.060474
C9    C     C_R   0.935646 0.859639 0.837264 -0.191928
C10   C     C_R   0.825076 0.956283 0.909635 -0.147059
C11   C     C_R   0.118894 0.073845 0.726958 -0.134501
C12   C     C_R   0.853781 0.976695 0.207950 -0.132463
C13   C     C_R   0.030922 0.010021 0.732720 -0.171072
C14   C     C_R   0.883124 0.964241 0.127464 -0.099945
C15   C     C_R   0.673805 0.320713 0.196421 -0.114344
C16   C     C_R   0.390924 0.690144 0.884141 -0.134882
C17   C     C_R   0.778546 0.388111 0.286039 -0.116656
C18   C     C_R   0.302374 0.612415 0.781049 -0.113906
C19   C     C_R   0.845735 0.343075 0.313589 0.113269
C20   C     C_R   0.257083 0.645914 0.709959 0.111565
C21   C     C_R   0.806769 0.229993 0.250485 -0.193847
C22   C     C_R   0.306300 0.757958 0.741495 -0.148912
C23   C     C_R   0.295080 0.805027 0.205559 -0.093320
C24   C     C_R   0.684977 0.240876 0.775581 -0.057450
C25   C     C_R   0.702253 0.163043 0.160503 -0.105430
C26   C     C_R   0.396807 0.835354 0.844032 -0.082404
C27   C     C_R   0.635698 0.208392 0.133539 -0.100799
C28   C     C_R   0.438167 0.801662 0.915858 -0.104683
C29   C     C_R   0.965524 0.415628 0.503281 -0.239479
C30   C     C_R   0.145591 0.562584 0.511441 -0.225488
C31   C     C_R   0.061423 0.491931 0.600976 0.068857
C32   C     C_R   0.047402 0.488867 0.414528 0.068615
C33   C     C_R   0.153932 0.565280 0.606589 0.018950
C34   C     C_R   0.956158 0.414093 0.409868 0.017033
C35   C     C_R   0.046402 0.014635 0.830876 0.091093
C36   C     C_R   0.809897 0.876953 0.020843 0.063658
C37   C     C_R   0.240821 0.133273 0.911756 -0.129805
C38   C     C_R   0.678347 0.815579 0.077015 -0.142893
C39   C     C_R   0.091989 0.982382 0.410295 -0.253640
C40   C     C_R   0.794709 0.993168 0.498764 -0.290335
C41   C     C_R   0.193172 0.029298 0.415504 0.594489
C42   C     C_R   0.703510 0.999960 0.501431 0.533550
C43   C     C_R   0.281106 0.024148 0.482640 -0.126430
C44   C     C_R   0.672857 0.069979 0.470402 -0.082580
C45   C     C_R   0.224184 0.407275 0.974885 -0.151841
C46   C     C_R   0.785950 0.590621 0.091895 -0.160264
C47   C     C_R   0.268324 0.981318 0.550091 -0.221357
C48   C     C_R   0.731206 0.126729 0.432647 -0.239511
C49   C     C_R   0.166837 0.934536 0.543324 -0.106591
C50   C     C_R   0.824804 0.122751 0.435829 -0.120956
C51   C     C_R   0.078220 0.933137 0.471859 -0.224368
C52   C     C_R   0.856655 0.056359 0.469040 -0.183410
C53   C     C_R   0.479610 0.132398 0.565617 -0.192519
C54   C     C_R   0.481449 0.013108 0.379076 -0.166319
C55   C     C_R   0.578334 0.144522 0.569216 0.081313
C56   C     C_R   0.383342 0.982108 0.381539 0.128218
C57   C     C_R   0.578747 0.082891 0.473830 0.086865
C58   C     C_R   0.381332 0.048059 0.474043 0.143265
C59   C     C_R   0.224002 0.133900 0.815613 -0.104200
C60   C     C_R   0.751581 0.901670 0.182883 -0.121741
C61   C     C_R   0.836255 0.878047 0.935458 0.006682
C62   C     C_R   0.952828 0.959146 0.842752 0.039964
C63   C     C_R   0.152141 0.074964 0.919963 -0.144188
C64   C     C_R   0.706541 0.802873 0.995460 -0.145049
C65   C     C_R   0.898659 0.832253 0.903549 0.057228
C66   C     C_R   0.900199 0.012067 0.885491 0.096207
C67   C     C_R   0.056575 0.590524 0.313729 -0.134250
C68   C     C_R   0.000514 0.407656 0.699421 -0.170066
C69   C     C_3   0.492678 0.392510 0.020611 -0.187555
C70   C     C_3   0.535519 0.601977 0.120408 -0.166501
C71   C     C_3   0.434949 0.443915 0.967877 -0.144547
C72   C     C_3   0.594259 0.550578 0.173532 -0.147382
C73   C     C_3   0.426670 0.498603 0.069486 0.192350
C74   C     C_3   0.600950 0.496186 0.071131 0.187632
C75   C     C_3   0.482902 0.446790 0.122510 -0.153565
C76   C     C_3   0.543533 0.546989 0.018334 -0.151189
C77   C     C_R   0.314736 0.591663 0.066034 -0.120981
C78   C     C_R   0.696491 0.407455 0.998868 -0.132472
C79   C     C_R   0.973979 0.406264 0.218209 -0.098791
C80   C     C_R   0.086974 0.590839 0.787681 -0.134554
C81   C     C_R   0.206537 0.803135 0.298946 -0.105883
C82   C     C_R   0.781066 0.251676 0.688292 -0.122652
C83   C     C_R   0.997048 0.195997 0.900369 -0.111661
C84   C     C_R   0.930798 0.748460 0.026816 -0.063479
C85   C     C_R   0.936561 0.130034 0.927145 0.065135
C86   C     C_R   0.946961 0.777343 0.952808 0.065674
H1    H     H_    0.848549 0.166223 0.017253 0.095042
H2    H     H_    0.061604 0.764607 0.889281 0.087389
H3    H     H_    0.105429 0.078371 0.654499 0.139579
H4    H     H_    0.909468 0.045861 0.289010 0.138541
H5    H     H_    0.322005 0.179827 0.980694 0.114893
H6    H     H_    0.598547 0.761108 0.058256 0.106316
H7    H     H_    0.554705 0.156608 0.063925 0.097065
H8    H     H_    0.506217 0.862176 0.996199 0.108496
H9    H     H_    0.622117 0.355535 0.175953 0.117130
H10   H     H_    0.420905 0.663213 0.939502 0.108484
H11   H     H_    0.807223 0.475054 0.334014 0.108018
H12   H     H_    0.266444 0.526493 0.758241 0.116027
H13   H     H_    0.858654 0.194640 0.268861 0.119946
H14   H     H_    0.272546 0.785820 0.688310 0.108273
H15   H     H_    0.673145 0.076207 0.111472 0.117347
H16   H     H_    0.433416 0.921709 0.868680 0.105130
H17   H     H_    0.893668 0.362723 0.500968 0.134498
H18   H     H_    0.214578 0.618835 0.512766 0.148015
H19   H     H_    0.950203 0.962667 0.663635 0.134172
H20   H     H_    0.961183 0.024716 0.146712 0.170103
H21   H     H_    0.455225 0.405890 0.164888 0.126494
H22   H     H_    0.568501 0.583600 0.972008 0.118937
H23   H     H_    0.341848 0.832176 0.169354 0.081218
H24   H     H_    0.619464 0.222643 0.794458 0.082849
H25   H     H_    0.165402 0.077882 0.995911 0.142260
H26   H     H_    0.647376 0.737843 0.912868 0.133068
H27   H     H_    0.999173 0.895755 0.465743 0.137742
H28   H     H_    0.928527 0.052483 0.470112 0.138480
H29   H     H_    0.022998 0.982070 0.356952 0.162906
H30   H     H_    0.818110 0.938732 0.519660 0.152629
H31   H     H_    0.334994 0.977159 0.602287 0.158032
H32   H     H_    0.707550 0.178753 0.406540 0.155502
H33   H     H_    0.156420 0.897592 0.592106 0.131897
H34   H     H_    0.873485 0.171694 0.413412 0.128896
H35   H     H_    0.478487 0.181820 0.637073 0.119248
H36   H     H_    0.485938 0.967826 0.308734 0.109753
H37   H     H_    0.973246 0.818824 0.800851 0.119144
H38   H     H_    0.776194 0.989552 0.933072 0.123589
H39   H     H_    0.368471 0.400377 0.883001 0.115463
H40   H     H_    0.662541 0.593838 0.257344 0.111593
H41   H     H_    0.477641 0.306961 0.979929 0.100163
H42   H     H_    0.552968 0.688150 0.163681 0.104813
H43   H     H_    0.205265 0.322322 0.940441 0.126748
H44   H     H_    0.812467 0.674441 0.149069 0.113369
H45   H     H_    0.100230 0.674611 0.379292 0.110318
H46   H     H_    0.976665 0.323535 0.645990 0.120468
H47   H     H_    0.378279 0.676545 0.115441 0.096279
H48   H     H_    0.642373 0.322817 0.970666 0.092494
H49   H     H_    0.945796 0.320982 0.194868 0.109479
H50   H     H_    0.140006 0.675091 0.813949 0.108586
H51   H     H_    0.173731 0.824583 0.351370 0.113907
H52   H     H_    0.806992 0.254077 0.630775 0.120836
H53   H     H_    0.013923 0.171144 0.834879 0.123827
H54   H     H_    0.874928 0.753352 0.056314 0.112979
H55   H     H_    0.292001 0.181593 0.809950 0.111260
H56   H     H_    0.727784 0.911020 0.244534 0.134706
N1    N     N_R   0.947560 0.293820 0.002910 -0.042236
N2    N     N_R   0.052440 0.706180 0.997090 -0.044675
N3    N     N_R   0.208960 0.706170 0.152110 -0.044659
N4    N     N_R   0.791040 0.293830 0.847890 -0.044552
N5    N     N_R   0.154330 0.443160 0.946140 -0.042212
N6    N     N_R   0.845670 0.556840 0.053860 -0.045278
N7    N     N_R   0.002190 0.556820 0.208880 -0.043395
N8    N     N_R   0.997810 0.443180 0.791120 -0.041895
N9    N     N_R   0.210550 0.556810 0.002910 -0.041852
N10   N     N_R   0.789450 0.443190 0.997090 -0.042423
N11   N     N_R   0.945970 0.443180 0.152110 -0.043861
N12   N     N_R   0.054030 0.556820 0.847890 -0.043456
N13   N     N_R   0.151530 0.706170 0.208880 -0.045245
N14   N     N_R   0.848470 0.293830 0.791120 -0.041815
N15   N     N_R   0.004980 0.293810 0.946140 -0.045088
N16   N     N_R   0.995020 0.706190 0.053860 -0.044587
Ni1   Ni    Ni4+2 0.869690 0.369690 0.000000 0.226359
Ni2   Ni    Ni4+2 0.130310 0.630310 0.000000 0.222039
Ni3   Ni    Ni4+2 0.001390 0.369680 0.869810 0.221423
Ni4   Ni    Ni4+2 0.998610 0.630320 0.130190 0.226505
S1    S     S_3+6 0.204856 0.090927 0.335737 -0.083642
O1    O     O_2   0.321863 0.169391 0.377517 -0.297114
O2    O     O_2   0.157197 0.002407 0.221154 -0.334408
O3    O     O_3   0.134771 0.160201 0.338892 -0.578383
H57   H     H_    0.146405 0.194597 0.295183 0.367881
S2    S     S_3+6 0.631586 0.920733 0.544701 -0.055231
O4    O     O_2   0.661221 0.994277 0.658851 -0.276209
O5    O     O_2   0.510640 0.867648 0.473610 -0.316878
O6    O     O_3   0.665370 0.822352 0.541799 -0.518526
H58   H     H_    0.635140 0.770942 0.464045 0.333224

loop_
_geom_bond_atom_site_label_1
_geom_bond_atom_site_label_2
_ccdc_geom_bond_type
C16   C28   A    
C39   C51   A    
O6    H58   S    
C75   H21   S    
C67   N7    A    
C2    N2    A    
C3    C23   A    
S1    O1    D    
C17   H11   S    
C77   N9    A    
C66   C85   S    
C83   H53   S    
C78   N10   A    
C65   C86   S    
C39   C41   A    
C40   H30   S    
C81   H51   S    
C23   N3    A    
C51   H27   S    
C10   C66   A    
C42   C44   A    
C50   H34   S    
C12   H4    S    
C19   C21   A    
C84   C86   A    
C13   C35   A    
C10   H38   S    
C15   H9    S    
C71   C76   S    
C21   H13   S    
C6    C78   A    
C38   H6    S    
C29   H17   S    
C7    C67   A    
C28   H8    S    
C2    C86   A    
C1    H1    S    
C69   C71   S    
N7    N11   A    
C14   C36   A    
C22   C26   A    
C43   C58   S    
C60   H56   S    
S2    O6    S    
C46   N6    A    
C49   C51   A    
C3    C81   A    
C50   C52   A    
C31   C33   A    
C2    H2    S    
N2    Ni2   S    
N1    N15   A    
C82   N14   A    
S2    O5    D    
C54   H36   S    
N10   Ni1   S    
C76   H22   S    
C5    C73   S    
C41   C43   A    
C77   H47   S    
C72   C75   S    
C11   C59   A    
C47   C49   A    
C37   C63   A    
C42   S2    S    
C6    C74   S    
C38   C64   A    
C53   C55   A    
N13   Ni4   S    
C1    C85   A    
C23   H23   S    
C54   C56   A    
C16   H10   S    
C22   H14   S    
C37   H5    S    
C9    C62   A    
S1    O3    S    
C24   H24   S    
C72   C74   S    
N5    Ni3   S    
C71   C73   S    
N3    Ni2   S    
C62   C66   A    
C48   H32   S    
N4    Ni1   S    
C40   C52   A    
C5    C45   A    
C29   C34   A    
C72   H40   S    
C68   H46   S    
N11   Ni1   S    
N5    N9    A    
N12   Ni2   S    
C1    N1    A    
C79   N11   A    
C3    C56   S    
C11   H3    S    
C15   C27   A    
C83   N15   A    
C14   H20   S    
C44   C57   S    
C69   H41   S    
C70   C73   S    
N4    N14   A    
C69   C74   S    
C16   C18   A    
C80   N12   A    
C78   H48   S    
C59   H55   S    
C37   C59   A    
C74   C76   S    
C38   C60   A    
C20   C33   S    
C9    H37   S    
C12   C60   A    
C13   H19   S    
S2    O4    D    
C83   C85   A    
C12   C14   A    
N14   Ni3   S    
C8    C68   A    
C39   H29   S    
C55   C57   A    
C4    C55   S    
C70   C76   S    
O3    H57   S    
C27   H7    S    
C10   C61   A    
C73   C75   S    
C5    C77   A    
C36   C61   S    
N15   Ni3   S    
C7    C79   A    
C70   H42   S    
C15   C17   A    
N8    Ni3   S    
C21   C25   A    
C84   N16   A    
C7    C32   S    
C6    C46   A    
C30   C33   A    
S1    O2    D    
C45   N5    A    
C8    C31   S    
C67   H45   S    
N6    N10   A    
C20   C22   A    
C40   C42   A    
C19   C34   S    
C81   N13   A    
C46   H44   S    
C70   C72   S    
C53   C58   A    
N1    Ni1   S    
C52   H28   S    
C25   C27   A    
C79   H49   S    
C26   C28   A    
C80   H50   S    
N6    Ni4   S    
N9    Ni2   S    
C41   S1    S    
C29   C31   A    
C24   N4    A    
C26   H16   S    
C30   C32   A    
C11   C13   A    
C25   H15   S    
C49   H33   S    
C43   C47   A    
C4    C24   A    
C45   H43   S    
C48   C50   A    
C17   C19   A    
C56   C58   A    
C69   C75   S    
C35   C62   S    
C18   C20   A    
C63   H25   S    
C9    C65   A    
C64   H26   S    
C68   N8    A    
N16   Ni4   S    
C53   H35   S    
N3    N13   A    
C61   C65   A    
C47   H31   S    
C4    C82   A    
C84   H54   S    
C82   H52   S    
N8    N12   A    
C30   H18   S    
C8    C80   A    
C71   H39   S    
C35   C63   A    
N7    Ni4   S    
C18   H12   S    
C36   C64   A    
N2    N16   A    
C44   C48   A    
C32   C34   A    
C54   C57   A    
