data_mof_unit_23833.cif
_audit_creation_date              2012-12-11T15:52:39-0500
_audit_creation_method            fapswitch 2.2
_symmetry_space_group_name_H-M    P1
_symmetry_Int_Tables_number       1
_space_group_crystal_system       triclinic
_cell_length_a                    6.926697
_cell_length_b                    14.555043
_cell_length_c                    16.018535
_cell_angle_alpha                 90.263909
_cell_angle_beta                  90.026249
_cell_angle_gamma                 90.01309
_cell_volume                      1614.94528758

loop_
_atom_site_label
_atom_site_type_symbol
_atom_type_description
_atom_site_fract_x
_atom_site_fract_y
_atom_site_fract_z
_atom_type_partial_charge
O1    O     O_R   0.494400 0.415640 0.412830 -0.543867
O2    O     O_R   0.823920 0.405510 0.586560 -0.545694
O3    O     O_R   0.994250 0.584360 0.587170 -0.543229
C1    C     C_R   0.654882 0.383200 0.615391 0.678035
O4    O     O_R   0.824110 0.404610 0.413450 -0.545242
O5    O     O_R   0.994440 0.583460 0.412820 -0.542444
C2    C     C_R   0.655018 0.382185 0.384331 0.679057
O6    O     O_R   0.494210 0.416540 0.587180 -0.545146
O7    O     O_3   0.660810 0.558680 0.500000 -0.355950
V1    V     V_3+5 0.935650 0.489110 0.500000 1.406606
O8    O     O_R   0.324150 0.594490 0.413440 -0.539285
C3    C     C_R   0.155078 0.616657 0.384350 0.691004
O9    O     O_R   0.323970 0.595390 0.586550 -0.516458
C4    C     C_R   0.155203 0.618054 0.615307 0.695929
V2    V     V_3+5 0.435660 0.510890 0.500000 1.452245
O10   O     O_3   0.160630 0.441320 0.500000 -0.376481
C5    C     C_3   0.052371 0.644837 0.764756 -0.438488
H1    H     H_    0.905283 0.618771 0.749700 0.172342
H2    H     H_    0.139820 0.584937 0.785336 0.126578
C6    C     C_3   0.038187 0.715998 0.837176 -0.339409
H3    H     H_    0.117428 0.689796 0.892628 0.131979
H4    H     H_    0.871586 0.749515 0.644259 0.186875
H5    H     H_    0.855337 0.855708 0.749733 0.161194
C7    C     C_3   0.020226 0.772446 0.660590 -0.281715
C8    C     C_3   0.349606 0.723997 0.710686 0.520629
C9    C     C_3   0.145146 0.688332 0.685882 0.012936
H6    H     H_    0.441125 0.665182 0.730673 0.032014
C10   C     C_3   0.123126 0.810047 0.810519 0.038442
C11   C     C_3   0.009284 0.843850 0.732930 -0.323689
C12   C     C_3   0.336520 0.794018 0.783329 -0.336848
H7    H     H_    0.402602 0.860324 0.763954 0.174571
H8    H     H_    0.081848 0.805471 0.604056 0.173943
H9    H     H_    0.069159 0.910673 0.711527 0.139673
C13   C     C_R   0.953225 0.773714 0.215854 -0.156116
H10   H     H_    0.812372 0.791950 0.191728 0.116365
C14   C     C_R   0.964250 0.710565 0.281437 -0.148420
H11   H     H_    0.831349 0.681959 0.305617 0.119600
C15   C     C_R   0.143944 0.684633 0.315149 -0.046706
C16   C     C_R   0.312298 0.723660 0.281347 -0.147530
H12   H     H_    0.453150 0.705424 0.305474 0.119031
C17   C     C_R   0.301273 0.786811 0.215765 -0.152375
H13   H     H_    0.434173 0.815419 0.191587 0.119069
C18   C     C_R   0.121579 0.812737 0.182048 -0.049243
C19   C     C_R   0.812281 0.274314 0.716294 -0.157139
H14   H     H_    0.953064 0.292908 0.692362 0.116049
C20   C     C_R   0.801326 0.209610 0.780479 -0.152818
H15   H     H_    0.934193 0.180257 0.803964 0.118112
C21   C     C_R   0.621659 0.183188 0.813738 -0.045150
C22   C     C_R   0.453239 0.223176 0.780994 -0.156422
C23   C     C_R   0.464193 0.287875 0.716806 -0.154958
H16   H     H_    0.331323 0.317220 0.693315 0.116136
C24   C     C_R   0.643859 0.314296 0.683546 -0.044799
C25   C     C_R   0.812172 0.274165 0.281328 -0.154928
H17   H     H_    0.953021 0.292707 0.305422 0.116407
C26   C     C_R   0.801130 0.210298 0.215789 -0.150130
H18   H     H_    0.934015 0.181473 0.191612 0.119177
C27   C     C_R   0.621445 0.183949 0.182108 -0.047528
C28   C     C_R   0.453111 0.223284 0.215912 -0.155147
H19   H     H_    0.312267 0.204738 0.191814 0.116622
C29   C     C_R   0.464153 0.287155 0.281453 -0.150882
H20   H     H_    0.331275 0.315983 0.305634 0.117369
C30   C     C_R   0.643843 0.313500 0.315134 -0.045017
O11   O     O_R   0.771300 0.080930 0.910090 -0.540793
O12   O     O_R   0.441270 0.092800 0.083770 -0.542875
O13   O     O_R   0.271080 0.913920 0.084380 -0.540099
C31   C     C_R   0.610327 0.115259 0.112912 0.689419
O14   O     O_R   0.441580 0.091910 0.910670 -0.543912
O15   O     O_R   0.271390 0.913020 0.910040 -0.540873
C32   C     C_R   0.610627 0.114258 0.881871 0.686644
O16   O     O_R   0.770990 0.081830 0.084440 -0.539969
O17   O     O_3   0.604750 0.938760 0.997250 -0.369685
V3    V     V_3+5 0.329850 0.008280 0.997210 1.393853
O18   O     O_R   0.941680 0.901940 0.910610 -0.543575
C33   C     C_R   0.110903 0.879784 0.881478 0.678967
O19   O     O_R   0.941370 0.902830 0.083720 -0.543458
C34   C     C_R   0.110443 0.880703 0.112837 0.686497
V4    V     V_3+5 0.829860 0.986420 0.997150 1.392509
O20   O     O_3   0.104830 0.056030 0.997180 -0.368741
H21   H     H_    0.312455 0.204583 0.804926 0.116090
H22   H     H_    0.884279 0.724371 0.855656 0.156975
F1    F     F_    0.439024 0.764934 0.642844 -0.701728
H23   H     H_    0.422253 0.768071 0.837110 0.096018

loop_
_geom_bond_atom_site_label_1
_geom_bond_atom_site_label_2
_ccdc_geom_bond_type
C26   H18   S    
C17   H13   S    
C21   C32   S    
C1    O6    A    
C10   C33   S    
C16   C17   A    
C31   O16   A    
C25   H17   S    
O13   C34   A    
C1    C24   S    
C5    C9    S    
H5    C11   S    
C14   H11   S    
C7    C9    S    
O14   V3    S    
O5    C3    A    
C15   C16   A    
O15   C33   A    
V2    O10   S    
C11   H9    S    
C8    C12   S    
C5    C6    S    
C29   C30   A    
C13   H10   S    
O18   C33   A    
C7    C11   S    
V3    O20   S    
O8    V2    S    
O11   C32   A    
C23   C24   A    
O1    V2    S    
O7    V1    S    
C27   C31   S    
C19   C24   A    
O9    C4    A    
O16   V4    S    
C8    F1    S    
C17   C18   A    
C8    C9    S    
C19   C20   A    
C23   H16   S    
C25   C26   A    
C20   C21   A    
C6    H22   S    
C16   H12   S    
O4    C2    A    
C6    C10   S    
C28   H19   S    
V4    O20   S    
C22   H21   S    
C29   H20   S    
O14   C32   A    
O12   C31   A    
C12   H23   S    
O2    C1    A    
O19   C34   A    
C7    H8    S    
C2    C30   S    
C25   C30   A    
O15   V3    S    
C5    H1    S    
C4    C9    S    
O19   V4    S    
O3    C4    A    
C21   C22   A    
O6    V2    S    
O9    V2    S    
H4    C7    S    
C14   C15   A    
O2    V1    S    
O17   V4    S    
C19   H14   S    
O11   V4    S    
C18   C34   S    
C20   H15   S    
C10   C11   S    
O1    C2    A    
C13   C18   A    
O5    V1    S    
O8    C3    A    
C8    H6    S    
O13   V3    S    
C26   C27   A    
O7    V2    S    
O17   V3    S    
O3    V1    S    
V1    O10   S    
C27   C28   A    
C12   H7    S    
C10   C12   S    
C5    H2    S    
C13   C14   A    
O12   V3    S    
C3    C15   S    
O4    V1    S    
C6    H3    S    
C22   C23   A    
O18   V4    S    
C28   C29   A    
