data_mof_unit_38127.cif
_audit_creation_date              2013-03-05T15:39:57-0500
_audit_creation_method            fapswitch 2.2
_symmetry_space_group_name_H-M    P1
_symmetry_Int_Tables_number       1
_space_group_crystal_system       triclinic
_cell_length_a                    33.949953
_cell_length_b                    33.739588
_cell_length_c                    33.824434
_cell_angle_alpha                 89.891496
_cell_angle_beta                  89.879596
_cell_angle_gamma                 89.722462
_cell_volume                      38743.8403087

loop_
_atom_site_label
_atom_site_type_symbol
_atom_site_description
_atom_site_fract_x
_atom_site_fract_y
_atom_site_fract_z
_atom_type_partial_charge
O1    O     O_R   0.255510 0.696500 0.093110 -0.523251
O2    O     O_R   0.906890 0.303500 0.255510 -0.526988
O3    O     O_R   0.744490 0.696500 0.906890 -0.522464
O4    O     O_R   0.093110 0.303500 0.744490 -0.518061
O5    O     O_R   0.255510 0.303500 0.906890 -0.519429
O6    O     O_R   0.906890 0.696500 0.744490 -0.527384
O7    O     O_R   0.744490 0.303500 0.093110 -0.517321
O8    O     O_R   0.093110 0.696500 0.255510 -0.521271
O9    O     O_R   0.303500 0.093110 0.744490 -0.521455
O10   O     O_R   0.696500 0.255510 0.093110 -0.521929
O11   O     O_R   0.303500 0.906890 0.255510 -0.512727
O12   O     O_R   0.696500 0.744490 0.906890 -0.514347
O13   O     O_R   0.696500 0.906890 0.744490 -0.529374
O14   O     O_R   0.303500 0.744490 0.093110 -0.511598
O15   O     O_R   0.696500 0.093110 0.255510 -0.552164
O16   O     O_R   0.303500 0.255510 0.906890 -0.512586
O17   O     O_R   0.906890 0.744490 0.696500 -0.510278
O18   O     O_R   0.744490 0.093110 0.303500 -0.511306
O19   O     O_R   0.093110 0.255510 0.696500 -0.513803
O20   O     O_R   0.255510 0.906890 0.303500 -0.517944
O21   O     O_R   0.093110 0.744490 0.303500 -0.521293
O22   O     O_R   0.255510 0.093110 0.696500 -0.517588
O23   O     O_R   0.906890 0.255510 0.303500 -0.516216
O24   O     O_R   0.744490 0.906890 0.696500 -0.516213
O25   O     O_R   0.755510 0.196500 0.093110 -0.546527
O26   O     O_R   0.906890 0.803500 0.755510 -0.524386
O27   O     O_R   0.244490 0.196500 0.906890 -0.525847
O28   O     O_R   0.093110 0.803500 0.244490 -0.521571
O29   O     O_R   0.755510 0.803500 0.906890 -0.526853
O30   O     O_R   0.906890 0.196500 0.244490 -0.523754
O31   O     O_R   0.244490 0.803500 0.093110 -0.521740
O32   O     O_R   0.093110 0.196500 0.755510 -0.521620
O33   O     O_R   0.803500 0.093110 0.244490 -0.518144
O34   O     O_R   0.196500 0.755510 0.093110 -0.521640
O35   O     O_R   0.803500 0.906890 0.755510 -0.514250
O36   O     O_R   0.196500 0.244490 0.906890 -0.520939
O37   O     O_R   0.196500 0.906890 0.244490 -0.527900
O38   O     O_R   0.803500 0.244490 0.093110 -0.519395
O39   O     O_R   0.196500 0.093110 0.755510 -0.514676
O40   O     O_R   0.803500 0.755510 0.906890 -0.525234
O41   O     O_R   0.906890 0.244490 0.196500 -0.513305
O42   O     O_R   0.244490 0.093110 0.803500 -0.522273
O43   O     O_R   0.093110 0.755510 0.196500 -0.515545
O44   O     O_R   0.755510 0.906890 0.803500 -0.516562
O45   O     O_R   0.093110 0.244490 0.803500 -0.521108
O46   O     O_R   0.755510 0.093110 0.196500 -0.552679
O47   O     O_R   0.906890 0.755510 0.803500 -0.515099
O48   O     O_R   0.244490 0.906890 0.196500 -0.523536
O49   O     O_R   0.755510 0.696500 0.593110 -0.510691
O50   O     O_R   0.406890 0.303500 0.755510 -0.524580
O51   O     O_R   0.244490 0.696500 0.406890 -0.519495
O52   O     O_R   0.593110 0.303500 0.244490 -0.514613
O53   O     O_R   0.755510 0.303500 0.406890 -0.523751
O54   O     O_R   0.406890 0.696500 0.244490 -0.519640
O55   O     O_R   0.244490 0.303500 0.593110 -0.519413
O56   O     O_R   0.593110 0.696500 0.755510 -0.521289
O57   O     O_R   0.303500 0.593110 0.244490 -0.520835
O58   O     O_R   0.696500 0.755510 0.593110 -0.514663
O59   O     O_R   0.303500 0.406890 0.755510 -0.522047
O60   O     O_R   0.696500 0.244490 0.406890 -0.513183
O61   O     O_R   0.696500 0.406890 0.244490 -0.520580
O62   O     O_R   0.303500 0.244490 0.593110 -0.520732
O63   O     O_R   0.696500 0.593110 0.755510 -0.512534
O64   O     O_R   0.303500 0.755510 0.406890 -0.527226
O65   O     O_R   0.406890 0.244490 0.696500 -0.514656
O66   O     O_R   0.244490 0.593110 0.303500 -0.524529
O67   O     O_R   0.593110 0.755510 0.696500 -0.515377
O68   O     O_R   0.755510 0.406890 0.303500 -0.514477
O69   O     O_R   0.593110 0.244490 0.303500 -0.518551
O70   O     O_R   0.755510 0.593110 0.696500 -0.520790
O71   O     O_R   0.406890 0.755510 0.303500 -0.517954
O72   O     O_R   0.244490 0.406890 0.696500 -0.514965
O73   O     O_R   0.255510 0.196500 0.593110 -0.518776
O74   O     O_R   0.406890 0.803500 0.255510 -0.517998
O75   O     O_R   0.744490 0.196500 0.406890 -0.519400
O76   O     O_R   0.593110 0.803500 0.744490 -0.513184
O77   O     O_R   0.255510 0.803500 0.406890 -0.517295
O78   O     O_R   0.406890 0.196500 0.744490 -0.524168
O79   O     O_R   0.744490 0.803500 0.593110 -0.519399
O80   O     O_R   0.593110 0.196500 0.255510 -0.550214
O81   O     O_R   0.803500 0.593110 0.744490 -0.520023
O82   O     O_R   0.196500 0.255510 0.593110 -0.511776
O83   O     O_R   0.803500 0.406890 0.255510 -0.529041
O84   O     O_R   0.196500 0.744490 0.406890 -0.519706
O85   O     O_R   0.196500 0.406890 0.744490 -0.517719
O86   O     O_R   0.803500 0.744490 0.593110 -0.519618
O87   O     O_R   0.196500 0.593110 0.255510 -0.523571
O88   O     O_R   0.803500 0.255510 0.406890 -0.509168
O89   O     O_R   0.406890 0.744490 0.196500 -0.524549
O90   O     O_R   0.744490 0.593110 0.803500 -0.525304
O91   O     O_R   0.593110 0.255510 0.196500 -0.517421
O92   O     O_R   0.255510 0.406890 0.803500 -0.526873
O93   O     O_R   0.593110 0.744490 0.803500 -0.523289
O94   O     O_R   0.255510 0.593110 0.196500 -0.516117
O95   O     O_R   0.406890 0.255510 0.803500 -0.513707
O96   O     O_R   0.744490 0.406890 0.196500 -0.518280
C1    C     C_R   0.392192 0.660054 0.838635 0.028000
C2    C     C_R   0.159362 0.340650 0.393263 0.027809
C3    C     C_R   0.606066 0.658399 0.159389 0.027919
C4    C     C_R   0.840540 0.340034 0.607412 0.027223
C5    C     C_R   0.393094 0.340991 0.160083 0.027081
C6    C     C_R   0.160153 0.659669 0.607669 0.027716
C7    C     C_R   0.605223 0.341126 0.840989 0.027411
C8    C     C_R   0.841073 0.659998 0.392498 0.028153
C9    C     C_R   0.339906 0.840231 0.607615 0.027678
C10   C     C_R   0.657218 0.394095 0.841402 0.026848
C11   C     C_R   0.340606 0.159261 0.393296 0.027769
C12   C     C_R   0.659841 0.607336 0.160858 0.027963
C13   C     C_R   0.658377 0.159550 0.607062 0.027032
C14   C     C_R   0.341112 0.606522 0.839982 0.027520
C15   C     C_R   0.659319 0.841057 0.392508 0.026878
C16   C     C_R   0.339587 0.392270 0.161310 0.028112
C17   C     C_R   0.159717 0.606646 0.659775 0.028307
C18   C     C_R   0.606539 0.841572 0.340435 0.027851
C19   C     C_R   0.840439 0.392507 0.659920 0.026755
C20   C     C_R   0.393037 0.159435 0.340494 0.026979
C21   C     C_R   0.841061 0.607143 0.340038 0.026311
C22   C     C_R   0.392545 0.840237 0.660043 0.027412
C23   C     C_R   0.159269 0.393465 0.340746 0.027827
C24   C     C_R   0.606142 0.159904 0.659830 0.028793
C25   C     C_R   0.894145 0.159471 0.840517 0.028274
C26   C     C_R   0.160808 0.839347 0.891019 0.027986
C27   C     C_R   0.106896 0.158783 0.160076 0.026303
C28   C     C_R   0.840917 0.840773 0.107680 0.027144
C29   C     C_R   0.894026 0.841692 0.159290 0.028367
C30   C     C_R   0.159474 0.159182 0.108002 0.027937
C31   C     C_R   0.108292 0.839302 0.838515 0.027717
C32   C     C_R   0.841953 0.159126 0.893399 0.026849
C33   C     C_R   0.160168 0.892382 0.839110 0.027135
C34   C     C_R   0.159838 0.107059 0.160802 0.027654
C35   C     C_R   0.841905 0.106657 0.840847 0.026911
C36   C     C_R   0.840264 0.892709 0.160811 0.028363
C37   C     C_R   0.894045 0.659258 0.340677 0.028616
C38   C     C_R   0.657123 0.341566 0.893980 0.027449
C39   C     C_R   0.107548 0.659673 0.660170 0.027352
C40   C     C_R   0.340125 0.340262 0.108371 0.027746
C41   C     C_R   0.893482 0.340238 0.659582 0.027834
C42   C     C_R   0.659236 0.659289 0.107732 0.027396
C43   C     C_R   0.107009 0.340463 0.340456 0.026936
C44   C     C_R   0.340131 0.659629 0.891644 0.027171
C45   C     C_R   0.660040 0.892847 0.339185 0.028692
C46   C     C_R   0.658411 0.107087 0.659514 0.026214
C47   C     C_R   0.340699 0.106501 0.340768 0.027970
C48   C     C_R   0.340226 0.893160 0.659790 0.028161
O97   O     O_R   0.196460 0.755500 0.009310 -0.586511
O98   O     O_R   0.990690 0.244500 0.196460 -0.577763
O99   O     O_R   0.803540 0.755500 0.990690 -0.586901
O100  O     O_R   0.009310 0.244500 0.803540 -0.590813
O101  O     O_R   0.196460 0.244500 0.990690 -0.580871
O102  O     O_R   0.990690 0.755500 0.803540 -0.578289
O103  O     O_R   0.803540 0.244500 0.009310 -0.588054
O104  O     O_R   0.009310 0.755500 0.196460 -0.582078
O105  O     O_R   0.244500 0.009310 0.803540 -0.582194
O106  O     O_R   0.755500 0.196460 0.009310 -0.591256
O107  O     O_R   0.244500 0.990690 0.196460 -0.585140
O108  O     O_R   0.755500 0.803540 0.990690 -0.586893
O109  O     O_R   0.755500 0.990690 0.803540 -0.580296
O110  O     O_R   0.244500 0.803540 0.009310 -0.585743
O111  O     O_R   0.755500 0.009310 0.196460 -0.590350
O112  O     O_R   0.244500 0.196460 0.990690 -0.585535
O113  O     O_R   0.990690 0.803540 0.755500 -0.597176
O114  O     O_R   0.803540 0.009310 0.244500 -0.588313
O115  O     O_R   0.009310 0.196460 0.755500 -0.594516
O116  O     O_R   0.196460 0.990690 0.244500 -0.593982
O117  O     O_R   0.009310 0.803540 0.244500 -0.587119
O118  O     O_R   0.196460 0.009310 0.755500 -0.585897
O119  O     O_R   0.990690 0.196460 0.244500 -0.591359
O120  O     O_R   0.803540 0.990690 0.755500 -0.585656
O121  O     O_R   0.696460 0.255500 0.009310 -0.586472
O122  O     O_R   0.990690 0.744500 0.696460 -0.580059
O123  O     O_R   0.303540 0.255500 0.990690 -0.580955
O124  O     O_R   0.009310 0.744500 0.303540 -0.585268
O125  O     O_R   0.696460 0.744500 0.990690 -0.581617
O126  O     O_R   0.990690 0.255500 0.303540 -0.587495
O127  O     O_R   0.303540 0.744500 0.009310 -0.575736
O128  O     O_R   0.009310 0.255500 0.696460 -0.585831
O129  O     O_R   0.744500 0.009310 0.303540 -0.578998
O130  O     O_R   0.255500 0.696460 0.009310 -0.589174
O131  O     O_R   0.744500 0.990690 0.696460 -0.579588
O132  O     O_R   0.255500 0.303540 0.990690 -0.576865
O133  O     O_R   0.255500 0.990690 0.303540 -0.584401
O134  O     O_R   0.744500 0.303540 0.009310 -0.582887
O135  O     O_R   0.255500 0.009310 0.696460 -0.588963
O136  O     O_R   0.744500 0.696460 0.990690 -0.583462
O137  O     O_R   0.990690 0.303540 0.255500 -0.587445
O138  O     O_R   0.303540 0.009310 0.744500 -0.586634
O139  O     O_R   0.009310 0.696460 0.255500 -0.586496
O140  O     O_R   0.696460 0.990690 0.744500 -0.594539
O141  O     O_R   0.009310 0.303540 0.744500 -0.588570
O142  O     O_R   0.696460 0.009310 0.255500 -0.597267
O143  O     O_R   0.990690 0.696460 0.744500 -0.594861
O144  O     O_R   0.303540 0.990690 0.255500 -0.587748
O145  O     O_R   0.696460 0.755500 0.509310 -0.586673
O146  O     O_R   0.490690 0.244500 0.696460 -0.583268
O147  O     O_R   0.303540 0.755500 0.490690 -0.586376
O148  O     O_R   0.509310 0.244500 0.303540 -0.589994
O149  O     O_R   0.696460 0.244500 0.490690 -0.583504
O150  O     O_R   0.490690 0.755500 0.303540 -0.579259
O151  O     O_R   0.303540 0.244500 0.509310 -0.592689
O152  O     O_R   0.509310 0.755500 0.696460 -0.582293
O153  O     O_R   0.244500 0.509310 0.303540 -0.588292
O154  O     O_R   0.755500 0.696460 0.509310 -0.582166
O155  O     O_R   0.244500 0.490690 0.696460 -0.585771
O156  O     O_R   0.755500 0.303540 0.490690 -0.589071
O157  O     O_R   0.755500 0.490690 0.303540 -0.577135
O158  O     O_R   0.244500 0.303540 0.509310 -0.591657
O159  O     O_R   0.755500 0.509310 0.696460 -0.584515
O160  O     O_R   0.244500 0.696460 0.490690 -0.591562
O161  O     O_R   0.490690 0.303540 0.755500 -0.590413
O162  O     O_R   0.303540 0.509310 0.244500 -0.589716
O163  O     O_R   0.509310 0.696460 0.755500 -0.596480
O164  O     O_R   0.696460 0.490690 0.244500 -0.591325
O165  O     O_R   0.509310 0.303540 0.244500 -0.588873
O166  O     O_R   0.696460 0.509310 0.755500 -0.585736
O167  O     O_R   0.490690 0.696460 0.244500 -0.589975
O168  O     O_R   0.303540 0.490690 0.755500 -0.589054
O169  O     O_R   0.196460 0.255500 0.509310 -0.590851
O170  O     O_R   0.490690 0.744500 0.196460 -0.590387
O171  O     O_R   0.803540 0.255500 0.490690 -0.588543
O172  O     O_R   0.509310 0.744500 0.803540 -0.585348
O173  O     O_R   0.196460 0.744500 0.490690 -0.586006
O174  O     O_R   0.490690 0.255500 0.803540 -0.588505
O175  O     O_R   0.803540 0.744500 0.509310 -0.591274
O176  O     O_R   0.509310 0.255500 0.196460 -0.578289
O177  O     O_R   0.744500 0.509310 0.803540 -0.581781
O178  O     O_R   0.255500 0.196460 0.509310 -0.592839
O179  O     O_R   0.744500 0.490690 0.196460 -0.583580
O180  O     O_R   0.255500 0.803540 0.490690 -0.592353
O181  O     O_R   0.255500 0.490690 0.803540 -0.588788
O182  O     O_R   0.744500 0.803540 0.509310 -0.587030
O183  O     O_R   0.255500 0.509310 0.196460 -0.584239
O184  O     O_R   0.744500 0.196460 0.490690 -0.586475
O185  O     O_R   0.490690 0.803540 0.255500 -0.594491
O186  O     O_R   0.803540 0.509310 0.744500 -0.584434
O187  O     O_R   0.509310 0.196460 0.255500 -0.595591
O188  O     O_R   0.196460 0.490690 0.744500 -0.591154
O189  O     O_R   0.509310 0.803540 0.744500 -0.586792
O190  O     O_R   0.196460 0.509310 0.255500 -0.593488
O191  O     O_R   0.490690 0.196460 0.744500 -0.595156
O192  O     O_R   0.803540 0.490690 0.255500 -0.591820
C49   C     C_R   0.376309 0.623621 0.821642 -0.019244
C50   C     C_R   0.178523 0.375038 0.374993 -0.016881
C51   C     C_R   0.623620 0.623510 0.178171 -0.019120
C52   C     C_R   0.826396 0.378730 0.621301 -0.015154
C53   C     C_R   0.375820 0.376103 0.178556 -0.018583
C54   C     C_R   0.176062 0.622149 0.622697 -0.017710
C55   C     C_R   0.622161 0.376893 0.823041 -0.018746
C56   C     C_R   0.819497 0.629487 0.370323 -0.014116
C57   C     C_R   0.371782 0.819371 0.628348 -0.016134
C58   C     C_R   0.377159 0.176080 0.377269 -0.017428
C59   C     C_R   0.624845 0.179508 0.625902 -0.018385
C60   C     C_R   0.620209 0.828411 0.379317 -0.016037
C61   C     C_R   0.876496 0.124459 0.821953 -0.018288
C62   C     C_R   0.173779 0.878881 0.878112 -0.015621
C63   C     C_R   0.123827 0.123416 0.178277 -0.018530
C64   C     C_R   0.819236 0.871142 0.129815 -0.016302
C65   C     C_R   0.876355 0.876459 0.178166 -0.018541
C66   C     C_R   0.181275 0.129048 0.130239 -0.015569
C67   C     C_R   0.124580 0.875587 0.821187 -0.018637
C68   C     C_R   0.828686 0.120292 0.879721 -0.015037
C69   C     C_R   0.880370 0.828425 0.120427 -0.016616
C70   C     C_R   0.875525 0.178996 0.874607 -0.019190
C71   C     C_R   0.119941 0.170952 0.120727 -0.015554
C72   C     C_R   0.129913 0.817813 0.869456 -0.016511
C73   C     C_R   0.877029 0.623581 0.322602 -0.019043
C74   C     C_R   0.669918 0.380769 0.880535 -0.014922
C75   C     C_R   0.123527 0.623058 0.677102 -0.018270
C76   C     C_R   0.318240 0.370538 0.130549 -0.015893
C77   C     C_R   0.875495 0.375008 0.678390 -0.017616
C78   C     C_R   0.681131 0.629060 0.129976 -0.015487
C79   C     C_R   0.123727 0.376439 0.322898 -0.018342
C80   C     C_R   0.327712 0.620231 0.878814 -0.016295
C81   C     C_R   0.379750 0.328345 0.120983 -0.016160
C82   C     C_R   0.624037 0.876483 0.321760 -0.019980
C83   C     C_R   0.370614 0.681127 0.869731 -0.015607
C84   C     C_R   0.623863 0.124900 0.678477 -0.018600
C85   C     C_R   0.619720 0.671734 0.120481 -0.017036
C86   C     C_R   0.376239 0.123609 0.322835 -0.018439
C87   C     C_R   0.625980 0.319904 0.872883 -0.017578
C88   C     C_R   0.376284 0.876624 0.677184 -0.017490
C89   C     C_R   0.670904 0.120256 0.620287 -0.013185
C90   C     C_R   0.122875 0.323806 0.377231 -0.017352
C91   C     C_R   0.323952 0.877693 0.622745 -0.017568
C92   C     C_R   0.879748 0.674469 0.378951 -0.017324
C93   C     C_R   0.321481 0.124869 0.375107 -0.016895
C94   C     C_R   0.874496 0.320431 0.626035 -0.018006
C95   C     C_R   0.680464 0.872517 0.371573 -0.016034
C96   C     C_R   0.128773 0.680822 0.628884 -0.014899
Cu1   Cu    Cu3+1 0.221680 0.721680 0.051220 1.096141
Cu2   Cu    Cu3+1 0.948780 0.278320 0.221680 1.110746
Cu3   Cu    Cu3+1 0.778320 0.721680 0.948780 1.109048
Cu4   Cu    Cu3+1 0.051220 0.278320 0.778320 1.100549
Cu5   Cu    Cu3+1 0.221680 0.278320 0.948780 1.114323
Cu6   Cu    Cu3+1 0.948780 0.721680 0.778320 1.103930
Cu7   Cu    Cu3+1 0.778320 0.278320 0.051220 1.098570
Cu8   Cu    Cu3+1 0.051220 0.721680 0.221680 1.105882
Cu9   Cu    Cu3+1 0.278320 0.051220 0.778320 1.102515
Cu10  Cu    Cu3+1 0.721680 0.221680 0.051220 1.067144
Cu11  Cu    Cu3+1 0.278320 0.948780 0.221680 1.100473
Cu12  Cu    Cu3+1 0.721680 0.778320 0.948780 1.108222
Cu13  Cu    Cu3+1 0.721680 0.948780 0.778320 1.102202
Cu14  Cu    Cu3+1 0.278320 0.778320 0.051220 1.110321
Cu15  Cu    Cu3+1 0.721680 0.051220 0.221680 1.030561
Cu16  Cu    Cu3+1 0.278320 0.221680 0.948780 1.106998
Cu17  Cu    Cu3+1 0.948780 0.778320 0.721680 1.097235
Cu18  Cu    Cu3+1 0.778320 0.051220 0.278320 1.092923
Cu19  Cu    Cu3+1 0.051220 0.221680 0.721680 1.087668
Cu20  Cu    Cu3+1 0.221680 0.948780 0.278320 1.092607
Cu21  Cu    Cu3+1 0.051220 0.778320 0.278320 1.097381
Cu22  Cu    Cu3+1 0.221680 0.051220 0.721680 1.093855
Cu23  Cu    Cu3+1 0.948780 0.221680 0.278320 1.091397
Cu24  Cu    Cu3+1 0.778320 0.948780 0.721680 1.105725
Cu25  Cu    Cu3+1 0.721680 0.721680 0.551220 1.106872
Cu26  Cu    Cu3+1 0.448780 0.278320 0.721680 1.099522
Cu27  Cu    Cu3+1 0.278320 0.721680 0.448780 1.095049
Cu28  Cu    Cu3+1 0.551220 0.278320 0.278320 1.100150
Cu29  Cu    Cu3+1 0.721680 0.278320 0.448780 1.105360
Cu30  Cu    Cu3+1 0.448780 0.721680 0.278320 1.103935
Cu31  Cu    Cu3+1 0.278320 0.278320 0.551220 1.093365
Cu32  Cu    Cu3+1 0.551220 0.721680 0.721680 1.087992
Cu33  Cu    Cu3+1 0.278320 0.551220 0.278320 1.090455
Cu34  Cu    Cu3+1 0.278320 0.448780 0.721680 1.099315
Cu35  Cu    Cu3+1 0.721680 0.448780 0.278320 1.104163
Cu36  Cu    Cu3+1 0.721680 0.551220 0.721680 1.092267
Cu37  Cu    Cu3+1 0.221680 0.221680 0.551220 1.092331
Cu38  Cu    Cu3+1 0.448780 0.778320 0.221680 1.093438
Cu39  Cu    Cu3+1 0.778320 0.221680 0.448780 1.104297
Cu40  Cu    Cu3+1 0.551220 0.778320 0.778320 1.105362
Cu41  Cu    Cu3+1 0.221680 0.778320 0.448780 1.099169
Cu42  Cu    Cu3+1 0.448780 0.221680 0.778320 1.096774
Cu43  Cu    Cu3+1 0.778320 0.778320 0.551220 1.099010
Cu44  Cu    Cu3+1 0.551220 0.221680 0.221680 1.069957
Cu45  Cu    Cu3+1 0.778320 0.551220 0.778320 1.105843
Cu46  Cu    Cu3+1 0.778320 0.448780 0.221680 1.099173
Cu47  Cu    Cu3+1 0.221680 0.448780 0.778320 1.101290
Cu48  Cu    Cu3+1 0.221680 0.551220 0.221680 1.097353
C97   C     C_1   0.307983 0.039376 0.308074 -0.229355
C98   C     C_1   0.692426 0.960940 0.308821 -0.221830
C99   C     C_1   0.696717 0.043873 0.694507 -0.224250
C100  C     C_1   0.304710 0.957337 0.695041 -0.229940
C101  C     C_1   0.961800 0.308872 0.690830 -0.226987
C102  C     C_1   0.042338 0.305286 0.305506 -0.232669
C103  C     C_1   0.957089 0.695739 0.304878 -0.229406
C104  C     C_1   0.038780 0.691831 0.690264 -0.221992
C105  C     C_1   0.692767 0.692728 0.041036 -0.219090
C106  C     C_1   0.692410 0.308368 0.959857 -0.220496
C107  C     C_1   0.306950 0.306553 0.041631 -0.218908
C108  C     C_1   0.306541 0.693293 0.958287 -0.218708
C109  C     C_1   0.809410 0.537319 0.311201 -0.218078
C110  C     C_1   0.695895 0.456699 0.805816 -0.224182
C111  C     C_1   0.195284 0.542636 0.695082 -0.230732
C112  C     C_1   0.308298 0.461750 0.190141 -0.219244
C113  C     C_1   0.803437 0.456135 0.695224 -0.228433
C114  C     C_1   0.691472 0.538022 0.189873 -0.219959
C115  C     C_1   0.191968 0.460657 0.308091 -0.230804
C116  C     C_1   0.303387 0.543667 0.804859 -0.223986
C117  C     C_1   0.456043 0.302954 0.195149 -0.226835
C118  C     C_1   0.543274 0.803843 0.305609 -0.224919
C119  C     C_1   0.460987 0.692166 0.809245 -0.219295
C120  C     C_1   0.538414 0.191536 0.691379 -0.228081
C121  C     C_1   0.543021 0.696036 0.194486 -0.225988
C122  C     C_1   0.457817 0.194575 0.305627 -0.233386
C123  C     C_1   0.536697 0.309794 0.810690 -0.222275
C124  C     C_1   0.461195 0.808197 0.690448 -0.223441
C125  C     C_1   0.695830 0.193710 0.542981 -0.224565
C126  C     C_1   0.192875 0.306959 0.459501 -0.229915
C127  C     C_1   0.308348 0.807352 0.539919 -0.225112
C128  C     C_1   0.807405 0.691492 0.459968 -0.217730
C129  C     C_1   0.307039 0.193078 0.459443 -0.229815
C130  C     C_1   0.804582 0.305732 0.542808 -0.227265
C131  C     C_1   0.693038 0.806387 0.458428 -0.219029
C132  C     C_1   0.191206 0.692488 0.539637 -0.222921
C133  C     C_1   0.804211 0.043116 0.806008 -0.224753
C134  C     C_1   0.197817 0.955057 0.803423 -0.227379
C135  C     C_1   0.191059 0.037454 0.189471 -0.217491
C136  C     C_1   0.808414 0.961867 0.189959 -0.221900
C137  C     C_1   0.957194 0.804128 0.194229 -0.224768
C138  C     C_1   0.038909 0.808044 0.809408 -0.220654
C139  C     C_1   0.961648 0.191373 0.808685 -0.228083
C140  C     C_1   0.044449 0.197513 0.195466 -0.226290
C141  C     C_1   0.192615 0.193130 0.041245 -0.218035
C142  C     C_1   0.194115 0.805901 0.957688 -0.220421
C143  C     C_1   0.807225 0.807157 0.041149 -0.218346
C144  C     C_1   0.805018 0.193273 0.957784 -0.228519
C145  C     C_R   0.212273 0.788073 0.107459 0.813582
C146  C     C_R   0.892896 0.212128 0.212076 0.820088
C147  C     C_R   0.787884 0.787717 0.893361 0.816357
C148  C     C_R   0.107281 0.212103 0.788419 0.813301
C149  C     C_R   0.212259 0.212221 0.893250 0.816205
C150  C     C_R   0.892729 0.787745 0.788380 0.824312
C151  C     C_R   0.788020 0.212265 0.107357 0.811328
C152  C     C_R   0.107471 0.788235 0.212219 0.834741
C153  C     C_R   0.212145 0.107305 0.788574 0.833983
C154  C     C_R   0.212294 0.893047 0.212260 0.811125
C155  C     C_R   0.787808 0.892468 0.788424 0.838937
C156  C     C_R   0.788022 0.107416 0.212157 0.811422
C157  C     C_R   0.711989 0.287685 0.107346 0.815632
C158  C     C_R   0.893126 0.711989 0.712095 0.823704
C159  C     C_R   0.287836 0.288377 0.892550 0.834338
C160  C     C_R   0.107089 0.711961 0.287770 0.830205
C161  C     C_R   0.712450 0.712322 0.893328 0.825162
C162  C     C_R   0.892799 0.288363 0.287564 0.828324
C163  C     C_R   0.288020 0.712187 0.107276 0.817917
C164  C     C_R   0.107426 0.288022 0.712274 0.831597
C165  C     C_R   0.712143 0.107586 0.288198 0.824170
C166  C     C_R   0.712226 0.892859 0.712216 0.822192
C167  C     C_R   0.287729 0.892379 0.288319 0.839849
C168  C     C_R   0.288260 0.107121 0.712181 0.829902
C169  C     C_R   0.712342 0.787867 0.607347 0.813263
C170  C     C_R   0.393074 0.212056 0.712215 0.825893
C171  C     C_R   0.287782 0.787632 0.393233 0.821829
C172  C     C_R   0.607385 0.212359 0.288127 0.814347
C173  C     C_R   0.712130 0.212224 0.393076 0.823462
C174  C     C_R   0.392650 0.787746 0.288323 0.831652
C175  C     C_R   0.287992 0.212225 0.607480 0.818066
C176  C     C_R   0.607453 0.787987 0.712211 0.839480
C177  C     C_R   0.212016 0.607258 0.287606 0.811945
C178  C     C_R   0.788000 0.712204 0.607357 0.812489
C179  C     C_R   0.212192 0.392901 0.712204 0.825232
C180  C     C_R   0.787769 0.288143 0.392397 0.813477
C181  C     C_R   0.788032 0.393417 0.287729 0.815882
C182  C     C_R   0.212327 0.287897 0.607398 0.819637
C183  C     C_R   0.788197 0.607189 0.712165 0.830985
C184  C     C_R   0.212001 0.712126 0.392475 0.816180
C185  C     C_R   0.392693 0.288244 0.787795 0.813165
C186  C     C_R   0.287975 0.607430 0.212143 0.808890
C187  C     C_R   0.607670 0.712334 0.788357 0.812860
C188  C     C_R   0.711975 0.392528 0.212161 0.807729
C189  C     C_R   0.607076 0.287847 0.212060 0.828857
C190  C     C_R   0.712577 0.607636 0.788441 0.830798
C191  C     C_R   0.392854 0.712232 0.212093 0.818178
C192  C     C_R   0.287753 0.393184 0.787801 0.818265
C193  C     C_R   0.288126 0.711827 0.994215 0.781217
C194  C     C_R   0.006144 0.287663 0.287689 0.790473
C195  C     C_R   0.711636 0.711586 0.005553 0.780929
C196  C     C_R   0.995641 0.289143 0.710874 0.799584
C197  C     C_R   0.288231 0.288213 0.005774 0.789752
C198  C     C_R   0.004569 0.710990 0.710773 0.788649
C199  C     C_R   0.711514 0.288725 0.994774 0.782998
C200  C     C_R   0.993542 0.712791 0.287312 0.791529
C201  C     C_R   0.287427 0.993762 0.712552 0.790635
C202  C     C_R   0.288675 0.004888 0.288732 0.803689
C203  C     C_R   0.713017 0.006801 0.712645 0.780983
C204  C     C_R   0.711265 0.995378 0.288988 0.801392
C205  C     C_R   0.787616 0.212079 0.993898 0.784907
C206  C     C_R   0.004568 0.788995 0.789193 0.789000
C207  C     C_R   0.211621 0.211676 0.005622 0.778818
C208  C     C_R   0.993599 0.787313 0.212488 0.791742
C209  C     C_R   0.788323 0.788374 0.005626 0.776537
C210  C     C_R   0.007069 0.213332 0.213014 0.784274
C211  C     C_R   0.212131 0.787937 0.994001 0.779943
C212  C     C_R   0.995538 0.211032 0.788989 0.791992
C213  C     C_R   0.789082 0.995740 0.210652 0.794045
C214  C     C_R   0.787287 0.006503 0.787628 0.790173
C215  C     C_R   0.210701 0.003961 0.210424 0.785774
C216  C     C_R   0.213570 0.992786 0.786676 0.790451
C217  C     C_R   0.788547 0.711212 0.494902 0.780535
C218  C     C_R   0.503780 0.289527 0.789628 0.788576
C219  C     C_R   0.211127 0.711286 0.504933 0.789034
C220  C     C_R   0.493155 0.286886 0.212866 0.789071
C221  C     C_R   0.787428 0.287654 0.506344 0.783688
C222  C     C_R   0.506501 0.712786 0.212568 0.783287
C223  C     C_R   0.211717 0.288325 0.494656 0.789587
C224  C     C_R   0.495357 0.711139 0.789112 0.787506
C225  C     C_R   0.289074 0.495739 0.210676 0.788759
C226  C     C_R   0.711839 0.788122 0.494235 0.779829
C227  C     C_R   0.286945 0.506727 0.787232 0.781079
C228  C     C_R   0.712668 0.212274 0.506440 0.783024
C229  C     C_R   0.710864 0.504209 0.210590 0.788609
C230  C     C_R   0.288277 0.211722 0.494632 0.788797
C231  C     C_R   0.712838 0.493392 0.787510 0.787789
C232  C     C_R   0.288718 0.788619 0.505073 0.786404
C233  C     C_R   0.504464 0.211033 0.711042 0.798368
C234  C     C_R   0.211335 0.495136 0.288733 0.791115
C235  C     C_R   0.495403 0.788995 0.710855 0.797774
C236  C     C_R   0.789404 0.503983 0.289750 0.783086
C237  C     C_R   0.493921 0.212317 0.287740 0.787091
C238  C     C_R   0.786993 0.493241 0.712825 0.788924
C239  C     C_R   0.506593 0.787184 0.287471 0.785824
C240  C     C_R   0.212596 0.506262 0.712563 0.789497
C241  C     C_R   0.307855 0.641603 0.193240 -0.255227
C242  C     C_R   0.807269 0.360287 0.305411 -0.265648
C243  C     C_R   0.695242 0.642279 0.809700 -0.253133
C244  C     C_R   0.193567 0.359036 0.693752 -0.262618
C245  C     C_R   0.306051 0.359620 0.806254 -0.268227
C246  C     C_R   0.808312 0.641214 0.693809 -0.253294
C247  C     C_R   0.691938 0.358363 0.193374 -0.254400
C248  C     C_R   0.192179 0.641349 0.305530 -0.263420
C249  C     C_R   0.359374 0.193295 0.694183 -0.270487
C250  C     C_R   0.640758 0.306414 0.193039 -0.264856
C251  C     C_R   0.358204 0.805190 0.308678 -0.267690
C252  C     C_R   0.642796 0.695166 0.808832 -0.261591
C253  C     C_R   0.641930 0.807341 0.693685 -0.255034
C254  C     C_R   0.358808 0.694079 0.193188 -0.268787
C255  C     C_R   0.641351 0.194434 0.308567 -0.242075
C256  C     C_R   0.358596 0.308227 0.806111 -0.262980
C257  C     C_R   0.807515 0.693994 0.641682 -0.273519
C258  C     C_R   0.693025 0.193894 0.359741 -0.272197
C259  C     C_R   0.194228 0.306954 0.641908 -0.275026
C260  C     C_R   0.306429 0.805369 0.359900 -0.281318
C261  C     C_R   0.192259 0.693489 0.358063 -0.265962
C262  C     C_R   0.307192 0.194231 0.642380 -0.271897
C263  C     C_R   0.805949 0.307994 0.357776 -0.269347
C264  C     C_R   0.694327 0.806757 0.641858 -0.275762
C265  C     C_R   0.808145 0.141570 0.193430 -0.235123
C266  C     C_R   0.806110 0.857982 0.809173 -0.255955
C267  C     C_R   0.193704 0.141360 0.809733 -0.253578
C268  C     C_R   0.193857 0.859296 0.194008 -0.266985
C269  C     C_R   0.859226 0.193521 0.193079 -0.262388
C270  C     C_R   0.141852 0.808322 0.193995 -0.258669
C271  C     C_R   0.858416 0.805104 0.808900 -0.265386
C272  C     C_R   0.141584 0.194191 0.808840 -0.263894
C273  C     C_R   0.808095 0.194081 0.141621 -0.244854
C274  C     C_R   0.193689 0.193765 0.860114 -0.267584
C275  C     C_R   0.194107 0.807651 0.142076 -0.264089
C276  C     C_R   0.806503 0.805384 0.860014 -0.279235
C277  C     C_R   0.308355 0.141151 0.694151 -0.259284
C278  C     C_R   0.306063 0.857794 0.308957 -0.251218
C279  C     C_R   0.693162 0.141809 0.308903 -0.235811
C280  C     C_R   0.693964 0.858673 0.693982 -0.265875
C281  C     C_R   0.859551 0.693146 0.693681 -0.268267
C282  C     C_R   0.141701 0.307622 0.693798 -0.254868
C283  C     C_R   0.858869 0.309075 0.304955 -0.258786
C284  C     C_R   0.140838 0.692736 0.306175 -0.261128
C285  C     C_R   0.307975 0.693854 0.141226 -0.262902
C286  C     C_R   0.694520 0.694099 0.860186 -0.269424
C287  C     C_R   0.692020 0.305859 0.141557 -0.267436
C288  C     C_R   0.306365 0.308756 0.858237 -0.253734
C289  C     C_R   0.342851 0.657900 0.211598 0.168163
C290  C     C_R   0.787324 0.344101 0.342046 0.180911
C291  C     C_R   0.660268 0.659369 0.792786 0.212329
C292  C     C_R   0.213186 0.342792 0.657824 0.194548
C293  C     C_R   0.342198 0.343696 0.787476 0.175384
C294  C     C_R   0.789370 0.658838 0.658591 0.211369
C295  C     C_R   0.656866 0.342270 0.211650 0.164210
C296  C     C_R   0.209504 0.657894 0.341234 0.191256
C297  C     C_R   0.342929 0.213199 0.658279 0.201456
C298  C     C_R   0.342662 0.785706 0.344455 0.198941
C299  C     C_R   0.659037 0.788346 0.658400 0.209254
C300  C     C_R   0.657227 0.213448 0.343829 0.176438
C301  C     C_R   0.843120 0.157615 0.211672 0.164321
C302  C     C_R   0.787148 0.841820 0.844067 0.205063
C303  C     C_R   0.158366 0.157874 0.792374 0.208536
C304  C     C_R   0.212582 0.843136 0.158145 0.172562
C305  C     C_R   0.841039 0.841007 0.791695 0.207878
C306  C     C_R   0.791048 0.158789 0.158473 0.162494
C307  C     C_R   0.158176 0.843475 0.213414 0.198801
C308  C     C_R   0.213115 0.157940 0.844308 0.187690
C309  C     C_R   0.843296 0.213046 0.157260 0.182169
C310  C     C_R   0.842935 0.785289 0.844725 0.191589
C311  C     C_R   0.158539 0.790280 0.158852 0.210475
C312  C     C_R   0.157763 0.213443 0.844094 0.176905
C313  C     C_R   0.843985 0.656872 0.713381 0.182578
C314  C     C_R   0.286544 0.343509 0.841987 0.194297
C315  C     C_R   0.157030 0.657242 0.286249 0.179260
C316  C     C_R   0.708803 0.341484 0.158118 0.191954
C317  C     C_R   0.843813 0.345205 0.284161 0.175807
C318  C     C_R   0.290372 0.658432 0.158055 0.185059
C319  C     C_R   0.157743 0.343037 0.713017 0.165378
C320  C     C_R   0.714513 0.658305 0.844415 0.180045
C321  C     C_R   0.343326 0.713604 0.156936 0.199448
C322  C     C_R   0.658025 0.842421 0.713313 0.186640
C323  C     C_R   0.341685 0.290096 0.841405 0.196412
C324  C     C_R   0.658807 0.159156 0.291149 0.161829
C325  C     C_R   0.656763 0.286790 0.157273 0.194704
C326  C     C_R   0.343905 0.157067 0.713878 0.188192
C327  C     C_R   0.658561 0.713971 0.844188 0.179768
C328  C     C_R   0.340913 0.840910 0.291476 0.204760
C329  C     C_R   0.289653 0.158129 0.658835 0.207457
C330  C     C_R   0.157257 0.712303 0.341799 0.205201
C331  C     C_R   0.713396 0.842557 0.657864 0.193752
C332  C     C_R   0.840993 0.289931 0.340429 0.211639
C333  C     C_R   0.711855 0.158367 0.343526 0.200164
C334  C     C_R   0.843376 0.712691 0.657433 0.192899
C335  C     C_R   0.287063 0.841026 0.343666 0.205424
C336  C     C_R   0.158962 0.288681 0.658509 0.216334
C337  C     C_1   0.319295 0.573425 0.820167 -0.050982
C338  C     C_1   0.176705 0.430342 0.323381 -0.050692
C339  C     C_1   0.676387 0.568734 0.175390 -0.051970
C340  C     C_1   0.819108 0.426094 0.679790 -0.049900
C341  C     C_1   0.323214 0.430923 0.175770 -0.052640
C342  C     C_1   0.179749 0.572579 0.679576 -0.051437
C343  C     C_1   0.679561 0.427110 0.821430 -0.049923
C344  C     C_1   0.824676 0.567972 0.325925 -0.048607
C345  C     C_1   0.430607 0.823335 0.675625 -0.050022
C346  C     C_1   0.566918 0.324933 0.825781 -0.050893
C347  C     C_1   0.427749 0.179084 0.321095 -0.050083
C348  C     C_1   0.572693 0.680043 0.179026 -0.051218
C349  C     C_1   0.568783 0.176521 0.676345 -0.052224
C350  C     C_1   0.430329 0.677033 0.823602 -0.051182
C351  C     C_1   0.573053 0.819785 0.320923 -0.050047
C352  C     C_1   0.426182 0.318814 0.179859 -0.050376
C353  C     C_1   0.176361 0.677251 0.570162 -0.049732
C354  C     C_1   0.677735 0.821734 0.428246 -0.048745
C355  C     C_1   0.820127 0.320997 0.572898 -0.050106
C356  C     C_1   0.322377 0.177676 0.429239 -0.050683
C357  C     C_1   0.822909 0.676653 0.429593 -0.048938
C358  C     C_1   0.323249 0.822576 0.570384 -0.050317
C359  C     C_1   0.177544 0.322318 0.429279 -0.050650
C360  C     C_1   0.679892 0.178487 0.572968 -0.050490
C361  C     C_1   0.820227 0.072958 0.821407 -0.049736
C362  C     C_1   0.182134 0.925117 0.818733 -0.049698
C363  C     C_1   0.176022 0.068177 0.174978 -0.052832
C364  C     C_1   0.823579 0.931206 0.175468 -0.052170
C365  C     C_1   0.927523 0.820105 0.178791 -0.050878
C366  C     C_1   0.069743 0.822871 0.823755 -0.050570
C367  C     C_1   0.931394 0.176250 0.823820 -0.052443
C368  C     C_1   0.074280 0.181517 0.180145 -0.050742
C369  C     C_1   0.177472 0.177902 0.071646 -0.052323
C370  C     C_1   0.179229 0.820957 0.927150 -0.050799
C371  C     C_1   0.822600 0.822333 0.071389 -0.050059
C372  C     C_1   0.820971 0.177949 0.927854 -0.050738
C373  C     C_1   0.323234 0.069664 0.323367 -0.050076
C374  C     C_1   0.677276 0.930426 0.323331 -0.051115
C375  C     C_1   0.680681 0.073799 0.679147 -0.051108
C376  C     C_1   0.320216 0.927329 0.679552 -0.051379
C377  C     C_1   0.931325 0.323895 0.675767 -0.050712
C378  C     C_1   0.072397 0.320746 0.320958 -0.049418
C379  C     C_1   0.927477 0.680033 0.320589 -0.050188
C380  C     C_1   0.069394 0.676661 0.675511 -0.049683
C381  C     C_1   0.677464 0.677542 0.071339 -0.050403
C382  C     C_1   0.676429 0.323620 0.929937 -0.050689
C383  C     C_1   0.322052 0.321611 0.072075 -0.050859
C384  C     C_1   0.321597 0.678015 0.927871 -0.049768
C385  C     C_R   0.396391 0.103551 0.285738 0.118357
C386  C     C_R   0.430452 0.117293 0.266322 -0.125262
C387  C     C_R   0.448722 0.100152 0.234432 -0.149600
C388  C     C_R   0.433487 0.066634 0.218386 -0.098775
C389  C     C_R   0.400391 0.050907 0.234742 -0.148708
C390  C     C_R   0.383453 0.068784 0.266968 -0.125483
H1    H     H_    0.447155 0.140818 0.271168 0.165730
H2    H     H_    0.474862 0.113465 0.221900 0.150369
H3    H     H_    0.447390 0.052805 0.193396 0.137583
H4    H     H_    0.387578 0.024331 0.222564 0.155546
H5    H     H_    0.361331 0.050709 0.273284 0.166446
C391  C     C_R   0.724972 0.882545 0.381786 0.097190
C392  C     C_R   0.747759 0.863399 0.411072 -0.125789
C393  C     C_R   0.788503 0.867235 0.415603 -0.133609
C394  C     C_R   0.809090 0.894254 0.392977 -0.108552
C395  C     C_R   0.787617 0.918007 0.367513 -0.130801
C396  C     C_R   0.746755 0.913599 0.364579 -0.122571
H6    H     H_    0.735315 0.855354 0.437856 0.159159
H7    H     H_    0.803076 0.851697 0.439450 0.145880
H8    H     H_    0.840189 0.899299 0.397815 0.135565
H9    H     H_    0.801638 0.942690 0.352921 0.145474
H10   H     H_    0.733364 0.940983 0.359630 0.160059
C397  C     C_R   0.605528 0.105964 0.716878 0.117837
C398  C     C_R   0.571193 0.119190 0.736232 -0.125721
C399  C     C_R   0.554940 0.103208 0.769765 -0.151242
C400  C     C_R   0.571808 0.070667 0.786622 -0.097139
C401  C     C_R   0.604882 0.055103 0.769779 -0.141102
C402  C     C_R   0.620541 0.072512 0.736687 -0.127436
H11   H     H_    0.551948 0.140077 0.728668 0.165713
H12   H     H_    0.528430 0.115966 0.782231 0.151449
H13   H     H_    0.558961 0.057228 0.812354 0.138653
H14   H     H_    0.618842 0.029151 0.782354 0.153884
H15   H     H_    0.643604 0.055350 0.730399 0.163316
C403  C     C_R   0.290739 0.901134 0.599313 0.116089
C404  C     C_R   0.274121 0.889592 0.562845 -0.127628
C405  C     C_R   0.246078 0.909995 0.541510 -0.146686
C406  C     C_R   0.231695 0.945045 0.555468 -0.096259
C407  C     C_R   0.245492 0.958680 0.590783 -0.137409
C408  C     C_R   0.273214 0.937108 0.611431 -0.126067
H16   H     H_    0.277789 0.864737 0.547277 0.163053
H17   H     H_    0.234893 0.897784 0.514222 0.157465
H18   H     H_    0.209287 0.961034 0.539492 0.140639
H19   H     H_    0.233708 0.985688 0.603303 0.160409
H20   H     H_    0.275434 0.951511 0.637197 0.164844
C409  C     C_R   0.397068 0.897378 0.713353 0.117523
C410  C     C_R   0.432191 0.884525 0.731488 -0.126878
C411  C     C_R   0.450595 0.901837 0.763069 -0.149829
C412  C     C_R   0.435117 0.935330 0.779267 -0.097670
C413  C     C_R   0.401299 0.950517 0.763732 -0.140301
C414  C     C_R   0.383513 0.931789 0.732595 -0.126133
H21   H     H_    0.449991 0.861987 0.725202 0.164602
H22   H     H_    0.477307 0.888974 0.774931 0.158582
H23   H     H_    0.449293 0.949453 0.803818 0.141290
H24   H     H_    0.388074 0.976854 0.776260 0.159066
H25   H     H_    0.359394 0.948048 0.728257 0.165449
C415  C     C_R   0.692370 0.090327 0.590526 0.097730
C416  C     C_R   0.702757 0.099006 0.550711 -0.123502
C417  C     C_R   0.713989 0.070338 0.521575 -0.123532
C418  C     C_R   0.719049 0.030679 0.531562 -0.103224
C419  C     C_R   0.713987 0.021112 0.571249 -0.120883
C420  C     C_R   0.703039 0.050684 0.599692 -0.123752
H26   H     H_    0.713052 0.127582 0.542526 0.156280
H27   H     H_    0.722362 0.080211 0.492249 0.157853
H28   H     H_    0.730794 0.008935 0.510070 0.141382
H29   H     H_    0.722369 0.991829 0.581428 0.162058
H30   H     H_    0.713789 0.043218 0.628462 0.157182
C421  C     C_R   0.604064 0.896321 0.284785 0.118909
C422  C     C_R   0.570193 0.882125 0.265601 -0.125476
C423  C     C_R   0.551945 0.899158 0.233711 -0.141817
C424  C     C_R   0.566991 0.932872 0.217626 -0.099118
C425  C     C_R   0.599908 0.948953 0.233953 -0.155140
C426  C     C_R   0.616977 0.931235 0.266172 -0.127309
H31   H     H_    0.553875 0.858231 0.270863 0.163054
H32   H     H_    0.525978 0.885606 0.221246 0.153462
H33   H     H_    0.553063 0.946597 0.192613 0.136891
H34   H     H_    0.612513 0.975659 0.221755 0.148071
H35   H     H_    0.639279 0.949187 0.272864 0.163971
C427  C     C_R   0.280938 0.108217 0.391929 0.113377
C428  C     C_R   0.259842 0.123648 0.424507 -0.125043
C429  C     C_R   0.224244 0.110415 0.438952 -0.142402
C430  C     C_R   0.206234 0.078915 0.421608 -0.099431
C431  C     C_R   0.224446 0.061298 0.390197 -0.139476
C432  C     C_R   0.260157 0.075421 0.376913 -0.124484
H36   H     H_    0.267738 0.144151 0.443901 0.165876
H37   H     H_    0.211123 0.124477 0.464546 0.149480
H38   H     H_    0.178967 0.067547 0.433111 0.136234
H39   H     H_    0.211522 0.035560 0.376426 0.151536
H40   H     H_    0.268654 0.055371 0.357153 0.166020
C433  C     C_R   0.890060 0.279036 0.610409 0.114465
C434  C     C_R   0.873602 0.257267 0.578982 -0.125593
C435  C     C_R   0.885872 0.220719 0.565715 -0.141430
C436  C     C_R   0.917111 0.202400 0.583343 -0.097515
C437  C     C_R   0.935637 0.221353 0.613658 -0.141344
C438  C     C_R   0.922779 0.258219 0.625514 -0.125655
H41   H     H_    0.853185 0.265367 0.559456 0.164483
H42   H     H_    0.871344 0.207196 0.540722 0.150444
H43   H     H_    0.927841 0.174420 0.572595 0.136796
H44   H     H_    0.961423 0.208351 0.627262 0.149051
H45   H     H_    0.943944 0.267898 0.643398 0.166654
C439  C     C_R   0.103434 0.396776 0.286051 0.119463
C440  C     C_R   0.116358 0.431645 0.267304 -0.128231
C441  C     C_R   0.099252 0.449830 0.235361 -0.153612
C442  C     C_R   0.066027 0.434310 0.219263 -0.095126
C443  C     C_R   0.050826 0.400681 0.235273 -0.145003
C444  C     C_R   0.069244 0.383240 0.266882 -0.125673
H46   H     H_    0.138761 0.449418 0.273308 0.166326
H47   H     H_    0.112086 0.476437 0.223145 0.153933
H48   H     H_    0.052026 0.448353 0.194465 0.140824
H49   H     H_    0.024611 0.387509 0.222902 0.157671
H50   H     H_    0.052532 0.359664 0.271696 0.165282
C445  C     C_R   0.905771 0.704691 0.405216 0.105656
C446  C     C_R   0.895378 0.719911 0.443306 -0.127484
C447  C     C_R   0.918610 0.744867 0.467290 -0.129341
C448  C     C_R   0.954972 0.758068 0.454782 -0.104988
C449  C     C_R   0.966782 0.746004 0.417575 -0.123110
C450  C     C_R   0.942865 0.721248 0.394064 -0.125107
H51   H     H_    0.868026 0.718384 0.456139 0.158748
H52   H     H_    0.906993 0.755327 0.495292 0.157137
H53   H     H_    0.972338 0.778569 0.472299 0.143365
H54   H     H_    0.994088 0.757370 0.405475 0.163479
H55   H     H_    0.954645 0.721195 0.366048 0.161313
C451  C     C_R   0.102372 0.602010 0.712970 0.118639
C452  C     C_R   0.115837 0.567544 0.732194 -0.127448
C453  C     C_R   0.097643 0.548512 0.763035 -0.142175
C454  C     C_R   0.063574 0.563510 0.778347 -0.094988
C455  C     C_R   0.048230 0.597103 0.762184 -0.151760
C456  C     C_R   0.066981 0.614682 0.730822 -0.127541
H56   H     H_    0.140348 0.551711 0.728317 0.165105
H57   H     H_    0.110833 0.522182 0.775627 0.157056
H58   H     H_    0.049154 0.549214 0.802765 0.141525
H59   H     H_    0.021385 0.609867 0.773924 0.155508
H60   H     H_    0.049269 0.637316 0.724451 0.163626
C457  C     C_R   0.120483 0.726530 0.620754 0.101506
C458  C     C_R   0.140417 0.749991 0.592487 -0.126806
C459  C     C_R   0.138010 0.791373 0.589482 -0.133721
C460  C     C_R   0.112029 0.812436 0.613004 -0.103640
C461  C     C_R   0.088189 0.790890 0.638229 -0.131381
C462  C     C_R   0.091443 0.749491 0.640125 -0.127136
H61   H     H_    0.149192 0.738523 0.565745 0.162129
H62   H     H_    0.154039 0.806289 0.566186 0.142858
H63   H     H_    0.108148 0.844160 0.609379 0.133816
H64   H     H_    0.064466 0.805474 0.653939 0.142723
H65   H     H_    0.064626 0.737588 0.647699 0.162720
C463  C     C_R   0.896442 0.603866 0.285127 0.118319
C464  C     C_R   0.883026 0.569175 0.266625 -0.129089
C465  C     C_R   0.898753 0.552048 0.233392 -0.152227
C466  C     C_R   0.931183 0.568251 0.216064 -0.098633
C467  C     C_R   0.946952 0.601562 0.232132 -0.141120
C468  C     C_R   0.929748 0.618216 0.264869 -0.125081
H66   H     H_    0.861683 0.550600 0.274424 0.163921
H67   H     H_    0.885684 0.525532 0.221388 0.154998
H68   H     H_    0.944264 0.554850 0.190406 0.140140
H69   H     H_    0.972637 0.615151 0.218978 0.156336
H70   H     H_    0.946427 0.641871 0.269934 0.164658
C469  C     C_R   0.100358 0.289444 0.399842 0.116524
C470  C     C_R   0.112287 0.271925 0.435815 -0.126413
C471  C     C_R   0.092671 0.242928 0.456512 -0.143289
C472  C     C_R   0.058099 0.228368 0.442340 -0.093205
C473  C     C_R   0.044065 0.242997 0.407499 -0.140179
C474  C     C_R   0.064806 0.271765 0.387600 -0.125044
H71   H     H_    0.136717 0.275697 0.451647 0.165316
H72   H     H_    0.105097 0.231221 0.483546 0.156325
H73   H     H_    0.042652 0.205312 0.457872 0.140762
H74   H     H_    0.017281 0.231272 0.394923 0.158630
H75   H     H_    0.049620 0.274826 0.362540 0.165041
C475  C     C_R   0.893739 0.393591 0.717034 0.116552
C476  C     C_R   0.878558 0.426576 0.737511 -0.126536
C477  C     C_R   0.893915 0.443352 0.770969 -0.139509
C478  C     C_R   0.926876 0.427534 0.787640 -0.095032
C479  C     C_R   0.943967 0.395451 0.770201 -0.146129
C480  C     C_R   0.928035 0.380207 0.736269 -0.125932
H76   H     H_    0.855555 0.443841 0.731666 0.164539
H77   H     H_    0.879823 0.469029 0.783957 0.156722
H78   H     H_    0.939534 0.440487 0.813615 0.140395
H79   H     H_    0.970481 0.382579 0.782469 0.154404
H80   H     H_    0.947667 0.359886 0.728293 0.165650
C481  C     C_R   0.727214 0.622278 0.123274 0.096140
C482  C     C_R   0.750115 0.593338 0.143034 -0.128132
C483  C     C_R   0.791866 0.591852 0.143060 -0.125062
C484  C     C_R   0.813817 0.616803 0.118932 -0.106590
C485  C     C_R   0.792661 0.642139 0.094491 -0.128473
C486  C     C_R   0.750934 0.643084 0.095700 -0.127169
H81   H     H_    0.737981 0.565461 0.148105 0.160205
H82   H     H_    0.806586 0.568310 0.159027 0.142299
H83   H     H_    0.845828 0.614056 0.116643 0.135194
H84   H     H_    0.807919 0.658615 0.071698 0.143571
H85   H     H_    0.739455 0.650744 0.068278 0.158840
C487  C     C_R   0.616405 0.274295 0.882764 0.100315
C488  C     C_R   0.587078 0.250972 0.864080 -0.127748
C489  C     C_R   0.581353 0.209704 0.868996 -0.127782
C490  C     C_R   0.603320 0.188272 0.896038 -0.107427
C491  C     C_R   0.630651 0.209340 0.917638 -0.129727
C492  C     C_R   0.635833 0.250509 0.911583 -0.127490
H86   H     H_    0.562558 0.263017 0.851242 0.161790
H87   H     H_    0.557262 0.195421 0.853794 0.141962
H88   H     H_    0.597440 0.157166 0.902008 0.134163
H89   H     H_    0.646373 0.194747 0.941412 0.143385
H90   H     H_    0.650782 0.261886 0.935168 0.160500
C493  C     C_R   0.272202 0.377573 0.123682 0.095946
C494  C     C_R   0.249232 0.406517 0.143295 -0.124997
C495  C     C_R   0.207405 0.408540 0.142898 -0.125654
C496  C     C_R   0.185554 0.383770 0.118704 -0.105941
C497  C     C_R   0.206765 0.358143 0.094605 -0.127785
C498  C     C_R   0.248563 0.356808 0.096237 -0.123911
H91   H     H_    0.261819 0.434454 0.149415 0.159289
H92   H     H_    0.192716 0.432244 0.158660 0.141858
H93   H     H_    0.153520 0.386904 0.116042 0.135251
H94   H     H_    0.191647 0.341716 0.071789 0.143469
H95   H     H_    0.260502 0.348239 0.068751 0.157874
C499  C     C_R   0.377898 0.726714 0.877082 0.099678
C500  C     C_R   0.406838 0.749380 0.857678 -0.127251
C501  C     C_R   0.408445 0.790888 0.857833 -0.132597
C502  C     C_R   0.383439 0.812585 0.882007 -0.103230
C503  C     C_R   0.358189 0.791583 0.906365 -0.132324
C504  C     C_R   0.357403 0.750080 0.904933 -0.127418
H96   H     H_    0.434700 0.737463 0.853071 0.160319
H97   H     H_    0.431900 0.805566 0.841975 0.143373
H98   H     H_    0.386087 0.844528 0.884424 0.136240
H99   H     H_    0.341683 0.806750 0.929197 0.144756
H100  H     H_    0.350512 0.738640 0.932535 0.160317
C505  C     C_R   0.304269 0.591499 0.907625 0.107757
C506  C     C_R   0.291587 0.552938 0.897564 -0.131112
C507  C     C_R   0.277849 0.524659 0.924552 -0.128687
C508  C     C_R   0.271700 0.534471 0.963747 -0.095417
C509  C     C_R   0.278904 0.573067 0.974738 -0.134723
C510  C     C_R   0.293185 0.600414 0.947111 -0.129284
H101  H     H_    0.282705 0.545134 0.869248 0.159165
H102  H     H_    0.268662 0.496040 0.913753 0.159009
H103  H     H_    0.258346 0.513703 0.984215 0.145287
H104  H     H_    0.270540 0.583117 0.003950 0.158819
H105  H     H_    0.286457 0.628641 0.956970 0.157853
C511  C     C_R   0.409312 0.306824 0.091531 0.103655
C512  C     C_R   0.448265 0.295371 0.101227 -0.128605
C513  C     C_R   0.477363 0.284223 0.073602 -0.127365
C514  C     C_R   0.468013 0.279298 0.034085 -0.101619
C515  C     C_R   0.429148 0.285154 0.023391 -0.126837
C516  C     C_R   0.400972 0.296898 0.051702 -0.127054
H106  H     H_    0.455971 0.285147 0.129511 0.159259
H107  H     H_    0.506260 0.275692 0.084098 0.162711
H108  H     H_    0.489475 0.267610 0.013093 0.144022
H109  H     H_    0.419613 0.277510 0.993867 0.165437
H110  H     H_    0.372876 0.289440 0.041870 0.157793
C517  C     C_R   0.692892 0.409923 0.909220 0.105494
C518  C     C_R   0.705560 0.448439 0.898811 -0.126703
C519  C     C_R   0.718277 0.477258 0.925715 -0.126986
C520  C     C_R   0.723456 0.467955 0.965194 -0.097787
C521  C     C_R   0.716625 0.429305 0.976510 -0.132966
C522  C     C_R   0.703535 0.401403 0.948871 -0.127050
H111  H     H_    0.715914 0.455466 0.870557 0.158887
H112  H     H_    0.727552 0.505811 0.914694 0.162802
H113  H     H_    0.736176 0.489119 0.985658 0.144407
H114  H     H_    0.724709 0.419595 0.005895 0.158214
H115  H     H_    0.712007 0.373290 0.958335 0.158203
C523  C     C_R   0.591019 0.695529 0.091724 0.107344
C524  C     C_R   0.552605 0.708646 0.101872 -0.130485
C525  C     C_R   0.524562 0.722991 0.074980 -0.131022
C526  C     C_R   0.534447 0.729233 0.035805 -0.096974
C527  C     C_R   0.572897 0.721673 0.024777 -0.132198
C528  C     C_R   0.600063 0.706931 0.052347 -0.129815
H116  H     H_    0.544632 0.717379 0.130268 0.159396
H117  H     H_    0.496053 0.732437 0.085835 0.157182
H118  H     H_    0.513835 0.743004 0.015426 0.144431
H119  H     H_    0.583012 0.730100 0.995616 0.162238
H120  H     H_    0.628254 0.713497 0.042660 0.158353
C529  C     C_R   0.894864 0.105613 0.783478 0.116547
C530  C     C_R   0.879940 0.072340 0.763550 -0.124926
C531  C     C_R   0.895573 0.055122 0.730325 -0.137717
C532  C     C_R   0.928525 0.070702 0.713469 -0.096060
C533  C     C_R   0.945316 0.103050 0.730435 -0.146243
C534  C     C_R   0.929103 0.118860 0.764103 -0.125020
H121  H     H_    0.856942 0.055221 0.769713 0.164163
H122  H     H_    0.881695 0.029313 0.717670 0.155522
H123  H     H_    0.941363 0.057404 0.687640 0.137657
H124  H     H_    0.971740 0.115784 0.717957 0.150598
H125  H     H_    0.948316 0.139617 0.771754 0.166297
C535  C     C_R   0.198817 0.907724 0.906797 0.101720
C536  C     C_R   0.211898 0.946614 0.897007 -0.126806
C537  C     C_R   0.228901 0.974393 0.923513 -0.121107
C538  C     C_R   0.237503 0.964204 0.962203 -0.102980
C539  C     C_R   0.228505 0.925923 0.973368 -0.127728
C540  C     C_R   0.210869 0.899090 0.946357 -0.128397
H126  H     H_    0.216035 0.956158 0.868177 0.159387
H127  H     H_    0.238465 0.002786 0.912262 0.164293
H128  H     H_    0.253718 0.984044 0.981695 0.144448
H129  H     H_    0.237537 0.915403 0.002229 0.159161
H130  H     H_    0.212631 0.870827 0.957891 0.157605
C541  C     C_R   0.103457 0.103302 0.214713 0.117721
C542  C     C_R   0.069710 0.117856 0.234123 -0.127936
C543  C     C_R   0.051018 0.100452 0.265544 -0.142505
C544  C     C_R   0.065696 0.066197 0.281076 -0.095238
C545  C     C_R   0.098583 0.049858 0.264506 -0.143704
C546  C     C_R   0.115833 0.067750 0.232512 -0.127642
H131  H     H_    0.053934 0.142360 0.229353 0.163196
H132  H     H_    0.025087 0.114231 0.278179 0.155590
H133  H     H_    0.051501 0.052246 0.305811 0.138832
H134  H     H_    0.110859 0.022692 0.276182 0.154285
H135  H     H_    0.137482 0.049170 0.224953 0.163828
C547  C     C_R   0.773535 0.878172 0.122892 0.097016
C548  C     C_R   0.750806 0.907214 0.142350 -0.125242
C549  C     C_R   0.709284 0.908715 0.142549 -0.130599
C550  C     C_R   0.687597 0.883455 0.118793 -0.106490
C551  C     C_R   0.708566 0.858000 0.094458 -0.132420
C552  C     C_R   0.750060 0.857260 0.095576 -0.124481
H136  H     H_    0.762919 0.935390 0.147134 0.158459
H137  H     H_    0.694534 0.932313 0.158352 0.141384
H138  H     H_    0.655656 0.886132 0.116586 0.134590
H139  H     H_    0.693375 0.841397 0.071840 0.143578
H140  H     H_    0.761437 0.850104 0.067679 0.157862
C553  C     C_R   0.895661 0.895763 0.215691 0.116929
C554  C     C_R   0.882112 0.930339 0.234548 -0.127173
C555  C     C_R   0.898038 0.947227 0.267682 -0.147578
C556  C     C_R   0.930733 0.930874 0.284494 -0.099889
C557  C     C_R   0.946593 0.897647 0.268011 -0.139701
C558  C     C_R   0.929261 0.881263 0.235373 -0.124747
H141  H     H_    0.860644 0.949021 0.226823 0.164142
H142  H     H_    0.884970 0.973748 0.279948 0.153847
H143  H     H_    0.944005 0.944148 0.309997 0.138323
H144  H     H_    0.972549 0.884010 0.280682 0.155955
H145  H     H_    0.946196 0.857778 0.229690 0.163533
C559  C     C_R   0.227321 0.122543 0.123779 0.097167
C560  C     C_R   0.250500 0.094377 0.144252 -0.124805
C561  C     C_R   0.292378 0.092843 0.144224 -0.126550
C562  C     C_R   0.314143 0.117448 0.119684 -0.105626
C563  C     C_R   0.292995 0.142840 0.095373 -0.129956
C564  C     C_R   0.251173 0.143805 0.096734 -0.124174
H146  H     H_    0.238467 0.066323 0.150912 0.158751
H147  H     H_    0.307144 0.069195 0.160041 0.140729
H148  H     H_    0.346094 0.114092 0.116695 0.134201
H149  H     H_    0.308206 0.159178 0.072422 0.142210
H150  H     H_    0.239845 0.153494 0.069527 0.157236
C565  C     C_R   0.104075 0.896355 0.784922 0.117368
C566  C     C_R   0.118175 0.930339 0.765457 -0.124990
C567  C     C_R   0.100368 0.949361 0.734365 -0.136625
C568  C     C_R   0.066256 0.934770 0.719093 -0.098499
C569  C     C_R   0.050416 0.901606 0.735548 -0.150680
C570  C     C_R   0.068651 0.884071 0.767236 -0.126029
H151  H     H_    0.142864 0.945724 0.769671 0.163897
H152  H     H_    0.113845 0.975406 0.721668 0.155822
H153  H     H_    0.052076 0.949148 0.694573 0.138237
H154  H     H_    0.023452 0.889303 0.723970 0.152695
H155  H     H_    0.050483 0.862052 0.774318 0.163818
C571  C     C_R   0.805044 0.091507 0.908431 0.105954
C572  C     C_R   0.792715 0.052755 0.898598 -0.126809
C573  C     C_R   0.779332 0.024434 0.925781 -0.125527
C574  C     C_R   0.773267 0.034404 0.964953 -0.100993
C575  C     C_R   0.779832 0.073242 0.975626 -0.139242
C576  C     C_R   0.793439 0.100673 0.947677 -0.128043
H156  H     H_    0.783308 0.044976 0.870417 0.159303
H157  H     H_    0.770316 0.995698 0.915154 0.167095
H158  H     H_    0.760149 0.013594 0.985579 0.141479
H159  H     H_    0.771147 0.083440 0.004682 0.149357
H160  H     H_    0.784733 0.128831 0.956467 0.158687
C577  C     C_R   0.909159 0.805135 0.091523 0.105452
C578  C     C_R   0.947678 0.792370 0.101468 -0.127703
C579  C     C_R   0.976042 0.779219 0.074207 -0.125108
C580  C     C_R   0.966320 0.773568 0.034915 -0.099099
C581  C     C_R   0.927676 0.780510 0.024180 -0.131620
C582  C     C_R   0.900197 0.794063 0.052124 -0.130685
H161  H     H_    0.955224 0.782766 0.129795 0.159625
H162  H     H_    0.004687 0.769972 0.084818 0.168127
H163  H     H_    0.987202 0.760687 0.014237 0.145323
H164  H     H_    0.917720 0.772292 0.994952 0.157167
H165  H     H_    0.872040 0.786569 0.042923 0.157472
C583  C     C_R   0.891386 0.219968 0.890985 0.114012
C584  C     C_R   0.924136 0.240839 0.876088 -0.129212
C585  C     C_R   0.937562 0.277036 0.889113 -0.145862
C586  C     C_R   0.919436 0.295347 0.920245 -0.099792
C587  C     C_R   0.888049 0.277025 0.937530 -0.143708
C588  C     C_R   0.875285 0.241099 0.923221 -0.129506
H166  H     H_    0.944594 0.231768 0.856939 0.165627
H167  H     H_    0.963267 0.290120 0.875511 0.150682
H168  H     H_    0.930368 0.322914 0.931624 0.140064
H169  H     H_    0.873631 0.290134 0.962930 0.152676
H170  H     H_    0.854505 0.232814 0.942355 0.164205
C589  C     C_R   0.089951 0.191312 0.091010 0.101889
C590  C     C_R   0.097971 0.200450 0.050841 -0.125977
C591  C     C_R   0.069252 0.210838 0.022188 -0.127010
C592  C     C_R   0.030137 0.216006 0.032871 -0.100726
C593  C     C_R   0.021005 0.211582 0.072651 -0.124617
C594  C     C_R   0.050645 0.201759 0.100590 -0.127377
H171  H     H_    0.126182 0.208672 0.040951 0.156383
H172  H     H_    0.078635 0.218359 0.992524 0.157797
H173  H     H_    0.008419 0.227435 0.011761 0.142601
H174  H     H_    0.991999 0.219847 0.083147 0.160235
H175  H     H_    0.042922 0.212283 0.129017 0.158009
C595  C     C_R   0.121946 0.771879 0.877293 0.099880
C596  C     C_R   0.142165 0.747978 0.905120 -0.126735
C597  C     C_R   0.139694 0.706390 0.907875 -0.131654
C598  C     C_R   0.113538 0.685572 0.884525 -0.103697
C599  C     C_R   0.089417 0.707640 0.859856 -0.129318
C600  C     C_R   0.092610 0.749238 0.858306 -0.126721
H176  H     H_    0.152211 0.759585 0.931597 0.159742
H177  H     H_    0.156019 0.691140 0.930771 0.143138
H178  H     H_    0.109755 0.653718 0.887899 0.135825
H179  H     H_    0.065527 0.693356 0.844415 0.143635
H180  H     H_    0.065540 0.761821 0.851331 0.161004
C601  C     C_R   0.396856 0.602993 0.785448 0.118429
C602  C     C_R   0.382980 0.568806 0.766375 -0.128107
C603  C     C_R   0.400891 0.549835 0.735324 -0.140774
C604  C     C_R   0.434896 0.564645 0.719817 -0.097334
C605  C     C_R   0.450496 0.598016 0.735950 -0.149345
C606  C     C_R   0.432125 0.615585 0.767540 -0.125745
H181  H     H_    0.358481 0.553151 0.770966 0.163579
H182  H     H_    0.387609 0.523636 0.722879 0.156281
H183  H     H_    0.449165 0.550279 0.695328 0.138053
H184  H     H_    0.477344 0.610502 0.724156 0.151989
H185  H     H_    0.450044 0.637870 0.774415 0.163765
C607  C     C_R   0.219124 0.391630 0.391652 0.113265
C608  C     C_R   0.240030 0.424355 0.376456 -0.125755
C609  C     C_R   0.275759 0.438439 0.389588 -0.140970
C610  C     C_R   0.293913 0.420821 0.420995 -0.098864
C611  C     C_R   0.275806 0.389374 0.438503 -0.142214
C612  C     C_R   0.240166 0.376225 0.424239 -0.125496
H186  H     H_    0.231619 0.444316 0.356582 0.166107
H187  H     H_    0.288745 0.464147 0.375686 0.150883
H188  H     H_    0.321180 0.432154 0.432385 0.136988
H189  H     H_    0.288843 0.375346 0.464141 0.150483
H190  H     H_    0.232089 0.355964 0.443901 0.165568
C613  C     C_R   0.604043 0.603975 0.215546 0.118400
C614  C     C_R   0.617417 0.569250 0.234269 -0.129996
C615  C     C_R   0.601223 0.552119 0.267249 -0.151700
C616  C     C_R   0.568380 0.568344 0.283993 -0.099267
C617  C     C_R   0.552675 0.601713 0.267629 -0.143188
C618  C     C_R   0.570321 0.618378 0.235188 -0.126747
H191  H     H_    0.638931 0.550594 0.226579 0.164424
H192  H     H_    0.614197 0.525514 0.279455 0.155221
H193  H     H_    0.554906 0.554881 0.309388 0.139888
H194  H     H_    0.526649 0.615291 0.280294 0.155718
H195  H     H_    0.553574 0.642050 0.229702 0.163650
C619  C     C_R   0.799792 0.406733 0.593493 0.106475
C620  C     C_R   0.786301 0.445434 0.603301 -0.126838
C621  C     C_R   0.767684 0.472372 0.577421 -0.125168
C622  C     C_R   0.758218 0.461533 0.539329 -0.098657
C623  C     C_R   0.767772 0.423482 0.528121 -0.132086
C624  C     C_R   0.786696 0.397446 0.554631 -0.127008
H196  H     H_    0.782661 0.455770 0.631697 0.160991
H197  H     H_    0.757783 0.500690 0.588666 0.165104
H198  H     H_    0.741014 0.480889 0.520197 0.144604
H199  H     H_    0.758069 0.412542 0.499728 0.157836
H200  H     H_    0.784013 0.369399 0.543369 0.159990
C625  C     C_R   0.395988 0.396107 0.215188 0.117266
C626  C     C_R   0.383146 0.431269 0.233435 -0.127862
C627  C     C_R   0.400088 0.448977 0.265605 -0.143683
C628  C     C_R   0.433145 0.432882 0.281935 -0.095501
C629  C     C_R   0.448310 0.399057 0.265998 -0.142146
C630  C     C_R   0.429930 0.381826 0.234401 -0.127576
H201  H     H_    0.361370 0.449714 0.226011 0.164047
H202  H     H_    0.387465 0.475858 0.277549 0.155568
H203  H     H_    0.447137 0.446721 0.306745 0.139626
H204  H     H_    0.474428 0.385510 0.278418 0.156250
H205  H     H_    0.446187 0.357723 0.229278 0.163098
C631  C     C_R   0.209359 0.598808 0.599243 0.116124
C632  C     C_R   0.227096 0.562981 0.611483 -0.127326
C633  C     C_R   0.254935 0.541521 0.590820 -0.138148
C634  C     C_R   0.268736 0.555214 0.555425 -0.096152
C635  C     C_R   0.254168 0.590159 0.541367 -0.146056
C636  C     C_R   0.225900 0.610379 0.562655 -0.127184
H206  H     H_    0.225098 0.548732 0.637397 0.164653
H207  H     H_    0.266852 0.514601 0.603428 0.161170
H208  H     H_    0.291270 0.539343 0.539455 0.141349
H209  H     H_    0.265304 0.602402 0.513991 0.158235
H210  H     H_    0.221782 0.635051 0.546840 0.162765
C637  C     C_R   0.602845 0.396809 0.785704 0.116717
C638  C     C_R   0.617604 0.430369 0.766002 -0.124952
C639  C     C_R   0.600965 0.448690 0.733894 -0.137073
C640  C     C_R   0.567342 0.433834 0.717866 -0.096534
C641  C     C_R   0.550830 0.401118 0.734587 -0.145877
C642  C     C_R   0.567933 0.384270 0.767261 -0.126640
H211  H     H_    0.641610 0.446440 0.771243 0.164146
H212  H     H_    0.614833 0.474539 0.721199 0.155955
H213  H     H_    0.553959 0.447776 0.692667 0.138369
H214  H     H_    0.524091 0.388761 0.722572 0.154530
H215  H     H_    0.549074 0.363030 0.774840 0.164522
C643  C     C_R   0.772962 0.623706 0.375814 0.094718
C644  C     C_R   0.749756 0.596034 0.354624 -0.126471
C645  C     C_R   0.707650 0.595423 0.353837 -0.122352
C646  C     C_R   0.685403 0.620133 0.378161 -0.108528
C647  C     C_R   0.706604 0.644753 0.403162 -0.126548
C648  C     C_R   0.748676 0.644950 0.402848 -0.126547
H216  H     H_    0.761563 0.567777 0.349543 0.159260
H217  H     H_    0.692940 0.572152 0.337636 0.140910
H218  H     H_    0.653328 0.617429 0.380418 0.134247
H219  H     H_    0.691095 0.661000 0.426030 0.141396
H220  H     H_    0.759737 0.652694 0.430469 0.158728
C649  C     C_R   0.381386 0.774299 0.618938 0.104028
C650  C     C_R   0.410933 0.751564 0.637583 -0.128680
C651  C     C_R   0.415836 0.710697 0.634010 -0.135024
C652  C     C_R   0.392847 0.689486 0.608083 -0.101408
C653  C     C_R   0.366148 0.710324 0.585478 -0.137089
C654  C     C_R   0.362200 0.751171 0.590129 -0.127313
H221  H     H_    0.436817 0.763386 0.647123 0.163628
H222  H     H_    0.439804 0.696320 0.649443 0.143541
H223  H     H_    0.397765 0.658165 0.603402 0.134751
H224  H     H_    0.350411 0.695734 0.561903 0.144530
H225  H     H_    0.352104 0.762666 0.564136 0.162883
C655  C     C_R   0.399707 0.210413 0.399869 0.117197
C656  C     C_R   0.435273 0.228182 0.387529 -0.127403
C657  C     C_R   0.456016 0.256910 0.407364 -0.143402
C658  C     C_R   0.441965 0.271455 0.442263 -0.091322
C659  C     C_R   0.407384 0.256827 0.456553 -0.144193
C660  C     C_R   0.387784 0.227857 0.435913 -0.126513
H226  H     H_    0.450344 0.225354 0.362328 0.164625
H227  H     H_    0.482789 0.268704 0.394665 0.156619
H228  H     H_    0.457381 0.294501 0.457722 0.141248
H229  H     H_    0.394930 0.268458 0.483633 0.155462
H230  H     H_    0.363351 0.224020 0.451853 0.164797
C661  C     C_R   0.608999 0.220458 0.609612 0.114808
C662  C     C_R   0.576048 0.241211 0.624366 -0.126338
C663  C     C_R   0.562577 0.277444 0.611389 -0.141064
C664  C     C_R   0.580875 0.295824 0.580460 -0.097279
C665  C     C_R   0.612463 0.277560 0.563292 -0.139814
C666  C     C_R   0.625253 0.241584 0.577550 -0.126927
H231  H     H_    0.555428 0.232086 0.643242 0.166768
H232  H     H_    0.536699 0.290515 0.624837 0.151815
H233  H     H_    0.569852 0.323428 0.569037 0.138356
H234  H     H_    0.626947 0.290727 0.537990 0.153443
H235  H     H_    0.646039 0.233299 0.558386 0.163949
C667  C     C_R   0.591297 0.805512 0.408247 0.103787
C668  C     C_R   0.552701 0.793382 0.398347 -0.127593
C669  C     C_R   0.523976 0.781387 0.425824 -0.127765
C670  C     C_R   0.533587 0.776104 0.465261 -0.099482
C671  C     C_R   0.572481 0.781949 0.475841 -0.128230
C672  C     C_R   0.600337 0.794173 0.447548 -0.131375
H236  H     H_    0.545746 0.782553 0.370255 0.158855
H237  H     H_    0.495296 0.772520 0.415282 0.163772
H238  H     H_    0.512476 0.763816 0.486100 0.144505
H239  H     H_    0.582365 0.773524 0.505054 0.159677
H240  H     H_    0.628472 0.784556 0.455717 0.156921
N1    N     N_R   0.360130 0.639987 0.249945 0.143260
O193  O     O_R   0.358383 0.607290 0.269516 -0.266167
O194  O     O_R   0.392427 0.641374 0.269769 -0.265114
N2    N     N_R   0.750304 0.364195 0.362823 0.163653
O195  O     O_R   0.721450 0.350311 0.383293 -0.270794
O196  O     O_R   0.740320 0.400414 0.363485 -0.299880
N3    N     N_R   0.640550 0.636861 0.761121 0.160619
O197  O     O_R   0.635177 0.651519 0.726377 -0.303835
O198  O     O_R   0.628843 0.600510 0.767749 -0.341120
N4    N     N_R   0.249666 0.363331 0.637598 0.169950
O199  O     O_R   0.280526 0.347752 0.621007 -0.263495
O200  O     O_R   0.254097 0.400733 0.634476 -0.318745
N5    N     N_R   0.358437 0.359922 0.747717 0.147890
O201  O     O_R   0.391105 0.357581 0.728206 -0.264665
O202  O     O_R   0.359713 0.394334 0.731133 -0.268789
N6    N     N_R   0.751162 0.640191 0.643591 0.157333
O203  O     O_R   0.723927 0.648266 0.617626 -0.262897
O204  O     O_R   0.759233 0.604414 0.633177 -0.333537
N7    N     N_R   0.639578 0.360005 0.250114 0.146593
O205  O     O_R   0.607182 0.358528 0.269892 -0.258278
O206  O     O_R   0.641543 0.392657 0.269581 -0.264584
N8    N     N_R   0.251884 0.647902 0.351910 0.102115
O207  O     O_R   0.265989 0.614501 0.366021 -0.230442
O208  O     O_R   0.262717 0.633770 0.386762 -0.236594
N9    N     N_R   0.363490 0.249554 0.637920 0.170825
O209  O     O_R   0.346961 0.281099 0.623414 -0.268153
O210  O     O_R   0.401119 0.252222 0.633299 -0.321160
N10   N     N_R   0.363610 0.748985 0.364364 0.170924
O211  O     O_R   0.349697 0.719252 0.383970 -0.276189
O212  O     O_R   0.400682 0.743802 0.365181 -0.319577
N11   N     N_R   0.639884 0.750372 0.642509 0.163846
O213  O     O_R   0.649040 0.722751 0.617261 -0.266182
O214  O     O_R   0.603620 0.757135 0.633478 -0.330172
N12   N     N_R   0.638048 0.250999 0.364802 0.159250
O215  O     O_R   0.613771 0.280645 0.349230 -0.263598
O216  O     O_R   0.637046 0.261458 0.401131 -0.297528
N13   N     N_R   0.860206 0.139980 0.250202 0.141913
O217  O     O_R   0.892738 0.141199 0.269578 -0.268899
O218  O     O_R   0.858181 0.107368 0.269877 -0.268279
N14   N     N_R   0.750890 0.863327 0.862509 0.177191
O219  O     O_R   0.718540 0.846896 0.874002 -0.275559
O220  O     O_R   0.751748 0.901362 0.869738 -0.335635
N15   N     N_R   0.139588 0.135456 0.758950 0.166112
O221  O     O_R   0.130208 0.150282 0.725254 -0.293909
O222  O     O_R   0.128856 0.098776 0.764868 -0.337967
N16   N     N_R   0.252046 0.858878 0.141521 0.147257
O223  O     O_R   0.270828 0.892199 0.141507 -0.259605
O224  O     O_R   0.268176 0.859929 0.107002 -0.268078
N17   N     N_R   0.860086 0.862940 0.758240 0.165256
O225  O     O_R   0.864231 0.847032 0.723724 -0.294200
O226  O     O_R   0.871720 0.899699 0.762919 -0.337450
N18   N     N_R   0.748277 0.151826 0.151335 -0.065410
O227  O     O_R   0.735437 0.118604 0.130285 -0.083036
O228  O     O_R   0.735912 0.128042 0.118456 -0.082318
N19   N     N_R   0.136981 0.862649 0.249769 0.170119
O229  O     O_R   0.151212 0.880692 0.280537 -0.282758
O230  O     O_R   0.099344 0.866483 0.250845 -0.321163
N20   N     N_R   0.252244 0.139369 0.860148 0.162352
O231  O     O_R   0.278403 0.148538 0.886321 -0.268541
O232  O     O_R   0.256148 0.102294 0.864087 -0.309226
N21   N     N_R   0.863691 0.249412 0.136694 0.161233
O233  O     O_R   0.850115 0.278728 0.115966 -0.268878
O234  O     O_R   0.899769 0.258441 0.136526 -0.307348
N22   N     N_R   0.863759 0.747891 0.864682 0.169159
O235  O     O_R   0.850742 0.719590 0.887027 -0.263763
O236  O     O_R   0.900283 0.739544 0.863816 -0.304471
N23   N     N_R   0.137392 0.755986 0.139732 0.169177
O237  O     O_R   0.154158 0.721847 0.134825 -0.291488
O238  O     O_R   0.100387 0.759374 0.128775 -0.343029
N24   N     N_R   0.138298 0.251093 0.865025 0.159058
O239  O     O_R   0.113000 0.279575 0.849894 -0.264073
O240  O     O_R   0.137629 0.262040 0.901143 -0.304567
N25   N     N_R   0.863912 0.636117 0.750508 0.166706
O241  O     O_R   0.884550 0.649644 0.779513 -0.272064
O242  O     O_R   0.863730 0.599470 0.758746 -0.302936
N26   N     N_R   0.249409 0.363963 0.863373 0.175144
O243  O     O_R   0.216797 0.375104 0.845762 -0.276828
O244  O     O_R   0.249384 0.367913 0.902009 -0.328841
N27   N     N_R   0.136430 0.637874 0.248931 0.159656
O245  O     O_R   0.153834 0.618502 0.216479 -0.266231
O246  O     O_R   0.098947 0.635012 0.240644 -0.307751
N28   N     N_R   0.751645 0.349118 0.150243 0.079122
O247  O     O_R   0.765874 0.385071 0.135054 -0.221603
O248  O     O_R   0.764828 0.365665 0.113934 -0.226645
N29   N     N_R   0.864074 0.365118 0.244759 0.166679
O249  O     O_R   0.852724 0.392674 0.220202 -0.273358
O250  O     O_R   0.897681 0.359004 0.227744 -0.287371
N30   N     N_R   0.247653 0.648390 0.148604 0.112343
O251  O     O_R   0.236407 0.613819 0.134468 -0.232154
O252  O     O_R   0.233960 0.634604 0.115156 -0.230518
N31   N     N_R   0.139126 0.360805 0.751854 0.158645
O253  O     O_R   0.146185 0.389675 0.775811 -0.251920
O254  O     O_R   0.104611 0.360178 0.767064 -0.274922
N32   N     N_R   0.753829 0.639708 0.860481 0.160983
O255  O     O_R   0.778340 0.647627 0.888654 -0.254617
O256  O     O_R   0.761755 0.602963 0.862539 -0.298471
N33   N     N_R   0.364826 0.749299 0.134938 0.165802
O257  O     O_R   0.378640 0.780979 0.151595 -0.266663
O258  O     O_R   0.364740 0.756343 0.097507 -0.313577
N34   N     N_R   0.636361 0.863960 0.750383 0.181056
O259  O     O_R   0.653084 0.876909 0.782168 -0.277816
O260  O     O_R   0.598089 0.866554 0.752326 -0.322073
N35   N     N_R   0.358973 0.253632 0.862739 0.166987
O261  O     O_R   0.378174 0.222856 0.849854 -0.269047
O262  O     O_R   0.367330 0.259210 0.899879 -0.338942
N36   N     N_R   0.650766 0.148981 0.249463 -0.059340
O263  O     O_R   0.618051 0.130184 0.236986 -0.092909
O264  O     O_R   0.629239 0.117568 0.238457 -0.091287
N37   N     N_R   0.636424 0.250353 0.137001 0.166449
O265  O     O_R   0.651238 0.219976 0.118759 -0.288410
O266  O     O_R   0.599621 0.244390 0.135334 -0.321165
N38   N     N_R   0.363827 0.136354 0.750983 0.167981
O267  O     O_R   0.384360 0.150003 0.780019 -0.266610
O268  O     O_R   0.363791 0.099603 0.758851 -0.307421
N39   N     N_R   0.638471 0.750970 0.865633 0.164027
O269  O     O_R   0.613550 0.779925 0.849719 -0.263439
O270  O     O_R   0.636982 0.760850 0.902125 -0.305498
N40   N     N_R   0.360003 0.862405 0.257853 0.165045
O271  O     O_R   0.363366 0.846239 0.223317 -0.284118
O272  O     O_R   0.371382 0.899345 0.261924 -0.337289
N41   N     N_R   0.254504 0.137346 0.639733 0.170107
O273  O     O_R   0.221104 0.154647 0.633390 -0.285459
O274  O     O_R   0.256564 0.099886 0.629444 -0.336212
N42   N     N_R   0.136567 0.748518 0.361056 0.170879
O275  O     O_R   0.152538 0.780554 0.374900 -0.277765
O276  O     O_R   0.098903 0.746998 0.368502 -0.332802
N43   N     N_R   0.749862 0.863199 0.637626 0.169699
O277  O     O_R   0.780296 0.848266 0.619646 -0.262276
O278  O     O_R   0.754463 0.900509 0.634830 -0.322747
N44   N     N_R   0.859585 0.251303 0.355446 0.154357
O279  O     O_R   0.851029 0.223656 0.380843 -0.265066
O280  O     O_R   0.894772 0.259203 0.367031 -0.326335
N45   N     N_R   0.751099 0.140507 0.357854 0.155620
O281  O     O_R   0.776756 0.147731 0.385238 -0.263806
O282  O     O_R   0.748555 0.103530 0.365389 -0.318538
N46   N     N_R   0.863544 0.749273 0.636888 0.168153
O283  O     O_R   0.850254 0.778372 0.616095 -0.259505
O284  O     O_R   0.899776 0.757130 0.636041 -0.306069
N47   N     N_R   0.248245 0.859980 0.358624 0.166647
O285  O     O_R   0.221756 0.851606 0.385193 -0.260516
O286  O     O_R   0.252619 0.896992 0.366289 -0.320005
N48   N     N_R   0.139976 0.250589 0.642974 0.165160
O287  O     O_R   0.148668 0.223212 0.617206 -0.261154
O288  O     O_R   0.104033 0.258072 0.633360 -0.329104

loop_
_geom_bond_atom_site_label_1
_geom_bond_atom_site_label_2
_geom_bond_distance
_ccdc_geom_bond_type
O12   C161  1.294905 A    
C615  H192  1.079710 S    
O174  C218  1.318720 A    
O79   C169  1.305253 A    
C56   C643  1.603148 S    
C483  C484  1.389632 A    
C158  C281  1.450160 S    
O134  Cu7   2.011152 S    
C446  C447  1.414539 A    
C654  H225  1.019591 S    
C423  C424  1.361240 A    
C143  C371  1.260052 T    
N15   O222  1.306719 A    
C479  C480  1.371832 A    
C263  C332  1.456891 A    
C135  C215  1.488484 S    
N12   O215  1.396100 A    
C387  H2    1.081938 S    
C100  C376  1.253927 T    
O7    C157  1.317812 A    
C662  C663  1.374647 A    
C482  C483  1.418076 A    
C180  C263  1.482840 S    
C428  H36   0.992453 S    
C279  C333  1.447538 A    
C139  C367  1.256667 T    
C601  C606  1.407858 A    
O21   C160  1.307273 A    
O84   Cu41  2.015410 S    
C433  C438  1.407747 A    
O53   C180  1.304391 A    
O189  C235  1.328706 A    
C273  C309  1.459058 A    
C461  H64   1.080975 S    
Cu33  Cu48  2.717260 S    
C265  C301  1.447171 A    
C471  C472  1.362896 A    
O130  Cu1   2.010024 S    
Cu1   Cu14  2.717578 S    
N36   O264  1.343958 A    
C24   C349  1.492095 S    
C417  H27   1.083608 S    
O127  Cu14  2.009043 S    
C30   C66   1.462637 A    
C103  C200  1.489338 S    
O152  C235  1.316468 A    
C669  H237  1.081409 S    
C297  N9    1.571298 S    
N19   O229  1.301722 A    
O16   Cu16  2.009839 S    
C110  C231  1.499816 S    
O105  C216  1.322206 A    
C263  C290  1.469205 A    
C46   C375  1.505007 S    
C36   C65   1.463473 A    
N4    O200  1.275743 A    
C256  C323  1.458353 A    
O13   C166  1.303046 A    
O135  C201  1.319937 A    
O41   C146  1.302800 A    
C283  C317  1.494709 A    
C592  C593  1.388104 A    
O33   C156  1.305046 A    
C394  C395  1.382014 A    
C487  C488  1.421981 A    
O141  C196  1.323414 A    
C42   C78   1.466616 A    
C444  H50   0.992317 S    
C455  C456  1.371397 A    
C13   C59   1.465114 A    
C586  H168  1.075286 S    
O96   Cu46  2.016544 S    
C401  C402  1.370612 A    
O11   Cu11  2.005990 S    
O67   C176  1.314789 A    
O86   C178  1.303182 A    
O18   C165  1.307159 A    
C576  H160  1.037453 S    
C622  H198  1.087524 S    
O68   C181  1.305314 A    
C246  C313  1.481574 A    
C468  H70   0.996148 S    
C271  C305  1.464888 A    
C128  C357  1.257139 T    
O51   C184  1.314533 A    
C602  H181  0.999169 S    
O85   C179  1.302393 A    
C105  C195  1.501150 S    
C162  C283  1.467037 S    
Cu9   Cu22  2.717260 S    
C2    C50   1.467685 A    
C400  C401  1.361557 A    
C421  C422  1.407972 A    
C18   C351  1.510428 S    
Cu8   Cu21  2.708543 S    
C521  C522  1.402454 A    
C616  C617  1.360614 A    
O54   Cu30  2.018885 S    
C467  H69   1.081668 S    
C409  C414  1.407022 A    
O73   Cu37  2.010300 S    
O54   C191  1.306571 A    
C598  H178  1.088770 S    
C568  C569  1.361292 A    
C465  H67   1.080752 S    
C137  C208  1.491975 S    
C543  C544  1.361351 A    
O38   C151  1.301158 A    
O161  C218  1.323487 A    
C327  N39   1.594599 S    
C284  C315  1.478406 A    
C582  H165  1.038504 S    
C560  H146  1.056468 S    
C31   C72   1.467962 A    
C144  C205  1.496686 S    
C301  N13   1.544606 S    
C671  H239  1.081266 S    
O46   Cu15  2.012240 S    
O182  C226  1.330080 A    
C477  H77   1.081196 S    
C438  H45   0.996852 S    
O30   Cu23  2.018885 S    
C144  C372  1.257967 T    
O108  C209  1.324655 A    
C463  C464  1.406507 A    
O137  C194  1.321042 A    
C34   C66   1.465599 A    
O176  Cu44  2.009955 S    
C633  H207  1.079912 S    
C559  C564  1.416766 A    
O97   C211  1.323342 A    
C623  H199  1.082075 S    
C119  C224  1.495779 S    
C123  C218  1.495518 S    
C555  C556  1.362121 A    
C460  H63   1.084550 S    
C9    C358  1.506530 S    
C295  N7    1.546455 S    
C584  H166  0.996195 S    
C54   C631  1.586645 S    
C473  C474  1.375890 A    
O180  Cu41  2.018120 S    
C190  C243  1.491429 S    
O15   Cu15  2.006993 S    
C520  H113  1.087026 S    
C617  H194  1.081367 S    
C178  C257  1.470034 S    
N32   O256  1.269153 A    
Cu3   Cu12  2.704446 S    
C450  H55   1.027784 S    
C568  H153  1.073712 S    
C663  H232  1.081010 S    
O81   Cu45  2.009772 S    
C430  C431  1.363975 A    
C318  N30   1.525622 S    
C429  C430  1.362999 A    
C59   C661  1.578964 S    
C139  C212  1.486630 S    
C313  N25   1.587675 S    
O161  Cu26  2.019753 S    
C274  C308  1.474788 A    
C496  H93   1.096051 S    
C458  C459  1.401713 A    
O121  C199  1.327389 A    
C241  C318  1.445070 A    
C120  C349  1.253777 T    
C36   C364  1.499278 S    
C581  H164  1.082517 S    
O165  C220  1.330085 A    
C247  C295  1.447955 A    
C13   C360  1.506623 S    
O75   C173  1.304733 A    
C420  H30   1.069235 S    
C550  H138  1.090423 S    
N33   O258  1.287748 A    
C316  N28   1.501506 S    
C563  H149  1.082901 S    
C637  C638  1.406600 A    
Cu2   Cu23  2.703418 S    
C611  C612  1.379166 A    
O106  Cu10  2.010024 S    
C42   C381  1.508354 S    
O149  Cu29  2.010704 S    
C503  H99   1.081278 S    
C494  H91   1.057792 S    
C45   C95   1.465278 A    
C264  C299  1.461977 A    
C419  H29   1.082625 S    
C634  C635  1.361621 A    
C81   C511  1.586930 S    
C557  C558  1.370674 A    
C435  C436  1.362815 A    
C78   C481  1.595844 S    
N34   O260  1.303388 A    
C386  C387  1.370667 A    
C397  C398  1.406898 A    
O29   C147  1.301593 A    
C488  C489  1.416237 A    
C631  C632  1.409707 A    
C109  C236  1.505132 S    
N7    O206  1.286604 A    
C55   C637  1.572419 S    
C432  H40   0.993268 S    
O119  C210  1.328827 A    
C73   C463  1.574477 S    
N39   O269  1.397135 A    
O133  Cu20  2.017405 S    
O101  Cu5   2.010704 S    
C523  C524  1.416918 A    
N40   O271  1.294739 A    
C665  H234  1.081911 S    
O90   Cu45  2.006684 S    
C171  C260  1.424126 S    
N14   O220  1.307296 A    
O150  C239  1.315984 A    
O20   Cu20  2.006461 S    
C457  C458  1.413623 A    
C100  C201  1.483187 S    
O115  C212  1.319527 A    
C113  C340  1.256370 T    
O50   C185  1.299182 A    
O81   C183  1.299658 A    
C289  N1    1.545488 S    
O96   C188  1.317469 A    
N31   O253  1.291881 A    
C535  C540  1.429155 A    
C625  C630  1.406747 A    
C319  N31   1.574893 S    
C489  H87   1.082627 S    
Cu28  Cu44  2.708543 S    
C605  H184  1.081181 S    
C608  H186  0.992059 S    
O4    Cu4   2.013668 S    
C398  H11   0.992240 S    
C640  H213  1.073424 S    
C65   C553  1.573433 S    
C459  C460  1.381709 A    
C136  C213  1.490168 S    
C659  H229  1.081608 S    
C141  C207  1.502491 S    
C408  H20   1.001783 S    
C415  C416  1.421695 A    
C533  C534  1.371540 A    
C104  C380  1.258927 T    
N36   O263  1.350461 A    
C283  C332  1.490993 A    
O91   C189  1.303983 A    
C478  H78   1.073522 S    
C39   C380  1.505552 S    
C11   C356  1.497708 S    
O52   Cu28  2.013668 S    
C86   C385  1.579774 S    
C668  C669  1.406113 A    
C537  C538  1.383854 A    
O116  C215  1.326843 A    
C621  C622  1.379057 A    
C613  C618  1.407426 A    
C9    C57   1.467043 A    
C425  H34   1.080198 S    
C192  C245  1.431796 S    
N44   O279  1.300394 A    
O79   Cu43  2.009166 S    
C502  C503  1.384377 A    
N4    O199  1.296989 A    
C1    C49   1.463742 A    
C507  C508  1.382256 A    
O148  Cu28  2.015234 S    
N7    O205  1.287224 A    
C48   C376  1.493574 S    
C596  C597  1.409005 A    
C493  C494  1.412373 A    
C553  C554  1.405591 A    
C1    C350  1.505464 S    
O102  C206  1.317870 A    
N25   O241  1.292047 A    
C322  N34   1.623490 S    
C288  C323  1.466130 A    
C644  C645  1.430042 A    
O178  C230  1.323705 A    
C324  N36   1.478130 S    
C636  H210  0.998087 S    
C497  H94   1.082699 S    
O24   C166  1.306948 A    
C619  C624  1.424459 A    
O3    C161  1.293878 A    
C285  C318  1.453423 A    
C122  C237  1.493157 S    
C17   C54   1.466890 A    
O107  C215  1.316752 A    
C667  C668  1.415706 A    
O179  C229  1.316803 A    
O185  C239  1.327709 A    
C533  H124  1.081178 S    
C470  H71   0.997038 S    
O167  C222  1.325263 A    
C124  C345  1.259645 T    
O170  Cu38  2.009249 S    
C254  C289  1.474259 A    
O48   C154  1.303312 A    
C14   C337  1.502579 S    
O157  Cu35  2.017405 S    
O104  C208  1.313767 A    
O13   Cu13  2.014858 S    
O89   Cu38  2.018723 S    
C128  C217  1.498178 S    
C515  H109  1.082465 S    
C558  H145  0.995533 S    
C449  C450  1.414644 A    
O43   C152  1.322138 A    
C277  C326  1.483662 A    
C445  C450  1.429783 A    
C642  H215  0.996138 S    
C43   C79   1.466549 A    
O128  Cu19  2.009955 S    
C19   C52   1.468583 A    
C161  C286  1.419280 S    
Cu5   Cu16  2.704446 S    
C602  C603  1.370605 A    
C579  C580  1.383833 A    
C655  C656  1.412632 A    
N38   O268  1.267737 A    
C447  C448  1.379770 A    
O22   Cu22  2.012240 S    
C97   C373  1.260222 T    
C456  H60   0.993308 S    
C296  N8    1.520257 S    
C491  C492  1.415415 A    
C434  H41   0.995375 S    
C111  C342  1.252152 T    
O38   Cu7   2.007667 S    
C329  N41   1.531728 S    
C105  C381  1.257542 T    
C109  C344  1.262733 T    
Cu26  Cu42  2.703418 S    
C183  C246  1.474036 S    
O191  C233  1.318730 A    
C241  C289  1.452659 A    
O108  Cu12  2.018120 S    
O144  C202  1.320962 A    
O34   C145  1.318416 A    
C542  C543  1.369476 A    
O55   Cu31  2.009166 S    
C95   C391  1.588933 S    
O6    Cu6   2.018885 S    
C490  H88   1.087729 S    
C117  C352  1.255979 T    
C595  C600  1.414154 A    
C412  C413  1.361098 A    
O183  C225  1.317774 A    
C333  N45   1.538468 S    
C486  H85   1.038565 S    
C163  C285  1.468616 S    
N5    O201  1.291545 A    
O122  C198  1.314703 A    
C22   C88   1.463888 A    
C26   C72   1.473983 A    
C551  C552  1.409415 A    
O45   Cu4   2.009087 S    
O146  C233  1.315567 A    
C626  H201  0.996328 S    
O115  Cu19  2.014534 S    
N32   O255  1.295558 A    
C253  C299  1.472704 A    
C41   C377  1.499788 S    
C562  C563  1.385475 A    
C26   C370  1.505401 S    
O16   C159  1.319498 A    
C33   C62   1.469574 A    
O26   Cu17  2.009680 S    
N35   O261  1.298863 A    
C411  H22   1.081121 S    
N9    O209  1.296856 A    
C133  C214  1.501318 S    
O168  C227  1.326228 A    
C17   C342  1.491193 S    
C409  C410  1.408283 A    
C593  H174  1.081565 S    
C309  N21   1.572188 S    
C445  C446  1.430711 A    
C457  C462  1.411864 A    
C413  C414  1.371861 A    
C495  H92   1.081272 S    
O92   Cu47  2.006461 S    
O99   Cu3   2.016283 S    
O138  C201  1.322707 A    
C257  C334  1.474947 A    
C38   C382  1.507367 S    
O65   C170  1.304526 A    
C454  H58   1.074021 S    
C246  C294  1.477504 A    
C32   C68   1.463738 A    
O40   C147  1.290291 A    
C261  C330  1.453205 A    
O146  Cu26  2.009249 S    
C601  C602  1.406382 A    
C49   C601  1.569932 S    
O122  Cu17  2.009249 S    
C299  N11   1.538000 S    
C578  H161  1.042946 S    
O130  C193  1.326134 A    
O132  C197  1.326029 A    
O18   Cu18  2.006684 S    
C123  C346  1.257927 T    
O57   C186  1.306258 A    
C625  C626  1.405347 A    
C653  H224  1.081417 S    
O63   Cu36  2.006993 S    
C506  H101  1.039496 S    
C416  H26   1.063125 S    
C3    C348  1.499605 S    
O31   C145  1.305793 A    
O149  C228  1.327418 A    
C615  C616  1.362452 A    
C21   C344  1.514797 S    
C92   C445  1.620191 S    
O88   Cu39  2.009839 S    
N34   O259  1.294534 A    
C509  C510  1.399576 A    
O140  C203  1.330656 A    
C599  H179  1.081384 S    
N29   O250  1.292636 A    
C30   C369  1.510694 S    
C428  C429  1.378608 A    
O102  Cu6   2.019592 S    
O66   Cu33  2.006684 S    
C122  C347  1.261268 T    
C505  C506  1.414774 A    
O78   Cu42  2.018885 S    
C662  H231  0.995986 S    
C627  C628  1.362009 A    
C250  C325  1.481186 A    
C584  C585  1.378988 A    
O141  Cu4   2.012104 S    
C411  C412  1.359678 A    
C649  C654  1.411808 A    
O117  Cu21  2.012104 S    
C604  C605  1.362087 A    
C405  C406  1.362107 A    
C25   C61   1.469671 A    
C565  C570  1.408823 A    
O120  C214  1.329232 A    
N14   O219  1.291503 A    
C276  C310  1.499163 A    
O153  C234  1.325056 A    
C112  C341  1.253128 T    
N48   O288  1.287188 A    
C155  C266  1.491390 S    
O131  C203  1.315539 A    
C405  H17   1.081805 S    
C270  C307  1.468381 A    
C280  C322  1.489507 A    
C403  C404  1.413643 A    
N3    O198  1.309880 A    
C579  H162  1.081681 S    
C112  C225  1.489055 S    
C11   C93   1.469071 A    
C441  C442  1.361022 A    
C577  C582  1.418727 A    
C508  C509  1.378094 A    
C632  H206  1.001267 S    
C255  C300  1.460690 A    
C499  C504  1.409911 A    
C252  C291  1.448890 A    
N10   O212  1.270204 A    
C529  C534  1.407569 A    
C58   C655  1.589551 S    
C312  N24   1.595289 S    
C629  H204  1.080992 S    
O142  Cu15  2.010641 S    
C590  C591  1.418504 A    
C9    C91   1.465430 A    
C583  C588  1.411644 A    
C567  C568  1.363609 A    
C544  H133  1.073674 S    
C20   C347  1.503824 S    
C439  C440  1.406976 A    
C571  C576  1.418175 A    
C587  H169  1.082080 S    
O133  C202  1.323192 A    
O110  Cu14  2.011152 S    
C487  C492  1.422642 A    
C102  C194  1.496063 S    
C395  C396  1.399690 A    
C527  C528  1.401813 A    
O61   C188  1.305252 A    
C649  C650  1.409153 A    
Cu34  Cu47  2.711556 S    
C646  H218  1.095691 S    
N30   O252  1.310989 A    
N45   O281  1.297089 A    
N31   O254  1.279029 A    
C580  H163  1.084776 S    
O164  Cu35  2.006849 S    
C541  C542  1.406228 A    
O94   Cu48  2.012240 S    
C388  C389  1.360944 A    
O40   Cu3   2.009839 S    
C641  H214  1.081171 S    
O82   C182  1.313451 A    
C40   C383  1.513124 S    
C6    C96   1.466484 A    
C512  H106  1.049592 S    
C394  H8    1.083080 S    
C505  C510  1.419219 A    
C431  H39   1.081527 S    
C573  C574  1.382359 A    
C34   C363  1.498186 S    
C19   C340  1.501075 S    
C521  H114  1.081489 S    
C10   C55   1.466377 A    
C284  C330  1.485882 A    
C43   C378  1.506908 S    
C554  H141  0.996242 S    
C598  C599  1.384163 A    
N25   O242  1.266999 A    
Cu35  Cu46  2.711556 S    
C422  C423  1.369149 A    
C258  C300  1.481735 A    
C24   C84   1.465087 A    
O118  C216  1.325695 A    
O111  C213  1.317698 A    
C103  C379  1.255287 T    
C37   C379  1.497981 S    
C334  N46   1.574207 S    
C27   C368  1.505275 S    
C93   C427  1.592785 S    
C665  C666  1.374072 A    
C15   C60   1.467259 A    
N29   O249  1.302955 A    
C389  H4    1.081086 S    
O39   C153  1.330141 A    
O157  C236  1.321202 A    
C539  H129  1.082557 S    
C25   C70   1.469369 A    
C104  C198  1.496364 S    
C244  C319  1.482213 A    
C481  C482  1.413145 A    
C638  H211  0.997452 S    
C551  H139  1.082205 S    
O167  Cu30  2.010536 S    
C141  C369  1.258585 T    
C556  C557  1.361168 A    
C566  H151  0.998644 S    
C110  C343  1.259064 T    
C31   C67   1.466494 A    
C526  C527  1.379570 A    
O76   Cu40  2.013668 S    
C633  C634  1.365273 A    
C11   C58   1.469265 A    
O35   C155  1.325908 A    
C620  H196  1.029472 S    
C282  C336  1.474067 A    
C527  H119  1.081727 S    
C117  C220  1.495274 S    
C564  H150  1.049166 S    
C555  H142  1.080029 S    
C32   C372  1.504636 S    
C107  C197  1.505858 S    
C302  N14   1.555885 S    
C41   C94   1.469625 A    
C12   C51   1.464426 A    
N38   O267  1.292398 A    
O135  Cu22  2.007544 S    
C520  C521  1.378928 A    
C120  C233  1.481440 S    
C609  C610  1.363286 A    
C147  C276  1.423110 S    
O183  Cu48  2.007544 S    
N27   O246  1.307680 A    
O158  C223  1.325416 A    
C39   C96   1.465336 A    
O33   Cu18  2.009772 S    
O175  Cu43  2.009043 S    
O152  Cu32  2.009955 S    
N23   O238  1.314984 A    
O10   C157  1.302068 A    
C168  C277  1.469288 S    
C249  C297  1.494545 A    
C607  C612  1.411729 A    
O58   C169  1.312166 A    
C399  H12   1.080945 S    
C85   C523  1.591706 S    
C300  N12   1.589295 S    
C531  C532  1.361890 A    
C581  C582  1.402332 A    
O62   Cu31  2.007667 S    
C287  C325  1.460398 A    
C44   C83   1.465779 A    
O87   C177  1.300288 A    
C82   C421  1.570978 S    
N5    O202  1.289358 A    
C619  C620  1.421281 A    
C614  H191  0.996367 S    
C106  C382  1.257385 T    
O100  Cu4   2.015234 S    
C655  C660  1.412427 A    
O129  Cu18  2.013094 S    
C618  H195  0.995535 S    
C647  H219  1.083088 S    
C606  H185  0.997589 S    
C185  C256  1.472869 S    
C611  H189  1.081640 S    
C452  C453  1.371386 A    
C503  C504  1.401618 A    
C32   C70   1.468070 A    
N9    O210  1.290272 A    
O121  Cu10  2.008535 S    
Cu27  Cu41  2.704446 S    
O9    Cu9   2.009772 S    
O34   Cu1   2.008181 S    
C658  H228  1.076382 S    
O192  C236  1.330819 A    
C536  H126  1.035875 S    
C634  H208  1.076656 S    
C267  C308  1.457467 A    
C484  H83   1.092855 S    
C160  C284  1.454432 S    
C129  C230  1.487908 S    
C656  C657  1.377155 A    
C84   C397  1.574853 S    
C397  C402  1.405536 A    
O25   C151  1.319943 A    
C151  C273  1.476695 S    
O184  C228  1.315090 A    
O113  Cu17  2.019753 S    
C464  H66   0.995150 S    
C16   C341  1.497738 S    
O138  Cu9   2.007851 S    
O45   C148  1.296815 A    
N6    O204  1.286179 A    
C514  C515  1.382053 A    
C131  C354  1.256146 T    
C641  C642  1.370693 A    
O77   Cu41  2.011601 S    
C610  H188  1.075693 S    
C517  C518  1.414464 A    
C115  C234  1.488965 S    
C429  H37   1.082053 S    
O97   Cu1   2.008535 S    
C310  N22   1.593033 S    
C575  H159  1.081816 S    
O173  C219  1.315077 A    
O5    C159  1.301279 A    
C451  C452  1.406169 A    
C46   C84   1.462801 A    
O93   Cu40  2.009087 S    
C628  C629  1.361474 A    
C18   C82   1.463469 A    
N42   O276  1.303979 A    
C511  C516  1.418290 A    
C650  C651  1.393502 A    
O187  C237  1.321175 A    
C2    C90   1.470476 A    
C588  H170  0.996973 S    
C130  C221  1.497242 S    
O165  Cu28  2.012104 S    
C483  H82   1.080744 S    
C326  N38   1.586400 S    
C446  H51   1.025693 S    
N47   O286  1.285233 A    
O188  Cu47  2.006849 S    
C391  C396  1.409551 A    
C261  C296  1.450335 A    
C275  C304  1.460642 A    
O188  C240  1.319558 A    
N16   O224  1.289085 A    
O101  C207  1.319086 A    
C631  C636  1.413030 A    
C148  C272  1.481063 S    
O179  Cu46  2.007317 S    
C670  H238  1.087208 S    
O59   C192  1.300239 A    
C548  C549  1.410306 A    
C472  C473  1.362860 A    
O172  Cu40  2.015234 S    
C387  C388  1.360224 A    
O66   C177  1.314844 A    
C532  C533  1.362085 A    
C418  C419  1.390567 A    
C427  C428  1.411903 A    
O26   C150  1.322064 A    
C433  C434  1.411065 A    
C290  N2    1.588368 S    
O91   Cu44  2.014372 S    
O3    Cu3   2.017258 S    
C7    C346  1.505015 S    
C513  H107  1.081523 S    
C442  C443  1.359846 A    
C102  C378  1.262986 T    
C668  H236  1.046521 S    
C518  H111  1.044811 S    
C471  H72   1.081103 S    
O63   C190  1.336431 A    
N10   O211  1.292291 A    
C279  C324  1.434771 A    
C441  H47   1.080786 S    
N19   O230  1.284129 A    
O47   C150  1.292055 A    
C504  H100  1.036309 S    
C269  C301  1.471129 A    
O1    C163  1.317848 A    
C417  C418  1.389355 A    
C164  C282  1.478057 S    
O125  Cu12  2.010704 S    
C453  C454  1.361968 A    
O150  Cu30  2.019592 S    
C80   C505  1.588554 S    
C332  N44   1.531609 S    
O35   Cu24  2.005990 S    
O160  Cu27  2.012456 S    
O158  Cu31  2.011152 S    
N11   O213  1.301347 A    
C574  H158  1.085333 S    
C126  C223  1.488261 S    
C644  H216  1.046796 S    
C167  C278  1.492654 S    
C424  H33   1.073263 S    
C25   C367  1.497131 S    
O12   Cu12  2.015410 S    
C493  C498  1.416940 A    
C60   C667  1.586924 S    
O72   C179  1.307238 A    
O155  C240  1.318720 A    
Cu7   Cu10  2.717578 S    
C251  C298  1.474007 A    
C331  N43   1.577778 S    
N30   O251  1.319891 A    
O131  Cu24  2.007317 S    
C272  C312  1.467883 A    
C501  H97   1.080786 S    
C455  H59   1.081272 S    
C414  H25   0.994397 S    
C566  C567  1.371016 A    
O50   Cu26  2.009680 S    
O126  Cu23  2.019592 S    
C173  C258  1.443653 S    
C175  C262  1.477719 S    
O154  C217  1.321424 A    
O175  C217  1.329150 A    
O123  Cu16  2.016283 S    
C622  C623  1.376382 A    
C436  C437  1.365650 A    
C336  N48   1.534699 S    
C427  C432  1.411151 A    
C285  C321  1.475993 A    
N26   O244  1.313876 A    
C407  H19   1.080272 S    
O166  C231  1.329411 A    
C573  H157  1.080566 S    
C466  C467  1.361803 A    
C132  C219  1.495168 S    
C421  C426  1.406133 A    
C591  C592  1.385792 A    
C499  C500  1.408413 A    
C407  C408  1.377501 A    
C278  C328  1.437299 A    
C467  C468  1.370952 A    
C145  C275  1.477724 S    
C67   C565  1.573487 S    
C469  C470  1.410987 A    
C399  C400  1.360661 A    
C260  C298  1.488937 A    
C248  C296  1.457664 A    
C545  H134  1.079534 S    
O181  C227  1.318609 A    
C170  C249  1.446763 S    
C8    C357  1.505476 S    
C186  C241  1.482103 S    
C585  C586  1.365770 A    
O23   C162  1.319758 A    
C422  H31   0.995954 S    
C385  C390  1.407466 A    
C560  C561  1.422450 A    
C589  C590  1.418774 A    
O189  Cu40  2.012104 S    
O190  Cu48  2.010641 S    
C671  C672  1.406715 A    
O109  C214  1.319450 A    
C540  H130  1.031126 S    
N43   O278  1.272556 A    
C6    C353  1.503859 S    
C393  C394  1.380781 A    
O132  Cu5   2.018120 S    
C314  N26   1.605819 S    
C23   C338  1.498797 S    
O117  C208  1.328218 A    
C15   C354  1.507792 S    
N18   O227  1.400871 A    
C519  C520  1.382567 A    
O104  Cu8   2.009955 S    
C287  C316  1.446950 A    
O71   Cu30  2.008386 S    
C264  C331  1.477409 A    
C83   C499  1.579259 S    
C623  C624  1.408000 A    
C530  H121  0.994918 S    
O47   Cu6   2.008386 S    
C137  C365  1.254503 T    
C424  C425  1.363039 A    
C252  C327  1.458782 A    
C66   C559  1.592207 S    
C603  H182  1.080734 S    
O143  Cu6   2.010536 S    
O113  C206  1.326470 A    
C436  H43   1.073992 S    
C2    C359  1.498079 S    
N11   O214  1.288308 A    
C132  C353  1.258032 T    
C5    C352  1.504104 S    
O73   C175  1.320135 A    
O144  Cu11  2.015729 S    
C275  C311  1.458176 A    
C572  C573  1.401436 A    
C99   C203  1.496306 S    
O145  C226  1.321507 A    
C16   C53   1.465013 A    
C267  C303  1.445616 A    
C561  C562  1.387409 A    
N12   O216  1.279457 A    
C597  H177  1.081315 S    
C500  C501  1.401796 A    
O128  C196  1.318164 A    
C41   C77   1.465649 A    
C31   C366  1.510020 S    
C496  C497  1.387358 A    
C440  C441  1.370322 A    
C87   C487  1.608662 S    
C281  C334  1.495315 A    
C406  H18   1.076299 S    
C17   C75   1.466733 A    
C52   C619  1.607841 S    
O116  Cu20  2.006849 S    
O14   Cu14  2.007667 S    
O58   Cu25  2.008181 S    
C1    C83   1.463923 A    
C643  C648  1.422418 A    
C392  C393  1.398701 A    
N37   O265  1.296217 A    
C259  C336  1.460135 A    
C321  N33   1.593652 S    
C563  C564  1.420729 A    
C599  C600  1.409061 A    
O162  Cu33  2.007851 S    
C45   C374  1.496957 S    
O100  C212  1.320652 A    
N6    O203  1.304029 A    
O174  Cu42  2.019592 S    
O42   Cu9   2.006684 S    
O6    C158  1.299877 A    
C23   C79   1.470226 A    
O148  C237  1.321534 A    
O154  Cu25  2.010024 S    
C20   C86   1.467616 A    
C12   C339  1.498379 S    
C14   C80   1.464212 A    
C255  C324  1.452380 A    
C488  H86   1.021911 S    
C244  C292  1.488763 A    
C630  H205  0.995871 S    
C515  C516  1.408159 A    
C390  H5    0.992435 S    
O74   C174  1.321401 A    
C35   C68   1.462818 A    
C146  C269  1.457844 S    
C652  C653  1.376685 A    
N2    O196  1.266771 A    
C657  C658  1.363607 A    
C256  C293  1.459977 A    
O30   C146  1.305123 A    
C523  C528  1.419070 A    
C430  H38   1.075547 S    
N42   O275  1.300110 A    
O32   Cu19  2.011249 S    
C474  H75   0.998006 S    
O124  C200  1.319646 A    
C448  H53   1.088181 S    
C306  N18   1.492316 S    
C40   C81   1.466258 A    
C538  C539  1.380426 A    
O8    C160  1.301827 A    
C632  C633  1.377846 A    
C635  C636  1.377525 A    
N41   O273  1.291007 A    
C280  C331  1.489631 A    
O51   Cu27  2.017258 S    
O89   C191  1.300621 A    
C291  N3    1.477512 S    
C639  H212  1.080930 S    
Cu30  Cu38  2.703418 S    
C262  C297  1.477294 A    
O46   C156  1.319226 A    
C292  N4    1.576434 S    
C485  H84   1.082210 S    
O71   C174  1.293847 A    
N16   O223  1.295166 A    
O76   C176  1.304086 A    
O178  Cu37  2.010024 S    
C664  C665  1.363543 A    
C392  H6    1.035121 S    
O57   Cu33  2.009772 S    
C535  C536  1.425467 A    
C571  C572  1.415238 A    
O2    C162  1.289691 A    
C125  C228  1.498109 S    
O173  Cu41  2.010704 S    
C608  C609  1.379548 A    
C4    C52   1.466673 A    
C640  C641  1.361932 A    
C479  H79   1.080844 S    
C116  C337  1.255470 T    
O147  Cu27  2.016283 S    
C273  C306  1.442393 A    
C415  C420  1.417957 A    
C482  H81   1.042392 S    
O19   Cu19  2.014372 S    
C477  C478  1.360414 A    
O159  C238  1.318801 A    
O142  C204  1.324658 A    
C254  C321  1.486624 A    
C478  C479  1.360611 A    
C304  N16   1.547878 S    
C133  C361  1.260630 T    
C29   C365  1.500735 S    
C174  C251  1.476302 S    
O151  C230  1.321643 A    
C620  C621  1.409101 A    
C547  C548  1.407752 A    
C621  H197  1.080836 S    
O169  C223  1.320201 A    
C561  H147  1.081537 S    
C149  C274  1.432068 S    
C549  H137  1.080301 S    
C528  H120  1.035813 S    
C554  C555  1.371503 A    
O190  C234  1.321112 A    
O125  C195  1.320930 A    
C288  C314  1.456461 A    
C669  C670  1.384913 A    
C21   C56   1.465637 A    
C121  C348  1.254167 T    
C250  C295  1.472971 A    
C552  H140  1.047058 S    
C243  C320  1.451964 A    
C10   C343  1.508536 S    
C19   C77   1.466381 A    
C191  C254  1.459949 S    
O169  Cu37  2.008535 S    
C435  H42   1.082359 S    
O118  Cu22  2.010641 S    
C75   C451  1.578000 S    
C389  C390  1.370816 A    
O42   C153  1.298621 A    
C3    C85   1.465104 A    
C28   C69   1.466230 A    
C519  H112  1.080419 S    
O191  Cu42  2.010536 S    
C659  C660  1.377099 A    
O80   C172  1.321117 A    
O83   Cu46  2.005990 S    
C592  H173  1.095691 S    
N26   O243  1.311419 A    
C28   C371  1.513398 S    
C106  C199  1.500288 S    
C448  C449  1.381481 A    
C88   C409  1.580055 S    
O151  Cu31  2.009043 S    
C463  C468  1.408296 A    
C165  C279  1.494303 S    
C21   C73   1.465874 A    
C330  N42   1.550306 S    
N15   O221  1.283937 A    
O163  C224  1.326592 A    
C587  C588  1.378229 A    
C98   C374  1.251991 T    
C121  C222  1.490642 S    
C646  C647  1.390773 A    
O80   Cu44  2.011249 S    
O176  C220  1.313575 A    
O44   C155  1.300979 A    
C650  H221  1.020050 S    
C522  H115  1.039945 S    
C169  C264  1.462516 S    
O107  Cu11  2.007317 S    
C660  H230  0.997191 S    
C569  H154  1.081437 S    
C525  C526  1.382218 A    
C124  C235  1.496450 S    
C142  C211  1.498936 S    
C404  C405  1.376867 A    
C524  H116  1.040084 S    
O24   Cu24  2.016544 S    
C27   C63   1.457908 A    
C543  H132  1.081212 S    
C62   C535  1.620481 S    
C96   C457  1.589864 S    
C187  C252  1.494186 S    
C34   C63   1.462960 A    
C431  C432  1.378885 A    
O70   C183  1.321516 A    
C47   C373  1.501389 S    
C583  C584  1.410626 A    
C491  H89   1.082475 S    
C10   C74   1.462299 A    
C434  C435  1.375423 A    
N27   O245  1.406222 A    
C53   C625  1.571880 S    
O103  C205  1.330291 A    
O85   Cu47  2.014858 S    
O8    Cu8   2.011249 S    
C437  C438  1.376388 A    
C328  N40   1.495906 S    
C47   C86   1.469447 A    
O120  Cu24  2.015729 S    
C591  H172  1.082197 S    
C542  H131  0.995974 S    
C490  C491  1.382455 A    
C72   C595  1.596083 S    
C595  C596  1.414859 A    
C461  C462  1.401964 A    
N35   O262  1.302676 A    
C412  H23   1.074089 S    
O156  C221  1.318450 A    
O112  Cu16  2.012456 S    
C670  C671  1.383950 A    
C559  C560  1.412247 A    
C47   C93   1.467793 A    
C536  C537  1.423377 A    
C626  C627  1.371207 A    
N20   O232  1.264042 A    
C460  C461  1.382742 A    
C562  H148  1.094569 S    
Cu36  Cu45  2.717260 S    
C480  H80   0.991272 S    
O86   Cu43  2.007667 S    
O136  C195  1.323312 A    
C130  C355  1.259582 T    
O98   C210  1.312245 A    
C281  C313  1.490909 A    
C61   C529  1.575665 S    
O192  Cu46  2.015729 S    
C547  C552  1.413382 A    
O29   Cu12  2.011601 S    
O2    Cu2   2.009680 S    
C495  C496  1.389106 A    
C247  C316  1.439050 A    
C77   C475  1.579712 S    
C308  N20   1.561425 S    
N21   O233  1.294838 A    
C274  C312  1.488493 A    
O60   C173  1.296267 A    
N46   O284  1.259844 A    
C578  C579  1.402879 A    
C635  H209  1.081490 S    
O177  Cu45  2.013094 S    
C653  C654  1.393212 A    
C335  N47   1.546614 S    
C664  H233  1.073609 S    
C140  C368  1.256623 T    
C628  H203  1.073872 S    
N13   O217  1.286329 A    
C416  C417  1.432013 A    
O162  C225  1.329025 A    
C134  C216  1.493289 S    
O186  Cu45  2.007851 S    
Cu6   Cu17  2.703418 S    
C113  C238  1.492673 S    
O147  C232  1.316852 A    
C266  C305  1.440635 A    
C534  H125  0.994350 S    
O106  C205  1.319252 A    
C605  C606  1.370462 A    
O68   Cu35  2.006461 S    
C154  C268  1.442510 S    
C46   C89   1.461177 A    
C525  H117  1.081283 S    
C307  N19   1.563057 S    
C29   C65   1.462163 A    
O15   C165  1.322905 A    
C494  C495  1.421414 A    
C181  C242  1.423293 S    
O123  C197  1.320644 A    
C27   C71   1.460579 A    
N2    O195  1.287973 A    
N39   O270  1.279983 A    
C557  H144  1.081118 S    
O23   Cu23  2.008386 S    
O48   Cu11  2.016544 S    
C627  H202  1.079967 S    
O90   C190  1.292186 A    
C386  H1    0.991814 S    
O20   C167  1.301257 A    
C286  C327  1.492055 A    
O187  Cu44  2.014534 S    
C63   C541  1.566979 S    
C604  H183  1.073924 S    
O77   C171  1.301372 A    
C5    C81   1.463865 A    
C45   C82   1.468686 A    
C140  C210  1.496357 S    
C172  C255  1.472573 S    
C473  H74   1.081694 S    
N40   O272  1.314194 A    
N41   O274  1.313044 A    
C645  C646  1.391511 A    
C270  C311  1.449502 A    
O7    Cu7   2.009166 S    
O65   Cu26  2.018723 S    
C286  C320  1.482133 A    
C311  N23   1.511721 S    
O159  Cu36  2.007544 S    
C453  H57   1.080128 S    
N44   O280  1.287284 A    
C508  H103  1.084316 S    
O10   Cu10  2.008181 S    
C35   C361  1.509885 S    
C245  C314  1.480712 A    
O92   C192  1.299117 A    
C529  C530  1.407534 A    
C99   C375  1.256850 T    
C410  H21   0.992072 S    
C596  H176  1.037148 S    
N37   O266  1.267889 A    
C42   C85   1.467930 A    
C590  H171  1.052150 S    
O184  Cu39  2.012456 S    
N8    O208  1.322998 A    
O114  Cu18  2.007851 S    
C29   C69   1.466311 A    
O49   Cu25  2.010300 S    
C544  C545  1.362779 A    
C107  C383  1.260207 T    
C489  C490  1.382341 A    
C524  C525  1.402000 A    
O166  Cu36  2.010641 S    
C426  H35   0.998543 S    
C398  C399  1.371008 A    
C423  H32   1.081757 S    
C69   C577  1.587479 S    
O126  C194  1.320006 A    
C116  C227  1.493796 S    
C119  C350  1.257736 T    
C395  H9    1.079367 S    
O98   Cu2   2.009249 S    
C265  C306  1.438568 A    
C89   C415  1.599297 S    
C76   C493  1.597164 S    
C580  C581  1.380808 A    
O37   Cu20  2.014858 S    
C475  C476  1.407033 A    
O78   C170  1.298013 A    
C512  C513  1.408659 A    
O14   C163  1.302373 A    
C276  C302  1.491695 A    
C179  C244  1.451298 S    
C129  C356  1.257801 T    
O60   Cu29  2.015410 S    
C79   C439  1.579440 S    
O75   Cu39  2.017258 S    
C661  C666  1.409631 A    
C613  C614  1.404674 A    
C6    C54   1.464466 A    
C126  C359  1.257808 T    
O143  C198  1.327255 A    
C71   C589  1.585516 S    
C600  H180  1.037931 S    
C612  H190  0.992012 S    
O103  Cu7   2.009043 S    
C38   C87   1.474408 A    
C152  C270  1.484840 S    
O37   C154  1.300452 A    
C507  H102  1.080667 S    
O44   Cu13  2.006461 S    
O82   Cu37  2.008181 S    
C90   C469  1.586274 S    
C138  C366  1.260821 T    
O93   C187  1.295992 A    
O156  Cu29  2.018120 S    
O28   C152  1.300748 A    
O25   Cu10  2.010300 S    
O28   Cu21  2.013668 S    
C589  C594  1.415618 A    
C16   C76   1.468558 A    
C136  C364  1.253489 T    
C497  C498  1.420736 A    
O69   Cu28  2.009087 S    
C271  C310  1.479598 A    
C153  C267  1.489510 S    
C188  C247  1.485768 S    
N18   O228  1.437207 A    
C118  C239  1.501466 S    
C556  H143  1.073684 S    
C323  N35   1.539565 S    
C127  C232  1.497682 S    
C325  N37   1.572181 S    
C459  H62   1.081518 S    
C7    C55   1.469033 A    
C278  C335  1.453364 A    
O9    C168  1.297509 A    
C177  C248  1.462024 S    
C13   C89   1.460034 A    
O1    Cu1   2.010300 S    
C443  C444  1.370124 A    
O83   C181  1.291555 A    
O64   C171  1.290844 A    
O186  C238  1.328582 A    
C616  H193  1.073446 S    
C572  H156  1.040442 S    
N45   O282  1.276185 A    
O105  Cu9   2.013094 S    
C257  C294  1.454815 A    
C35   C61   1.466467 A    
C37   C73   1.472230 A    
C447  H52   1.084206 S    
C127  C358  1.260269 T    
C277  C329  1.468083 A    
C400  H13   1.073406 S    
C624  H200  1.025266 S    
C406  C407  1.365414 A    
O95   Cu42  2.008386 S    
O140  Cu13  2.006849 S    
C115  C338  1.258625 T    
C531  H122  1.081539 S    
C303  N15   1.505879 S    
Cu32  Cu40  2.708543 S    
C36   C64   1.466079 A    
N23   O237  1.293173 A    
C614  C615  1.370702 A    
C282  C319  1.468909 A    
C242  C317  1.518685 A    
N24   O240  1.277070 A    
N20   O231  1.294291 A    
O170  C222  1.312788 A    
N17   O225  1.292997 A    
C657  H227  1.081779 S    
C57   C649  1.586426 S    
C452  H56   0.995262 S    
C64   C547  1.586248 S    
O95   C185  1.314523 A    
C585  H167  1.081408 S    
C484  C485  1.387059 A    
O171  C221  1.323518 A    
O87   Cu48  2.006993 S    
C510  H105  1.034002 S    
C51   C613  1.572226 S    
C464  C465  1.370950 A    
C401  H14   1.080588 S    
N21   O234  1.263612 A    
O181  Cu47  2.017405 S    
C514  H108  1.089338 S    
N46   O283  1.287047 A    
N17   O226  1.313365 A    
C30   C71   1.461953 A    
C593  C594  1.419552 A    
O172  C224  1.318230 A    
O110  C211  1.327390 A    
C251  C328  1.458619 A    
C125  C360  1.258480 T    
C68   C571  1.590969 S    
C517  C522  1.418289 A    
N13   O218  1.286894 A    
C454  C455  1.359406 A    
C91   C403  1.586785 S    
C253  C322  1.466633 A    
O99   C209  1.322045 A    
C458  H61   1.027454 S    
C538  H128  1.092062 S    
C575  C576  1.400942 A    
C661  C662  1.407899 A    
C315  N27   1.587684 S    
C159  C288  1.487843 S    
C50   C607  1.594633 S    
C506  C507  1.400128 A    
O52   C189  1.305600 A    
C396  H10   1.041160 S    
C272  C303  1.459672 A    
N22   O236  1.270533 A    
O27   Cu16  2.017258 S    
C134  C362  1.254655 T    
C485  C486  1.417343 A    
O153  Cu33  2.013094 S    
O134  C199  1.324546 A    
C4    C355  1.505378 S    
O36   C149  1.296028 A    
C48   C91   1.468282 A    
C570  H155  0.996441 S    
O114  C213  1.329602 A    
C142  C370  1.256239 T    
Cu4   Cu19  2.708543 S    
C70   C583  1.587182 S    
N28   O248  1.420506 A    
O59   Cu34  2.005990 S    
O139  C200  1.320967 A    
O64   Cu27  2.009839 S    
C603  C604  1.363681 A    
C419  C420  1.434487 A    
N1    O193  1.287027 A    
C637  C642  1.407803 A    
C131  C226  1.500210 S    
C548  H136  1.050552 S    
C472  H73   1.075833 S    
C156  C265  1.482861 S    
C656  H226  0.997756 S    
C33   C67   1.469474 A    
N47   O285  1.301643 A    
C418  H28   1.106199 S    
C111  C240  1.480838 S    
C40   C76   1.466796 A    
C12   C78   1.466238 A    
C404  H16   0.998206 S    
C293  N5    1.552163 S    
C565  C566  1.406616 A    
C513  C514  1.384957 A    
C437  H44   1.080645 S    
C518  C519  1.403223 A    
C532  H123  1.073561 S    
C184  C261  1.486460 S    
C157  C287  1.473101 S    
O22   C168  1.322701 A    
O160  C219  1.326343 A    
C403  C408  1.410334 A    
N8    O207  1.311820 A    
C651  H222  1.080247 S    
C259  C292  1.475635 A    
O17   C158  1.304153 A    
C651  C652  1.378751 A    
C550  C551  1.384263 A    
O84   C184  1.304741 A    
C574  C575  1.379159 A    
C298  N10   1.576249 S    
C586  C587  1.364487 A    
C5    C53   1.460233 A    
N3    O197  1.287141 A    
C629  C630  1.370497 A    
O49   C178  1.318526 A    
C260  C335  1.473951 A    
C150  C271  1.474212 S    
C666  H235  0.996573 S    
C439  C444  1.409155 A    
C492  H90   1.022802 S    
O32   C148  1.324614 A    
C118  C351  1.260263 T    
C243  C291  1.436885 A    
C443  H49   1.082029 S    
O67   Cu32  2.014372 S    
C567  H152  1.080582 S    
Cu31  Cu37  2.717578 S    
Cu13  Cu24  2.711556 S    
C501  C502  1.385112 A    
C8    C56   1.473571 A    
C476  C477  1.371374 A    
Cu15  Cu18  2.717260 S    
O19   C164  1.316311 A    
Cu29  Cu39  2.704446 S    
O94   C186  1.317870 A    
O21   Cu21  2.009087 S    
C182  C259  1.466133 S    
C268  C304  1.472666 A    
C541  C546  1.403987 A    
C388  H3    1.073637 S    
C569  C570  1.370737 A    
C44   C384  1.509315 S    
C466  H68   1.073666 S    
C176  C253  1.480481 S    
C537  H127  1.081255 S    
O62   C175  1.304217 A    
O180  C232  1.325835 A    
O119  Cu23  2.010536 S    
C98   C204  1.487160 S    
C594  H175  1.057672 S    
C269  C309  1.480054 A    
C425  C426  1.370281 A    
O5    Cu5   2.011601 S    
C469  C474  1.412114 A    
C440  H46   0.992411 S    
C18   C60   1.463072 A    
C502  H98   1.085166 S    
O127  C193  1.326118 A    
O111  Cu15  2.007544 S    
O136  Cu3   2.012456 S    
O36   Cu5   2.015410 S    
C498  H95   1.053811 S    
C410  C411  1.371618 A    
C546  H135  0.996956 S    
O4    C164  1.301480 A    
C97   C202  1.491256 S    
C189  C250  1.454760 S    
O70   Cu36  2.012240 S    
C385  C386  1.408665 A    
C553  C558  1.407239 A    
C43   C90   1.466431 A    
O53   Cu29  2.011601 S    
O137  Cu2   2.019753 S    
C539  C540  1.422507 A    
C22   C57   1.467201 A    
C402  H15   0.994455 S    
C26   C62   1.471884 A    
C33   C362  1.501325 S    
C37   C92   1.473907 A    
C481  C486  1.418081 A    
C268  C307  1.478112 A    
O171  Cu39  2.016283 S    
C638  C639  1.370157 A    
Cu25  Cu43  2.717578 S    
C663  C664  1.365090 A    
C8    C92   1.474860 A    
C14   C49   1.465510 A    
C648  H220  1.041854 S    
C20   C58   1.466342 A    
C245  C293  1.479758 A    
C465  C466  1.362542 A    
C667  C672  1.416441 A    
C3    C51   1.461654 A    
C23   C50   1.467038 A    
O145  Cu25  2.008535 S    
O69   C172  1.294789 A    
C526  H118  1.085532 S    
O155  Cu34  2.007317 S    
C470  C471  1.375684 A    
O17   Cu17  2.018723 S    
C475  C480  1.407100 A    
C15   C95   1.464882 A    
C108  C384  1.258049 T    
C242  C290  1.513170 A    
C530  C531  1.370800 A    
O74   Cu38  2.009680 S    
C38   C74   1.465423 A    
O182  Cu43  2.011152 S    
C4    C94   1.468780 A    
O61   Cu35  2.014858 S    
C24   C59   1.468246 A    
C7    C87   1.472559 A    
C28   C64   1.464768 A    
C135  C363  1.252773 T    
O11   C167  1.325109 A    
C549  C550  1.387537 A    
C609  H187  1.081244 S    
C143  C209  1.505721 S    
O56   C187  1.330876 A    
Cu11  Cu20  2.711556 S    
C597  C598  1.384446 A    
C500  H96   1.037599 S    
C94   C433  1.582263 S    
O112  C207  1.325795 A    
C607  C608  1.411011 A    
C317  N29   1.642589 S    
N24   O239  1.383871 A    
C509  H104  1.082144 S    
C258  C333  1.462850 A    
C39   C75   1.463072 A    
C262  C329  1.466669 A    
C138  C206  1.500713 S    
O72   Cu34  2.016544 S    
C22   C345  1.505763 S    
C643  C644  1.420617 A    
O168  Cu34  2.015729 S    
C647  C648  1.428418 A    
O55   C182  1.305900 A    
C476  H76   0.992034 S    
O124  Cu21  2.015234 S    
C44   C80   1.463343 A    
C658  C659  1.363023 A    
C617  C618  1.370132 A    
N33   O257  1.299271 A    
C266  C302  1.450009 A    
C48   C88   1.466700 A    
O129  C204  1.320866 A    
C248  C315  1.460333 A    
N48   O287  1.303585 A    
C114  C229  1.489146 S    
C577  C578  1.415834 A    
C114  C339  1.252998 T    
C639  C640  1.362848 A    
O164  C229  1.326888 A    
C249  C326  1.488409 A    
O39   Cu22  2.006993 S    
N43   O277  1.297972 A    
O177  C231  1.321754 A    
C462  H65   1.028582 S    
C652  H223  1.080990 S    
O185  Cu38  2.019753 S    
C413  H24   1.080538 S    
O109  Cu13  2.017405 S    
O31   Cu14  2.009166 S    
C645  H217  1.082951 S    
C610  C611  1.362621 A    
O56   Cu32  2.011249 S    
C305  N17   1.498256 S    
O41   Cu2   2.018723 S    
N22   O235  1.295468 A    
C442  H48   1.073299 S    
C672  H240  1.044870 S    
C320  N32   1.569797 S    
C393  H7    1.080629 S    
C101  C196  1.488925 S    
C101  C377  1.258208 T    
C449  H54   1.084076 S    
C451  C456  1.408539 A    
C545  C546  1.369980 A    
C74   C517  1.591079 S    
C108  C193  1.501541 S    
O27   C149  1.298901 A    
O163  Cu32  2.014534 S    
O43   Cu8   2.014372 S    
C511  C512  1.414952 A    
N28   O247  1.403928 A    
C294  N6    1.532256 S    
O88   C180  1.315751 A    
C516  H110  1.042961 S    
O139  Cu8   2.014534 S    
C166  C280  1.451346 S    
C391  C392  1.411734 A    
N1    O194  1.287545 A    
