data_mof_unit_39385.cif
_audit_creation_date              2012-12-10T20:43:18-0500
_audit_creation_method            fapswitch 2.2
_symmetry_space_group_name_H-M    P1
_symmetry_Int_Tables_number       1
_space_group_crystal_system       triclinic
_cell_length_a                    15.785034
_cell_length_b                    10.701008
_cell_length_c                    9.919589
_cell_angle_alpha                 90.517762
_cell_angle_beta                  89.039174
_cell_angle_gamma                 91.40905
_cell_volume                      1674.77053606

loop_
_atom_site_label
_atom_site_type_symbol
_atom_type_description
_atom_site_fract_x
_atom_site_fract_y
_atom_site_fract_z
_atom_type_partial_charge
C1    C     C_R   0.501898 0.258696 0.498169 0.874320
C2    C     C_R   0.045512 0.621596 0.458425 0.236010
C3    C     C_1   0.823971 0.508729 0.493141 -0.071303
C4    C     C_1   0.176576 0.513137 0.500561 -0.061436
C5    C     C_1   0.251391 0.509020 0.502597 -0.203683
C6    C     C_1   0.748966 0.505919 0.496002 -0.203415
C7    C     C_R   0.522435 0.064460 0.617096 0.120946
C8    C     C_R   0.517102 0.125417 0.493371 -0.194022
C9    C     C_R   0.538554 0.057476 0.371862 0.014061
C10   C     C_R   0.557116 0.929859 0.384168 0.179029
C11   C     C_R   0.532219 0.869032 0.503061 -0.178447
C12   C     C_R   0.339602 0.502335 0.500986 0.916274
C13   C     C_R   0.527989 0.937487 0.621697 0.088880
C14   C     C_3   0.471587 0.923762 0.742480 -0.453764
C15   C     C_3   0.463644 0.063865 0.737213 -0.504164
C16   C     C_R   0.425618 0.489542 0.073439 0.082452
C17   C     C_R   0.572542 0.526712 0.068962 0.259203
C18   C     C_R   0.572423 0.522082 0.925203 -0.199652
C19   C     C_R   0.425339 0.503597 0.932296 0.024561
C20   C     C_3   0.343684 0.430006 0.916657 0.251794
C21   C     C_3   0.363138 0.380031 0.058452 -0.194581
C22   C     C_R   0.508758 0.739000 0.500733 0.906212
C23   C     C_R   0.660497 0.501281 0.498947 0.895710
C24   C     C_R   0.957345 0.618492 0.459338 -0.304554
C25   C     C_R   0.913139 0.507825 0.491164 0.111467
C26   C     C_R   0.955473 0.397922 0.522751 0.120851
C27   C     C_R   0.043462 0.402759 0.526613 -0.294428
C28   C     C_R   0.087622 0.513373 0.494984 0.097038
H1    H     H_    0.491442 0.112659 0.825885 0.201702
H2    H     H_    0.630272 0.541488 0.868709 0.168673
H3    H     H_    0.399873 0.292441 0.048955 0.129582
H4    H     H_    0.923318 0.701703 0.433960 0.148592
H5    H     H_    0.077759 0.320080 0.553014 0.149622
H6    H     H_    0.411191 0.872057 0.721356 0.205040
H7    H     H_    0.506262 0.891818 0.832016 0.199479
H8    H     H_    0.398861 0.090128 0.710638 0.204087
N1    N     N_R   0.499440 0.499140 0.142800 -0.119745
N2    N     N_R   0.499440 0.499180 0.857150 -0.119786
O1    O     O_R   0.500010 0.316790 0.614690 -0.602344
O2    O     O_R   0.500000 0.316760 0.385350 -0.638025
O3    O     O_R   0.378030 0.499990 0.614640 -0.598340
O4    O     O_R   0.378020 0.499950 0.385300 -0.622527
O5    O     O_R   0.500000 0.683240 0.614650 -0.624263
O6    O     O_R   0.499990 0.683210 0.385310 -0.589718
O7    O     O_R   0.621980 0.500050 0.614700 -0.623288
O8    O     O_R   0.621970 0.500010 0.385360 -0.587884
Zn1   Zn    Zn3+2 0.500010 0.500020 0.653130 0.940505
Zn2   Zn    Zn3+2 0.499990 0.499980 0.346870 0.955709
N3    N     N_2   0.091151 0.733562 0.423713 -0.303916
H9    H     H_    0.058695 0.813931 0.445867 0.218984
C29   C     C_3   0.125867 0.734380 0.287713 -0.793946
H10   H     H_    0.073956 0.727936 0.213416 0.237048
H11   H     H_    0.169155 0.655283 0.271159 0.247457
H12   H     H_    0.162707 0.822764 0.270858 0.237432
N4    N     N_2   0.645196 0.577201 0.133895 -0.251338
H13   H     H_    0.656136 0.669024 0.106913 0.217583
C30   C     C_3   0.721867 0.506461 0.119306 -0.799901
H14   H     H_    0.742098 0.498916 0.011864 0.216605
H15   H     H_    0.712494 0.412188 0.162203 0.254924
H16   H     H_    0.773549 0.554449 0.175858 0.238984
C31   C     C_3   0.273103 0.530707 0.897105 -0.331636
C32   C     C_3   0.181154 0.500476 0.943957 -0.400059
C33   C     C_3   0.118991 0.589281 0.881062 -0.883486
H17   H     H_    0.136009 0.687740 0.907478 0.260174
H18   H     H_    0.119505 0.578150 0.769868 0.273302
H19   H     H_    0.053861 0.567890 0.919744 0.252529
H20   H     H_    0.160800 0.403567 0.918797 0.230306
H21   H     H_    0.175256 0.514095 0.054584 0.217575
H22   H     H_    0.291351 0.619608 0.949693 0.164788
H23   H     H_    0.272451 0.554670 0.788777 0.232132
N5    N     N_2   0.348797 0.335829 0.810335 -0.239548
H24   H     H_    0.400328 0.279813 0.817384 0.228550
C34   C     C_3   0.271585 0.268787 0.774130 -0.812611
H25   H     H_    0.284613 0.201357 0.691506 0.221040
H26   H     H_    0.225163 0.333646 0.732864 0.257760
H27   H     H_    0.244612 0.217600 0.862436 0.227884
C35   C     C_3   0.287528 0.359093 0.156712 -0.342627
C36   C     C_3   0.301901 0.250549 0.254245 -0.339608
C37   C     C_3   0.219832 0.207649 0.325140 -0.929564
H28   H     H_    0.189501 0.287069 0.377008 0.274829
H29   H     H_    0.174943 0.166468 0.250964 0.260211
H30   H     H_    0.233775 0.135558 0.400945 0.250752
H31   H     H_    0.326740 0.168515 0.198036 0.203948
H32   H     H_    0.348575 0.278262 0.331049 0.253557
H33   H     H_    0.271397 0.446274 0.211480 0.217551
H34   H     H_    0.232661 0.327176 0.096663 0.204083
C38   C     C_3   0.908407 0.275487 0.550194 -0.412702
C39   C     C_3   0.877994 0.215389 0.417998 -0.325709
C40   C     C_3   0.825639 0.096251 0.444005 -0.916949
H35   H     H_    0.863462 0.027351 0.498681 0.262628
H36   H     H_    0.767587 0.117557 0.503955 0.267559
H37   H     H_    0.806465 0.054638 0.346016 0.249446
H38   H     H_    0.838475 0.281177 0.361902 0.225110
H39   H     H_    0.933825 0.192373 0.353408 0.220706
H40   H     H_    0.950326 0.209284 0.601322 0.192343
H41   H     H_    0.853858 0.291766 0.619979 0.205810
C41   C     C_3   0.534182 0.109674 0.229932 -0.375966
C42   C     C_3   0.619565 0.167075 0.184485 -0.314621
C43   C     C_3   0.619966 0.196334 0.034165 -0.911364
H42   H     H_    0.613291 0.108378 0.974603 0.254511
H43   H     H_    0.567106 0.258510 0.010293 0.264384
H44   H     H_    0.680864 0.243127 0.004496 0.254080
H45   H     H_    0.632185 0.253634 0.243607 0.244847
H46   H     H_    0.671408 0.101538 0.203855 0.223123
H47   H     H_    0.514040 0.034933 0.158253 0.170017
H48   H     H_    0.482339 0.175790 0.218412 0.209276
N6    N     N_2   0.604536 0.863266 0.284034 -0.280982
H49   H     H_    0.600279 0.888561 0.184702 0.219327
C44   C     C_3   0.689731 0.832584 0.323174 -0.822327
H50   H     H_    0.693978 0.730247 0.334793 0.270181
H51   H     H_    0.707676 0.877185 0.420669 0.242658
H52   H     H_    0.736324 0.863848 0.244567 0.220438

loop_
_geom_bond_atom_site_label_1
_geom_bond_atom_site_label_2
_ccdc_geom_bond_type
C31   H23   S    
C38   C39   S    
C33   H18   S    
C16   C21   S    
C23   O7    A    
C1    C8    S    
N6    C44   S    
C34   H25   S    
C19   C20   S    
N4    H13   S    
C3    C6    T    
C41   C42   S    
C7    C8    A    
C35   C36   S    
C27   H5    S    
C21   H3    S    
C26   C27   A    
C12   O3    A    
C32   H20   S    
C19   N2    A    
C44   H51   S    
C30   H15   S    
C42   H45   S    
C20   C31   S    
C12   O4    A    
C1    O2    A    
C36   H31   S    
C22   O6    A    
C43   H42   S    
C8    C9    A    
N3    C29   S    
C38   H40   S    
N6    H49   S    
C20   N5    S    
C18   H2    S    
C40   H36   S    
C9    C10   A    
C17   N4    S    
C16   N1    A    
C41   H47   S    
C7    C15   S    
C33   H19   S    
C35   H33   S    
C23   O8    A    
C13   C14   S    
C34   H26   S    
C10   N6    S    
C4    C28   S    
C15   H1    S    
O8    Zn2   S    
O7    Zn1   S    
C39   H39   S    
C29   H10   S    
C3    C25   S    
C24   C25   A    
C5    C12   S    
C44   H52   S    
C14   H7    S    
N5    C34   S    
C36   C37   S    
C26   C38   S    
C30   H16   S    
C17   N1    A    
C25   C26   A    
C37   H28   S    
C40   H37   S    
C24   H4    S    
C32   C33   S    
C2    N3    S    
C22   O5    A    
C38   H41   S    
C17   C18   A    
O3    Zn1   S    
O4    Zn2   S    
C20   C21   S    
N1    Zn2   S    
N2    Zn1   S    
C41   H48   S    
C43   H43   S    
C35   H34   S    
C42   C43   S    
N4    C30   S    
C2    C24   A    
C34   H27   S    
C15   H8    S    
O1    Zn1   S    
C31   H22   S    
O2    Zn2   S    
C39   H38   S    
C9    C41   S    
C4    C5    T    
C14   H6    S    
C37   H30   S    
C11   C22   S    
C37   H29   S    
C32   H21   S    
C29   H12   S    
C18   N2    A    
N5    H24   S    
C44   H50   S    
C11   C13   A    
C30   H14   S    
C16   C19   A    
C42   H46   S    
C6    C23   S    
C31   C32   S    
C10   C11   A    
C1    O1    A    
C33   H17   S    
C36   H32   S    
C7    C13   A    
C43   H44   S    
C39   C40   S    
N3    H9    S    
C21   C35   S    
C27   C28   A    
C14   C15   S    
C2    C28   A    
C29   H11   S    
C40   H35   S    
O5    Zn1   S    
O6    Zn2   S    
