data_mof_unit_21488.cif
_audit_creation_date              2012-12-10T20:27:57-0500
_audit_creation_method            fapswitch 2.2
_symmetry_space_group_name_H-M    P1
_symmetry_Int_Tables_number       1
_space_group_crystal_system       triclinic
_cell_length_a                    12.78425
_cell_length_b                    10.782613
_cell_length_c                    9.861626
_cell_angle_alpha                 88.818076
_cell_angle_beta                  97.299344
_cell_angle_gamma                 91.754076
_cell_volume                      1347.56102942

loop_
_atom_site_label
_atom_site_type_symbol
_atom_type_description
_atom_site_fract_x
_atom_site_fract_y
_atom_site_fract_z
_atom_type_partial_charge
C1    C     C_R   0.500736 0.260195 0.501226 0.912088
C2    C     C_R   0.515826 0.940867 0.376929 0.463723
C3    C     C_R   0.505148 0.871915 0.497254 -0.217078
C4    C     C_R   0.297536 0.497652 0.473053 0.863103
C5    C     C_R   0.494749 0.932102 0.618170 -0.005879
C6    C     C_3   0.562831 0.918911 0.752529 -0.474789
C7    C     C_3   0.565074 0.059248 0.757043 0.323989
C8    C     C_R   0.419181 0.443602 0.059210 0.169807
C9    C     C_R   0.571232 0.570408 0.082770 -0.183302
C10   C     C_R   0.571487 0.571413 0.938084 0.511205
C11   C     C_R   0.418642 0.444137 0.916600 0.056761
C12   C     C_R   0.026173 0.454844 0.561899 0.193495
C13   C     C_3   0.384784 0.310835 0.908655 -0.230313
C14   C     C_3   0.385290 0.310546 0.063523 -0.440267
C15   C     C_R   0.504198 0.739858 0.499313 0.918395
C16   C     C_R   0.699951 0.481641 0.526158 0.886159
C17   C     C_R   0.809496 0.445404 0.539785 -0.082003
C18   C     C_R   0.184577 0.480230 0.456378 -0.064878
C19   C     C_R   0.021798 0.427561 0.316321 -0.227886
C20   C     C_R   0.129364 0.452569 0.328463 -0.171597
C21   C     C_R   0.133030 0.480229 0.572522 -0.265155
C22   C     C_2   0.795516 0.375389 0.293491 0.402114
C23   C     C_R   0.968068 0.432404 0.432108 0.085806
C24   C     C_3   0.723461 0.100204 0.652316 0.123550
C25   C     C_3   0.841152 0.095364 0.703453 -0.345044
C26   C     C_3   0.906224 0.082677 0.585221 -0.914167
C27   C     C_3   0.742764 0.623920 0.904602 0.078654
C28   C     C_3   0.806125 0.720546 0.994332 -0.413722
C29   C     C_3   0.923475 0.692624 0.013885 -0.942793
C30   C     C_2   0.279013 0.290758 0.824464 0.435814
C31   C     C_3   0.655267 0.910144 0.258462 0.063660
C32   C     C_3   0.671963 0.980412 0.126219 -0.308203
C33   C     C_3   0.786663 0.024886 0.127248 -0.916414
C34   C     C_R   0.858145 0.418940 0.422514 -0.090219
C35   C     C_R   0.868530 0.445496 0.668960 -0.268274
C36   C     C_R   0.976988 0.451836 0.680200 -0.192073
C37   C     C_R   0.495140 0.059544 0.621221 -0.016713
C38   C     C_R   0.500550 0.128379 0.501302 -0.180055
C39   C     C_R   0.507471 0.068285 0.378454 -0.285360
H1    H     H_    0.640039 0.876840 0.744699 0.219766
H2    H     H_    0.169299 0.448917 0.238128 0.168171
H3    H     H_    0.175907 0.500368 0.672111 0.163229
H4    H     H_    0.515732 0.119819 0.285297 0.192027
H5    H     H_    0.518371 0.874194 0.831140 0.204902
H6    H     H_    0.810556 0.413157 0.194904 0.041800
H7    H     H_    0.710519 0.180678 0.580680 0.172117
H8    H     H_    0.700122 0.013923 0.595469 0.121282
H9    H     H_    0.866938 0.181466 0.759765 0.246075
H10   H     H_    0.855522 0.014877 0.774989 0.218817
H11   H     H_    0.884046 0.995010 0.530173 0.248099
H12   H     H_    0.523408 0.088570 0.841860 0.096148
H13   H     H_    0.991332 0.081276 0.625502 0.279138
H14   H     H_    0.893212 0.162241 0.512421 0.280339
H15   H     H_    0.774530 0.628580 0.805306 0.186699
H16   H     H_    0.755838 0.528840 0.949707 0.111087
H17   H     H_    0.795208 0.813538 0.944830 0.242352
H18   H     H_    0.778346 0.721498 0.096004 0.212449
H19   H     H_    0.936567 0.600297 0.064115 0.259147
H20   H     H_    0.967455 0.764151 0.079631 0.272629
H21   H     H_    0.954636 0.693749 0.913683 0.266841
H22   H     H_    0.274059 0.295743 0.713976 0.081373
H23   H     H_    0.627597 0.626868 0.146771 0.150777
H24   H     H_    0.694554 0.819730 0.260888 0.135736
H25   H     H_    0.696276 0.962739 0.347502 0.128042
H26   H     H_    0.649289 0.918477 0.038267 0.225718
H27   H     H_    0.620862 0.062363 0.112883 0.235500
H28   H     H_    0.808155 0.093980 0.208652 0.291551
H29   H     H_    0.797375 0.069050 0.027066 0.284897
H30   H     H_    0.840673 0.946090 0.146315 0.251360
H31   H     H_    0.446580 0.254282 0.875077 0.140380
H32   H     H_    0.307107 0.298340 0.100745 0.228269
H33   H     H_    0.447713 0.251926 0.117302 0.189751
H34   H     H_    0.831190 0.445360 0.760928 0.159756
H35   H     H_    0.982297 0.406792 0.215673 0.128914
H36   H     H_    0.021990 0.460527 0.780604 0.167038
N1    N     N_R   0.499290 0.499140 0.142710 -0.116924
N2    N     N_R   0.499290 0.499180 0.857070 -0.151438
O1    O     O_R   0.500010 0.316790 0.614690 -0.632766
O2    O     O_3   0.667425 0.117825 0.765330 -0.631294
O3    O     O_3   0.635537 0.655630 0.877323 -0.639060
O4    O     O_2   0.199331 0.265968 0.877174 -0.592389
O5    O     O_3   0.545705 0.886490 0.262432 -0.620475
O6    O     O_R   0.500000 0.316760 0.385350 -0.603556
O7    O     O_R   0.346360 0.499990 0.595720 -0.640635
O8    O     O_R   0.346350 0.499960 0.366370 -0.621112
O9    O     O_R   0.500000 0.683240 0.614650 -0.576712
O10   O     O_R   0.499990 0.683210 0.385310 -0.574209
O11   O     O_R   0.653650 0.500040 0.633630 -0.617686
O12   O     O_R   0.653640 0.500010 0.404280 -0.605257
O13   O     O_2   0.725980 0.295623 0.297175 -0.592275
Zn1   Zn    Zn3+2 0.500010 0.500020 0.653130 0.974983
Zn2   Zn    Zn3+2 0.499990 0.499980 0.346870 0.986489

loop_
_geom_bond_atom_site_label_1
_geom_bond_atom_site_label_2
_ccdc_geom_bond_type
C5    C37   A    
C18   C21   A    
C14   H32   S    
C35   C36   A    
C20   H2    S    
C28   H17   S    
C27   H15   S    
C28   H18   S    
O6    Zn2   S    
C12   C23   A    
C31   O5    S    
C15   O10   A    
C28   C29   S    
O9    Zn1   S    
C26   H11   S    
C5    C6    S    
C27   H16   S    
C13   H31   S    
C8    N1    A    
C11   N2    A    
C2    C39   A    
C10   N2    A    
C35   H34   S    
C19   C20   A    
C16   C17   S    
C29   H21   S    
C9    N1    A    
C12   C36   A    
C9    C10   A    
C33   H30   S    
C4    C18   S    
C16   O12   A    
C6    H5    S    
O10   Zn2   S    
C1    O1    A    
O8    Zn2   S    
C7    C37   S    
C22   C34   S    
C9    H23   S    
C31   H24   S    
C13   C30   S    
C24   C25   S    
C27   O3    S    
C10   O3    S    
C39   H4    S    
C4    O8    A    
C25   C26   S    
C12   C21   A    
C19   C23   A    
C37   C38   A    
C36   H36   S    
C26   H13   S    
C24   O2    S    
C31   C32   S    
C4    O7    A    
O11   Zn1   S    
C32   H27   S    
C23   C34   A    
C22   O13   D    
O12   Zn2   S    
C25   H9    S    
C1    C38   S    
N1    Zn2   S    
C15   O9    A    
O7    Zn1   S    
C6    H1    S    
C2    O5    S    
C17   C34   A    
C26   H14   S    
C3    C15   S    
C33   H28   S    
C7    O2    S    
N2    Zn1   S    
C8    C14   S    
C24   H8    S    
C14   H33   S    
C31   H25   S    
C19   H35   S    
C3    C5    A    
C6    C7    S    
O1    Zn1   S    
C1    O6    A    
C24   H7    S    
C32   C33   S    
C30   O4    D    
C2    C3    A    
C7    H12   S    
C11   C13   S    
C38   C39   A    
C8    C11   A    
C18   C20   A    
C25   H10   S    
C21   H3    S    
C22   H6    S    
C29   H19   S    
C30   H22   S    
C27   C28   S    
C16   O11   A    
C29   H20   S    
C17   C35   A    
C13   C14   S    
C33   H29   S    
C32   H26   S    
