data_mof_unit_56665.cif
_audit_creation_date              2012-12-11T16:26:28-0500
_audit_creation_method            fapswitch 2.2
_symmetry_space_group_name_H-M    P1
_symmetry_Int_Tables_number       1
_space_group_crystal_system       triclinic
_cell_length_a                    14.068457
_cell_length_b                    14.072268
_cell_length_c                    31.367692
_cell_angle_alpha                 90.060313
_cell_angle_beta                  89.972424
_cell_angle_gamma                 119.979259
_cell_volume                      5379.15737131

loop_
_atom_site_label
_atom_site_type_symbol
_atom_type_description
_atom_site_fract_x
_atom_site_fract_y
_atom_site_fract_z
_atom_type_partial_charge
Br1   Br    Br    0.942588 0.290641 0.168030 -0.246145
Br2   Br    Br    0.290631 0.942613 0.831782 -0.248738
Br3   Br    Br    0.056387 0.346556 0.666867 -0.266243
Br4   Br    Br    0.651876 0.709395 0.831978 -0.245205
Br5   Br    Br    0.346414 0.056792 0.331721 -0.245319
Br6   Br    Br    0.709434 0.651766 0.168170 -0.246938
Br7   Br    Br    0.935280 0.291484 0.328403 -0.232142
Br8   Br    Br    0.348139 0.057488 0.168301 -0.249495
Br9   Br    Br    0.709200 0.645223 0.329576 -0.263721
Br10  Br    Br    0.290788 0.942434 0.667891 -0.240744
Br11  Br    Br    0.057586 0.348168 0.831732 -0.248870
Br12  Br    Br    0.643141 0.708055 0.670444 -0.231674
C1    C     C_R   0.564450 0.446682 0.809178 0.564337
C2    C     C_R   0.446669 0.564435 0.190819 0.563859
C3    C     C_R   0.435677 0.882557 0.309093 0.556234
C4    C     C_R   0.117802 0.553330 0.190818 0.563806
C5    C     C_1   0.000577 0.491107 0.019113 0.008618
C6    C     C_1   0.491935 0.001669 0.480577 0.002613
C7    C     C_1   0.508961 0.509069 0.019152 0.008603
C8    C     C_1   0.989212 0.482947 0.479714 -0.001130
C9    C     C_1   0.490295 0.999652 0.019130 0.008598
C10   C     C_1   0.514835 0.514735 0.480689 -0.000017
C11   C     C_1   0.492230 0.002011 0.518874 0.002954
C12   C     C_R   0.882043 0.435310 0.690719 0.556017
C13   C     C_1   0.999940 0.490808 0.980839 0.008594
C14   C     C_1   0.514988 0.514350 0.519010 -0.001487
C15   C     C_1   0.490669 0.000389 0.980855 0.008609
C16   C     C_1   0.988698 0.482351 0.518023 0.001385
C17   C     C_1   0.509240 0.508794 0.980877 0.008614
C18   C     C_R   0.952837 0.480716 0.847872 0.013122
C19   C     C_R   0.527952 0.047301 0.652010 0.010352
C20   C     C_R   0.519292 0.472198 0.847870 0.013100
C21   C     C_R   0.951465 0.479008 0.651635 0.015549
C22   C     C_R   0.527884 0.047357 0.847882 0.013255
C23   C     C_R   0.553357 0.117838 0.809186 0.564221
C24   C     C_R   0.519249 0.471969 0.652017 0.005836
C25   C     C_R   0.481088 0.954297 0.347552 0.012961
C26   C     C_R   0.047245 0.527843 0.152118 0.013165
C27   C     C_R   0.472903 0.519029 0.347653 0.015210
C28   C     C_R   0.480550 0.952606 0.152097 0.013106
C29   C     C_R   0.044963 0.527458 0.347306 0.004623
C30   C     C_R   0.472185 0.519227 0.152137 0.013033
C31   C     C_R   0.954730 0.566540 0.872326 0.203101
C32   C     C_R   0.611870 0.045124 0.627673 0.187592
C33   C     C_R   0.433356 0.388305 0.872222 0.203398
C34   C     C_R   0.564464 0.446530 0.690743 0.554216
C35   C     C_R   0.953280 0.564433 0.627100 0.161218
C36   C     C_R   0.611814 0.045546 0.872328 0.203328
C37   C     C_R   0.436371 0.387988 0.626610 0.211947
C38   C     C_R   0.568304 0.958480 0.371722 0.161621
C39   C     C_R   0.045291 0.611756 0.127752 0.203382
C40   C     C_R   0.389539 0.435084 0.372857 0.163767
C41   C     C_R   0.566214 0.954307 0.127596 0.203174
C42   C     C_R   0.043958 0.611000 0.372398 0.211382
C43   C     C_R   0.388281 0.433329 0.127732 0.203124
C44   C     C_R   0.971466 0.569214 0.916325 -0.100568
C45   C     C_R   0.882198 0.435556 0.809187 0.564360
C46   C     C_R   0.598368 0.029096 0.583620 -0.106832
C47   C     C_R   0.430692 0.402211 0.916241 -0.100655
C48   C     C_R   0.965724 0.564268 0.582874 -0.117447
C49   C     C_R   0.597685 0.028899 0.916326 -0.100486
C50   C     C_R   0.435876 0.403927 0.582673 -0.089551
C51   C     C_R   0.571225 0.975247 0.415746 -0.119309
C52   C     C_R   0.028748 0.597801 0.083738 -0.100610
C53   C     C_R   0.405305 0.434753 0.416836 -0.115019
C54   C     C_R   0.568718 0.970979 0.083603 -0.100465
C55   C     C_R   0.023633 0.594050 0.416111 -0.089855
C56   C     C_R   0.553363 0.117808 0.690780 0.557052
C57   C     C_R   0.402260 0.430621 0.083723 -0.100658
C58   C     C_R   0.996596 0.495052 0.935323 -0.052416
C59   C     C_R   0.499432 0.004813 0.564436 -0.044415
C60   C     C_R   0.504984 0.501349 0.935354 -0.052398
C61   C     C_R   0.987206 0.487659 0.563615 -0.041785
C62   C     C_R   0.498354 0.003795 0.935338 -0.052398
C63   C     C_R   0.508938 0.504897 0.564546 -0.053841
C64   C     C_R   0.495979 0.998585 0.435010 -0.042696
C65   C     C_R   0.003849 0.498617 0.064636 -0.052384
C66   C     C_R   0.505722 0.508850 0.435139 -0.042287
C67   C     C_R   0.446754 0.564374 0.309145 0.553331
C68   C     C_R   0.494568 0.996217 0.064643 -0.052407
C69   C     C_R   0.994147 0.492719 0.434208 -0.055004
C70   C     C_R   0.501472 0.504825 0.064671 -0.052414
C71   C     C_R   0.020112 0.428037 0.909917 -0.079689
C72   C     C_R   0.408674 0.981153 0.589731 -0.078960
C73   C     C_R   0.572082 0.591898 0.910051 -0.080199
C74   C     C_R   0.011695 0.421171 0.588861 -0.085403
C75   C     C_R   0.407869 0.980262 0.909944 -0.080022
C76   C     C_R   0.572002 0.594870 0.590849 -0.109906
C77   C     C_R   0.427709 0.020654 0.409778 -0.076973
C78   C     C_R   0.435525 0.882144 0.190803 0.563769
C79   C     C_R   0.980369 0.408085 0.089950 -0.080297
C80   C     C_R   0.595599 0.572937 0.408982 -0.106348
C81   C     C_R   0.427689 0.019833 0.090084 -0.079834
C82   C     C_R   0.969567 0.403295 0.407927 -0.106875
C83   C     C_R   0.592018 0.571885 0.090029 -0.079840
C84   C     C_R   0.002365 0.423611 0.865936 0.168156
C85   C     C_R   0.421556 0.998167 0.633777 0.172078
C86   C     C_R   0.576485 0.578717 0.866051 0.167660
C87   C     C_R   0.998136 0.419716 0.633069 0.171248
C88   C     C_R   0.421244 0.997919 0.865963 0.167648
C89   C     C_R   0.117539 0.553365 0.309111 0.555099
C90   C     C_R   0.574152 0.579545 0.634847 0.151181
C91   C     C_R   0.423133 0.002845 0.365773 0.173772
C92   C     C_R   0.997931 0.421305 0.133947 0.167493
C93   C     C_R   0.580412 0.574993 0.364970 0.156096
C94   C     C_R   0.423411 0.002145 0.134062 0.167812
C95   C     C_R   0.990803 0.419494 0.364152 0.156464
C96   C     C_R   0.578768 0.576335 0.134021 0.168163
Cr1   Cr    Cr6+3 0.504240 0.249200 0.750000 1.203691
Cr2   Cr    Cr6+3 0.744960 0.495760 0.750000 1.206638
Cr3   Cr    Cr6+3 0.750800 0.255040 0.750000 1.204516
Cr4   Cr    Cr6+3 0.249200 0.504240 0.250000 1.207474
Cr5   Cr    Cr6+3 0.495760 0.744960 0.250000 1.206818
Cr6   Cr    Cr6+3 0.255040 0.750800 0.250000 1.204220
H1    H     H_    0.036073 0.664724 0.064239 0.169812
H2    H     H_    0.664603 0.036327 0.935888 0.169847
H3    H     H_    0.958699 0.624088 0.563399 0.151121
H4    H     H_    0.371050 0.335287 0.935732 0.169770
H5    H     H_    0.949735 0.327919 0.075604 0.173980
H6    H     H_    0.377446 0.050377 0.424185 0.169344
H7    H     H_    0.672206 0.621372 0.075720 0.174074
H8    H     H_    0.935738 0.321822 0.421355 0.167244
H9    H     H_    0.378226 0.050658 0.075850 0.174197
H10   H     H_    0.676695 0.621821 0.422640 0.165088
H11   H     H_    0.328608 0.950770 0.575343 0.169869
H12   H     H_    0.631957 0.969443 0.435109 0.149335
H13   H     H_    0.050875 0.378566 0.924181 0.174175
H14   H     H_    0.620099 0.676157 0.577311 0.165423
H15   H     H_    0.327615 0.949517 0.924217 0.174128
H16   H     H_    0.040580 0.370327 0.574345 0.163651
H17   H     H_    0.621617 0.672038 0.924409 0.173954
H18   H     H_    0.972077 0.753412 0.787952 0.401413
H19   H     H_    0.820902 0.025641 0.600571 0.349244
H20   H     H_    0.246517 0.219639 0.787568 0.399613
H21   H     H_    0.806901 0.649638 0.615884 0.323604
H22   H     H_    0.781710 0.028277 0.787935 0.401020
H23   H     H_    0.335325 0.371022 0.064189 0.169789
H24   H     H_    0.156692 0.158475 0.630592 0.402599
H25   H     H_    0.648409 0.808708 0.383773 0.322457
H26   H     H_    0.026489 0.780573 0.212266 0.400303
H27   H     H_    0.161421 0.360274 0.387936 0.321884
H28   H     H_    0.754045 0.972068 0.211732 0.401995
H29   H     H_    0.999377 0.844126 0.367656 0.406226
H30   H     H_    0.219391 0.246139 0.212174 0.401415
H31   H     H_    0.032124 0.660555 0.436240 0.174687
H32   H     H_    0.628140 0.963463 0.064002 0.169882
H33   H     H_    0.338812 0.376749 0.436931 0.151422
H34   H     H_    0.665290 0.036194 0.564152 0.140055
H35   H     H_    0.964064 0.628754 0.935897 0.169819
H36   H     H_    0.378740 0.337131 0.562458 0.173987
O1    O     O_R   0.480350 0.140770 0.796330 -0.438260
O2    O     O_R   0.140770 0.480350 0.203670 -0.437164
O3    O     O_R   0.519650 0.660420 0.296330 -0.427709
O4    O     O_R   0.339580 0.859230 0.203670 -0.438202
O5    O     O_R   0.514930 0.348530 0.793250 -0.447347
O6    O     O_R   0.833600 0.485070 0.706750 -0.448273
O7    O     O_R   0.651470 0.166400 0.793250 -0.447179
O8    O     O_R   0.514930 0.348530 0.706750 -0.447006
O9    O     O_R   0.833600 0.485070 0.793250 -0.446723
O10   O     O_R   0.651470 0.166400 0.706750 -0.449530
O11   O     O_R   0.348530 0.514930 0.293250 -0.447578
O12   O     O_R   0.660420 0.519650 0.703670 -0.428996
O13   O     O_R   0.485070 0.833600 0.206750 -0.446486
O14   O     O_R   0.166400 0.651470 0.293250 -0.447117
O15   O     O_R   0.348530 0.514930 0.206750 -0.447221
O16   O     O_R   0.485070 0.833600 0.293250 -0.447640
O17   O     O_R   0.166400 0.651470 0.206750 -0.447220
O18   O     O_3   0.666667 0.333333 0.750000 -0.335341
O19   O     O_3   0.333333 0.666667 0.250000 -0.335692
O20   O     O_2   0.828609 0.649490 0.851655 -0.249689
O21   O     O_2   0.014640 0.779245 0.875296 -0.218172
O22   O     O_3   0.990367 0.698597 0.799039 -0.443009
O23   O     O_R   0.859230 0.339580 0.796330 -0.437715
O24   O     O_2   0.820397 0.167457 0.650690 -0.263083
O25   O     O_2   0.706148 0.007738 0.695452 -0.173522
O26   O     O_3   0.767254 0.974529 0.621629 -0.462025
O27   O     O_2   0.349754 0.179272 0.851274 -0.248974
O28   O     O_2   0.220403 0.236150 0.874946 -0.217897
O29   O     O_3   0.301418 0.292592 0.798776 -0.444931
O30   O     O_2   0.989222 0.695349 0.695344 -0.175699
O31   O     O_2   0.027052 0.780390 0.624845 -0.233039
O32   O     O_3   0.824321 0.657941 0.646732 -0.450945
O33   O     O_2   0.820892 0.171667 0.851684 -0.250065
O34   O     O_R   0.480350 0.140770 0.703670 -0.431452
O35   O     O_2   0.764747 0.985721 0.875278 -0.217904
O36   O     O_3   0.708545 0.009886 0.799028 -0.442602
O37   O     O_2   0.356436 0.178501 0.645466 -0.255994
O38   O     O_2   0.302709 0.282841 0.692953 -0.206275
O39   O     O_3   0.213573 0.228420 0.617889 -0.499517
O40   O     O_2   0.695893 0.988110 0.303009 -0.174961
O41   O     O_2   0.783646 0.028101 0.373046 -0.230589
O42   O     O_3   0.656805 0.824824 0.352825 -0.455288
O43   O     O_2   0.170810 0.820792 0.148667 -0.248865
O44   O     O_2   0.984708 0.764100 0.124976 -0.218235
O45   O     O_R   0.660420 0.519650 0.796330 -0.436731
O46   O     O_3   0.009022 0.707685 0.201163 -0.444180
O47   O     O_2   0.283464 0.304640 0.305536 -0.174944
O48   O     O_2   0.240260 0.221178 0.376299 -0.230610
O49   O     O_3   0.166809 0.350980 0.356880 -0.458486
O50   O     O_2   0.648920 0.827926 0.148147 -0.249957
O51   O     O_2   0.778842 0.013768 0.124488 -0.218528
O52   O     O_3   0.698711 0.989833 0.200793 -0.442032
O53   O     O_2   0.177491 0.820241 0.354441 -0.257190
O54   O     O_2   0.021611 0.719172 0.305689 -0.205723
O55   O     O_3   0.984215 0.773459 0.380333 -0.496420
O56   O     O_R   0.859230 0.339580 0.703670 -0.431962
O57   O     O_2   0.179226 0.350029 0.148568 -0.248825
O58   O     O_2   0.235863 0.220518 0.124871 -0.218273
O59   O     O_3   0.292321 0.301397 0.201089 -0.444689
O60   O     O_R   0.140770 0.480350 0.296330 -0.425372
O61   O     O_R   0.519650 0.660420 0.203670 -0.436552
O62   O     O_R   0.339580 0.859230 0.296330 -0.431420
S1    S     S_3+6 0.945897 0.676701 0.849811 0.080554
S2    S     S_3+6 0.676390 0.945257 0.150024 0.080501
S3    S     S_3+6 0.059023 0.733875 0.351323 0.071832
S4    S     S_3+6 0.269498 0.323079 0.150334 0.080462
S5    S     S_3+6 0.729044 0.050688 0.650559 0.080623
S6    S     S_3+6 0.322988 0.269657 0.849533 0.080196
S7    S     S_3+6 0.952013 0.678711 0.649673 0.087246
S8    S     S_3+6 0.730919 0.054398 0.849810 0.080470
S9    S     S_3+6 0.326461 0.266546 0.647637 0.070714
S10   S     S_3+6 0.680382 0.953344 0.348954 0.086269
S11   S     S_3+6 0.053645 0.730506 0.150411 0.080266
S12   S     S_3+6 0.269109 0.323699 0.351654 0.089220

loop_
_geom_bond_atom_site_label_1
_geom_bond_atom_site_label_2
_ccdc_geom_bond_type
Br11  C84   S    
Cr6   O19   S    
Br5   C91   S    
O33   S8    D    
C38   C51   A    
O35   S8    D    
Br4   C86   S    
C20   C33   A    
C1    C20   S    
C31   C44   A    
O27   S6    D    
O47   S12   D    
C38   S10   S    
C60   C73   A    
Cr2   O12   S    
Cr6   O17   S    
O20   S1    D    
Br12  C90   S    
Cr4   O11   S    
O54   S3    D    
C41   S2    S    
C70   C83   A    
C2    O61   A    
C72   C85   A    
H28   O52   S    
O53   S3    D    
Cr1   O1    S    
C59   C72   A    
C80   H10   S    
C30   C43   A    
C46   H34   S    
C46   C59   A    
C67   O3    A    
C51   C64   A    
Cr1   O8    S    
C4    O17   A    
Br9   C93   S    
C34   O8    A    
C18   C45   S    
C48   C61   A    
C24   C90   A    
C22   C23   S    
C52   C65   A    
Cr6   O62   S    
C40   C53   A    
C3    C25   S    
C26   C92   A    
C57   C70   A    
C35   C48   A    
Cr2   O18   S    
C68   C81   A    
C1    O5    A    
C39   S11   S    
Cr1   O5    S    
O31   S7    D    
C22   C88   A    
Cr4   O2    S    
C3    O16   A    
C24   C34   S    
C73   C86   A    
C62   C75   A    
C78   O4    A    
C15   C62   S    
C50   H36   S    
C79   C92   A    
C29   C89   S    
C64   C77   A    
C2    C30   S    
C17   C60   S    
C37   S9    S    
O38   S9    D    
C83   H7    S    
C65   C79   A    
C27   C40   A    
C45   O9    A    
Br2   C88   S    
O32   S7    S    
O58   S4    D    
C52   H1    S    
C8    C69   S    
C77   C91   A    
C33   S6    S    
O25   S5    D    
C42   S3    S    
C23   O1    A    
C67   O11   A    
C35   S7    S    
C16   C61   S    
H30   O59   S    
O49   S12   S    
C30   C96   A    
O39   S9    S    
C57   H23   S    
C19   C56   S    
C29   C42   A    
C82   C95   A    
C12   O56   A    
O59   S4    S    
C19   C32   A    
C39   C52   A    
C6    C11   T    
C51   H12   S    
C11   C59   S    
Cr5   O61   S    
H25   O42   S    
C32   C46   A    
Cr5   O16   S    
C25   C91   A    
C74   H16   S    
Cr5   O19   S    
C26   C39   A    
C8    C16   T    
H27   O49   S    
C66   C80   A    
O36   S8    S    
C21   C87   A    
C27   C67   S    
Br10  C85   S    
O48   S12   D    
Cr3   O10   S    
C23   O7    A    
C55   H31   S    
C3    O62   A    
C74   C87   A    
Cr1   O18   S    
C81   C94   A    
Cr5   O13   S    
C63   C76   A    
O50   S2    D    
Cr4   O19   S    
O41   S10   D    
C77   H6    S    
C13   C58   S    
C49   H2    S    
C5    C65   S    
C14   C63   S    
C48   H3    S    
C4    O2    A    
O24   S5    D    
O52   S2    S    
C2    O15   A    
C58   C71   A    
H26   O46   S    
Br1   C92   S    
C10   C66   S    
C43   C57   A    
C45   O23   A    
C82   H8    S    
Cr1   O34   S    
C55   C69   A    
C47   H4    S    
C44   C58   A    
O26   S5    S    
Cr6   O14   S    
O29   S6    S    
C1    O45   A    
H20   O29   S    
Br7   C95   S    
C18   C31   A    
H24   O39   S    
C53   H33   S    
O22   S1    S    
C7    C17   T    
C43   S4    S    
C54   C68   A    
C28   C94   A    
C75   C88   A    
C36   S8    S    
C72   H11   S    
C27   C93   A    
C56   O34   A    
C6    C64   S    
C37   C50   A    
C29   C95   A    
C7    C70   S    
H22   O36   S    
Cr3   O23   S    
O28   S6    D    
C89   O14   A    
C32   S5    S    
C81   H9    S    
Cr5   O3    S    
O30   S7    D    
Br8   C94   S    
C76   C90   A    
C40   S12   S    
C42   C55   A    
C89   O60   A    
O37   S9    D    
C47   C60   A    
C12   C21   S    
C78   O13   A    
C53   C66   A    
C5    C13   T    
C75   H15   S    
O40   S10   D    
Cr3   O7    S    
O42   S10   S    
C76   H14   S    
C41   C54   A    
C73   H17   S    
C69   C82   A    
C36   C49   A    
H29   O55   S    
Cr3   O56   S    
C21   C35   A    
C71   C84   A    
C9    C68   S    
C25   C38   A    
O57   S4    D    
C20   C86   A    
Cr4   O15   S    
C79   H5    S    
C19   C85   A    
C9    C15   T    
C50   C63   A    
H19   O26   S    
C71   H13   S    
C61   C74   A    
C54   H32   S    
O46   S11   S    
Cr2   O6    S    
C83   C96   A    
Cr2   O9    S    
C18   C84   A    
O21   S1    D    
Br3   C87   S    
C80   C93   A    
O43   S11   D    
C22   C36   A    
O55   S3    S    
C33   C47   A    
C28   C41   A    
C10   C14   T    
C4    C26   S    
Cr2   O45   S    
Br6   C96   S    
O51   S2    D    
Cr3   O18   S    
H18   O22   S    
H21   O32   S    
C28   C78   S    
C44   H35   S    
C56   O10   A    
C34   O12   A    
Cr6   O4    S    
C24   C37   A    
C12   O6    A    
C49   C62   A    
Cr4   O60   S    
O44   S11   D    
C31   S1    S    
