data_mof_unit_11656.cif
_audit_creation_date              2012-12-11T15:49:04-0500
_audit_creation_method            fapswitch 2.2
_symmetry_space_group_name_H-M    P1
_symmetry_Int_Tables_number       1
_space_group_crystal_system       triclinic
_cell_length_a                    21.759942
_cell_length_b                    7.175236
_cell_length_c                    14.958724
_cell_angle_alpha                 89.999609
_cell_angle_beta                  107.959099
_cell_angle_gamma                 90.001369
_cell_volume                      2221.75112462

loop_
_atom_site_label
_atom_site_type_symbol
_atom_type_description
_atom_site_fract_x
_atom_site_fract_y
_atom_site_fract_z
_atom_type_partial_charge
O1    O     O_R   0.335860 0.638190 0.002110 -0.531197
O2    O     O_R   0.664140 0.361810 0.997890 -0.573148
O3    O     O_R   0.164140 0.138190 0.997890 -0.531198
O4    O     O_R   0.835860 0.861810 0.002110 -0.573122
O5    O     O_R   0.217530 0.305920 0.861960 -0.529785
O6    O     O_R   0.782470 0.694080 0.138040 -0.548753
O7    O     O_R   0.282470 0.805920 0.138040 -0.529783
O8    O     O_R   0.717530 0.194080 0.861960 -0.548750
C1    C     C_R   0.206616 0.477647 0.825258 0.846789
C2    C     C_R   0.794408 0.522828 0.174800 0.839397
C3    C     C_R   0.293384 0.977645 0.174741 0.846815
C4    C     C_R   0.705591 0.022830 0.825199 0.839320
O9    O     O_R   0.338690 0.308320 0.993240 -0.500946
O10   O     O_R   0.661310 0.691680 0.006760 -0.490854
O11   O     O_R   0.161310 0.808320 0.006760 -0.500947
O12   O     O_R   0.838690 0.191680 0.993240 -0.490827
O13   O     O_R   0.286170 0.140430 0.130100 -0.546925
O14   O     O_R   0.713830 0.859570 0.869900 -0.532984
O15   O     O_R   0.213830 0.640430 0.869900 -0.546924
O16   O     O_R   0.786170 0.359570 0.130100 -0.532970
C5    C     C_R   0.365264 0.478078 0.999247 0.777288
C6    C     C_R   0.634622 0.522444 0.999846 0.767683
C7    C     C_R   0.134735 0.978073 0.000752 0.777300
C8    C     C_R   0.865375 0.022451 0.000138 0.767684
O17   O     O_3   0.232630 0.472410 0.044750 -0.368637
O18   O     O_3   0.767370 0.527590 0.955250 -0.380291
O19   O     O_3   0.267370 0.972410 0.955250 -0.368650
O20   O     O_3   0.732630 0.027590 0.044750 -0.380329
V1    V     V_3+5 0.253220 0.196620 0.991700 1.733992
V2    V     V_3+5 0.746780 0.803380 0.008300 1.639628
V3    V     V_3+5 0.246780 0.696620 0.008300 1.734008
V4    V     V_3+5 0.753220 0.303380 0.991700 1.639692
C9    C     C_R   0.040808 0.855565 0.047276 0.741506
C10   C     C_R   0.959610 0.145730 0.955489 0.674624
C11   C     C_R   0.459175 0.355588 0.952691 0.741569
C12   C     C_R   0.540386 0.645725 0.044482 0.674478
C13   C     C_R   0.976427 0.863444 0.049561 -0.283032
C14   C     C_R   0.024018 0.139999 0.954880 -0.247772
C15   C     C_R   0.523560 0.363424 0.950411 -0.283049
C16   C     C_R   0.475984 0.639991 0.045111 -0.247765
C17   C     C_R   0.934824 0.010371 0.002867 -0.287556
C18   C     C_R   0.065746 0.992202 0.000458 -0.269698
C19   C     C_R   0.565170 0.510354 0.997108 -0.287575
C20   C     C_R   0.434249 0.492215 0.999525 -0.269722
C21   C     C_R   0.677422 0.013727 0.722268 -0.298216
C22   C     C_R   0.319401 0.994851 0.277433 -0.275384
C23   C     C_R   0.822581 0.513717 0.277730 -0.298233
C24   C     C_R   0.180602 0.494860 0.722565 -0.275395
C25   C     C_R   0.688462 0.962985 0.567217 -0.061797
C26   C     C_R   0.310344 0.123840 0.423145 -0.095046
C27   C     C_R   0.811545 0.462978 0.432784 -0.061790
C28   C     C_R   0.189668 0.623824 0.576851 -0.095030
C29   C     C_R   0.716284 0.981559 0.665068 0.516863
C30   C     C_R   0.282281 0.076471 0.328104 0.506419
C31   C     C_R   0.783721 0.481549 0.334933 0.516827
C32   C     C_R   0.217725 0.576474 0.671895 0.506482
C33   C     C_R   0.610614 0.024469 0.681993 0.581130
C34   C     C_R   0.384474 0.958551 0.321815 0.589562
C35   C     C_R   0.889390 0.524440 0.317998 0.581098
C36   C     C_R   0.115528 0.458567 0.678180 0.589539
C37   C     C_R   0.582330 0.038813 0.583558 -0.017984
C38   C     C_R   0.416693 0.038859 0.410217 -0.026135
C39   C     C_R   0.917677 0.538794 0.416431 -0.018004
C40   C     C_R   0.083315 0.538856 0.589772 -0.026107
C41   C     C_R   0.621660 0.007450 0.524298 -0.201715
C42   C     C_R   0.379261 0.121707 0.462973 -0.197683
C43   C     C_R   0.878347 0.507451 0.475696 -0.201721
C44   C     C_R   0.120751 0.621671 0.537012 -0.197674
C45   C     C_R   0.515212 0.076910 0.542859 -0.111187
C46   C     C_R   0.485352 0.039928 0.446726 -0.114628
C47   C     C_R   0.984797 0.576882 0.457126 -0.111157
C48   C     C_R   0.014656 0.539930 0.553261 -0.114619
C49   C     C_R   0.524977 0.035138 0.387808 0.703647
C50   C     C_R   0.479228 0.176056 0.591281 0.724768
C51   C     C_R   0.975031 0.535174 0.612181 0.703668
C52   C     C_R   0.020786 0.675978 0.408694 0.724662
C53   C     C_R   0.592650 0.026331 0.425229 -0.148572
C54   C     C_R   0.412627 0.207345 0.550400 -0.133120
C55   C     C_R   0.907359 0.526363 0.574763 -0.148564
C56   C     C_R   0.087390 0.707245 0.449566 -0.133219
F1    F     F_    0.080582 0.718955 0.095865 -0.575232
F2    F     F_    0.920508 0.284554 0.907688 -0.617615
F3    F     F_    0.419384 0.219015 0.904096 -0.575221
F4    F     F_    0.579493 0.784548 0.092279 -0.617684
C57   C     C_2   0.954848 0.721259 0.105218 0.758576
H1    H     H_    0.919919 0.757203 0.140662 0.058822
O21   O     O_2   0.975749 0.562177 0.111840 -0.428634
C58   C     C_2   0.043345 0.287722 0.900437 0.636630
H2    H     H_    0.018528 0.297993 0.825801 0.168886
O22   O     O_2   0.081813 0.408395 0.939408 -0.471855
C59   C     C_2   0.545126 0.221231 0.894741 0.758642
H3    H     H_    0.580164 0.257001 0.859466 0.058640
O23   O     O_2   0.524084 0.062301 0.887901 -0.428468
C60   C     C_2   0.456676 0.787639 0.099610 0.636698
H4    H     H_    0.481502 0.797801 0.174250 0.168844
O24   O     O_2   0.418220 0.908371 0.060688 -0.471866
C61   C     C_2   0.631393 0.059675 0.360205 0.683730
H5    H     H_    0.678989 0.120842 0.385889 0.013093
O25   O     O_2   0.610845 0.017785 0.277138 -0.434088
C62   C     C_2   0.381887 0.352565 0.593176 0.686653
H6    H     H_    0.344334 0.440035 0.548573 -0.008536
O26   O     O_2   0.398163 0.376169 0.678143 -0.423663
C63   C     C_2   0.868616 0.559749 0.639783 0.683753
H7    H     H_    0.821020 0.620897 0.614090 0.013109
O27   O     O_2   0.889167 0.517918 0.722857 -0.434072
C64   C     C_2   0.118136 0.852355 0.406732 0.686799
H8    H     H_    0.155669 0.939944 0.451300 -0.008642
O28   O     O_2   0.101889 0.875732 0.321751 -0.423670
F5    F     F_    0.415419 0.841353 0.278932 -0.680770
F6    F     F_    0.573305 0.001212 0.738928 -0.637008
F7    F     F_    0.084579 0.341390 0.721067 -0.680789
F8    F     F_    0.926693 0.501162 0.261055 -0.637016
F9    F     F_    0.217856 0.100937 0.285735 -0.641773
F10   F     F_    0.780652 0.952338 0.705690 -0.661613
F11   F     F_    0.282150 0.600943 0.714269 -0.641714
F12   F     F_    0.719351 0.452328 0.294316 -0.661632
C65   C     C_2   0.729270 0.875868 0.515656 0.369802
H9    H     H_    0.780789 0.902911 0.536761 0.134376
O29   O     O_2   0.706371 0.764857 0.452363 -0.536771
C66   C     C_2   0.265244 0.161648 0.477847 0.391283
H10   H     H_    0.219006 0.227583 0.444195 0.150817
O30   O     O_2   0.277353 0.109279 0.559109 -0.526958
C67   C     C_2   0.770740 0.375861 0.484352 0.369820
H11   H     H_    0.719218 0.402867 0.463239 0.134386
O31   O     O_2   0.793643 0.264890 0.547661 -0.536765
C68   C     C_2   0.234775 0.661647 0.522162 0.391218
H12   H     H_    0.280998 0.727669 0.555812 0.150841
O32   O     O_2   0.222692 0.609186 0.440918 -0.527010
F13   F     F_    0.498750 0.076002 0.295022 -0.635179
F14   F     F_    0.510903 0.274795 0.669517 -0.643072
F15   F     F_    0.001261 0.576074 0.704963 -0.635199
F16   F     F_    0.989118 0.774701 0.330448 -0.643171

loop_
_geom_bond_atom_site_label_1
_geom_bond_atom_site_label_2
_ccdc_geom_bond_type
C34   C38   A    
O1    C5    A    
C68   H12   S    
O19   V1    S    
C34   F5    S    
O13   V1    S    
O3    C7    A    
O15   V3    S    
C61   H5    S    
C67   H11   S    
C57   H1    S    
C29   F10   S    
O7    C3    A    
C21   C33   A    
C26   C30   A    
C7    C18   S    
C25   C41   A    
C26   C66   S    
C9    C18   A    
C40   C44   A    
O9    V1    S    
C14   C18   A    
C65   O29   D    
C47   C52   A    
O4    C8    A    
C67   O31   D    
C31   F12   S    
C37   C45   A    
C30   F9    S    
C56   C64   S    
O1    V3    S    
C27   C67   S    
C38   C46   A    
O2    V4    S    
C33   C37   A    
O3    V1    S    
C1    O15   A    
C25   C65   S    
C6    C19   S    
C2    O16   A    
C11   F3    S    
O2    C6    A    
C53   C61   S    
O14   V2    S    
C50   C54   A    
C28   C44   A    
O11   C7    A    
C21   C29   A    
O12   C8    A    
C22   C34   A    
C8    C17   S    
C55   C63   S    
C45   C46   A    
C10   C17   A    
O10   V2    S    
C48   C51   A    
C15   C59   S    
C61   O25   D    
C51   F15   S    
C24   C36   A    
O5    V1    S    
C57   O21   D    
C42   C54   A    
C39   C43   A    
O7    V3    S    
C38   C42   A    
O8    V4    S    
C12   C16   A    
C41   C53   A    
C16   C60   S    
C59   H3    S    
C28   C68   S    
O18   V4    S    
C15   C19   A    
C9    C13   A    
C14   C58   S    
C11   C15   A    
O5    C1    A    
C59   O23   D    
C5    C20   S    
C33   F6    S    
O8    C4    A    
C22   C30   A    
C46   C49   A    
C62   O26   D    
C35   F8    S    
O9    C5    A    
C45   C50   A    
C63   O27   D    
C27   C43   A    
C60   O24   D    
C11   C20   A    
C26   C42   A    
O6    V2    S    
C39   C47   A    
C50   F14   S    
C54   C62   S    
C51   C55   A    
C44   C56   A    
C2    C23   S    
C66   H10   S    
C66   O30   D    
C23   C31   A    
O16   V4    S    
C13   C57   S    
C24   C32   A    
C3    O13   A    
C68   O32   D    
C10   C14   A    
O17   V3    S    
C52   C56   A    
C58   O22   D    
C4    C21   S    
C12   C19   A    
O6    C2    A    
O11   V3    S    
O12   V4    S    
C35   C39   A    
C36   C40   A    
O10   C6    A    
O20   V2    S    
C47   C48   A    
C36   F7    S    
C65   H9    S    
C52   F16   S    
C64   O28   D    
C12   F4    S    
C49   F13   S    
C25   C29   A    
C62   H6    S    
C32   F11   S    
C27   C31   A    
C40   C48   A    
C13   C17   A    
C60   H4    S    
C23   C35   A    
C37   C41   A    
C16   C20   A    
C58   H2    S    
C1    C24   S    
C64   H8    S    
C4    O14   A    
C63   H7    S    
C49   C53   A    
C3    C22   S    
C10   F2    S    
C9    F1    S    
C43   C55   A    
O4    V2    S    
C28   C32   A    
