data_mof_unit_48524.cif
_audit_creation_date              2012-10-26T21:08:06-0400
_audit_creation_method            fapswitch 2.2
_symmetry_space_group_name_H-M    P1
_symmetry_Int_Tables_number       1
_space_group_crystal_system       triclinic
_cell_length_a                    15.871381
_cell_length_b                    10.77962
_cell_length_c                    9.696151
_cell_angle_alpha                 93.313967
_cell_angle_beta                  89.858614
_cell_angle_gamma                 94.852864
_cell_volume                      1650.17404856

loop_
_atom_site_label
_atom_site_type_symbol
_atom_type_description
_atom_site_fract_x
_atom_site_fract_y
_atom_site_fract_z
_atom_type_partial_charge
C1    C     C_R   0.492305 0.262205 0.495847 0.561281
C2    C     C_R   0.257563 0.022200 0.516238 -0.106915
C3    C     C_R   0.263486 0.909742 0.576036 -0.092339
C4    C     C_R   0.340250 0.498957 0.499965 0.606521
C5    C     C_R   0.341777 0.859769 0.584703 0.266126
C6    C     C_R   0.415715 0.925309 0.532648 -0.010182
C7    C     C_R   0.411230 0.050298 0.497010 -0.007543
C8    C     C_R   0.488028 0.126745 0.484935 0.004613
C9    C     C_R   0.565345 0.074790 0.484295 -0.121673
C10   C     C_R   0.568523 0.947834 0.493246 0.033862
C11   C     C_R   0.494041 0.871787 0.514495 0.003649
C12   C     C_3   0.083766 0.498063 0.491916 0.056005
C13   C     C_R   0.630941 0.635942 0.152005 -0.096177
C14   C     C_R   0.706028 0.672512 0.086358 0.049213
C15   C     C_R   0.707044 0.672354 0.943308 0.110372
C16   C     C_R   0.498228 0.737312 0.504079 0.622954
C17   C     C_R   0.630856 0.644762 0.871554 0.300819
C18   C     C_R   0.563928 0.569241 0.930835 0.088590
C19   C     C_R   0.564041 0.567464 0.079041 0.069345
C20   C     C_R   0.440143 0.433173 0.070345 0.033133
C21   C     C_R   0.440559 0.430591 0.923779 0.177921
C22   C     C_R   0.660260 0.503327 0.499939 0.563784
C23   C     C_3   0.987429 0.629892 0.519112 0.099769
C24   C     C_3   0.965711 0.436492 0.589453 -0.149460
C25   C     C_3   0.017270 0.387246 0.464846 -0.148661
C26   C     C_1   0.250566 0.496349 0.499056 0.074131
C27   C     C_1   0.750930 0.511473 0.498819 0.058951
C28   C     C_3   0.033173 0.547328 0.614015 0.267683
C29   C     C_3   0.331543 0.764502 0.788592 -0.079337
C30   C     C_3   0.582735 0.832903 0.842753 -0.069573
C31   C     C_3   0.037375 0.710901 0.216245 -0.070070
C32   C     C_3   0.018160 0.610657 0.844285 -0.074631
C33   C     C_3   0.919442 0.517617 0.491999 -0.023369
C34   C     C_3   0.037793 0.577275 0.395355 0.273901
C35   C     C_3   0.970093 0.466867 0.366868 0.092902
C36   C     C_1   0.175105 0.494907 0.495872 0.070979
C37   C     C_1   0.827077 0.517213 0.495842 0.049851
C38   C     C_R   0.330150 0.091120 0.473095 0.083528
Cu1   Cu    Cu3+1 0.499990 0.499990 0.640660 1.064776
Cu2   Cu    Cu3+1 0.500010 0.500010 0.359340 0.997374
H1    H     H_    0.031651 0.289041 0.442986 0.167801
H2    H     H_    0.370579 0.846801 0.835893 0.105998
H3    H     H_    0.520446 0.807960 0.891194 0.096769
H4    H     H_    0.627686 0.879069 0.921594 0.139563
H5    H     H_    0.573150 0.903219 0.767148 0.158336
H6    H     H_    0.010716 0.788270 0.276753 0.185599
H7    H     H_    0.986576 0.649788 0.162946 0.159010
H8    H     H_    0.078036 0.753873 0.135715 0.144334
H9    H     H_    0.959216 0.546940 0.841018 0.146453
H10   H     H_    0.003027 0.709003 0.841766 0.176287
H11   H     H_    0.049147 0.599477 0.944319 0.159131
H12   H     H_    0.206420 0.857872 0.609625 0.161843
H13   H     H_    0.391171 0.378289 0.121910 0.171091
H14   H     H_    0.627032 0.664631 0.258639 0.214282
H15   H     H_    0.935028 0.378441 0.669419 0.152801
H16   H     H_    0.623867 0.133830 0.477675 0.150703
H17   H     H_    0.195610 0.052941 0.497472 0.164651
H18   H     H_    0.349976 0.680998 0.839015 0.167555
H19   H     H_    0.263390 0.772752 0.810423 0.144206
I1    I     I_    0.689775 0.880689 0.495509 -0.241220
I2    I     I_    0.811822 0.742425 0.207655 -0.313463
I3    I     I_    0.810904 0.757749 0.837337 -0.261376
I4    I     I_    0.345818 0.304024 0.827747 -0.305659
I5    I     I_    0.916590 0.389813 0.174850 -0.323002
I6    I     I_    0.972674 0.823949 0.563421 -0.282929
I7    I     I_    0.305999 0.214286 0.320006 -0.365623
N1    N     N_R   0.500800 0.501210 0.147910 -0.253325
N2    N     N_R   0.500830 0.501290 0.852040 -0.239976
O1    O     O_R   0.499990 0.319640 0.618810 -0.481329
O2    O     O_3   0.614943 0.726945 0.774076 -0.501176
O3    O     O_3   0.087784 0.643602 0.298587 -0.555311
O4    O     O_3   0.076024 0.583405 0.739078 -0.555343
O5    O     O_R   0.500000 0.319660 0.381240 -0.481644
O6    O     O_R   0.379070 0.499980 0.618770 -0.455981
O7    O     O_R   0.379080 0.500000 0.381190 -0.493871
O8    O     O_R   0.500000 0.680340 0.618760 -0.414074
O9    O     O_R   0.500010 0.680360 0.381190 -0.523949
O10   O     O_R   0.620920 0.500000 0.618810 -0.469378
O11   O     O_R   0.620930 0.500020 0.381230 -0.514931
O12   O     O_3   0.345747 0.747696 0.645171 -0.564956

loop_
_geom_bond_atom_site_label_1
_geom_bond_atom_site_label_2
_ccdc_geom_bond_type
C29   H2    S    
C1    C8    S    
Cu1   N2    S    
C20   N1    A    
C2    H17   S    
C7    C8    A    
C32   O4    S    
C24   H15   S    
C12   C28   S    
C22   O11   A    
C34   C35   S    
C5    C6    A    
C18   N2    A    
Cu2   O5    S    
C16   O9    A    
Cu1   O6    S    
C4    O7    A    
C30   H5    S    
C15   I3    S    
C29   H19   S    
C8    C9    A    
C23   C33   S    
Cu2   N1    S    
C19   N1    A    
C35   I5    S    
C12   C36   S    
C9    C10   A    
C4    O6    A    
C31   O3    S    
C17   O2    S    
C31   H7    S    
C13   C14   A    
C30   H4    S    
C28   O4    S    
C30   O2    S    
C13   C19   A    
Cu1   O10   S    
C38   I7    S    
C24   C25   S    
C22   O10   A    
C25   H1    S    
C6    C11   A    
C18   C19   A    
C23   C28   S    
C14   I2    S    
C31   H6    S    
C1    O1    A    
C10   I1    S    
C32   H11   S    
C11   C16   S    
C2    C38   A    
C23   C34   S    
C17   C18   A    
Cu1   O1    S    
Cu2   O11   S    
C9    H16   S    
Cu1   O8    S    
C29   H18   S    
C5    O12   S    
C32   H10   S    
C25   C35   S    
C26   C36   T    
C22   C27   S    
C21   N2    A    
C30   H3    S    
C12   C34   S    
Cu1   Cu2   S    
C13   H14   S    
C15   C17   A    
C16   O8    A    
C24   C28   S    
C20   H13   S    
C3    C5    A    
C4    C26   S    
C3    H12   S    
C6    C7    A    
C24   C33   S    
Cu2   O7    S    
C12   C25   S    
C31   H8    S    
C1    O5    A    
C23   I6    S    
C2    C3    A    
C29   O12   S    
C27   C37   T    
C33   C35   S    
C7    C38   A    
Cu2   O9    S    
C33   C37   S    
C32   H9    S    
C21   I4    S    
C10   C11   A    
C20   C21   A    
C14   C15   A    
C34   O3    S    
