data_mof_unit_27343.cif
_audit_creation_date              2012-12-11T16:41:45-0500
_audit_creation_method            fapswitch 2.2
_symmetry_space_group_name_H-M    P1
_symmetry_Int_Tables_number       1
_space_group_crystal_system       triclinic
_cell_length_a                    8.241558
_cell_length_b                    17.382523
_cell_length_c                    18.916376
_cell_angle_alpha                 98.946731
_cell_angle_beta                  92.087296
_cell_angle_gamma                 96.072329
_cell_volume                      2658.09244539

loop_
_atom_site_label
_atom_site_type_symbol
_atom_type_description
_atom_site_fract_x
_atom_site_fract_y
_atom_site_fract_z
_atom_type_partial_charge
Ba1   Ba    Ba6+2 0.849550 0.533890 0.465080 1.726737
Ba2   Ba    Ba6+2 0.340280 0.466170 0.534930 1.709510
C1    C     C_3   0.670943 0.811617 0.286283 -0.282547
C2    C     C_R   0.891927 0.434927 0.096478 -0.126240
C3    C     C_R   0.790737 0.411798 0.942236 -0.084842
C4    C     C_3   0.096439 0.681149 0.267291 0.299700
C5    C     C_R   0.938257 0.457139 0.972320 0.020754
C6    C     C_R   0.722081 0.424534 0.877242 -0.018389
C7    C     C_R   0.813468 0.465445 0.831406 -0.036256
C8    C     C_R   0.973252 0.500267 0.854849 0.040376
C9    C     C_R   0.034303 0.498110 0.926492 0.097935
C10   C     C_R   0.757655 0.462552 0.759390 -0.040401
C11   C     C_R   0.863639 0.491313 0.710843 -0.283464
C12   C     C_3   0.628339 0.730572 0.305911 0.343460
C13   C     C_R   0.018092 0.530628 0.732986 0.005508
C14   C     C_R   0.073537 0.535493 0.806354 -0.012573
C15   C     C_R   0.155442 0.494120 0.068987 0.055015
C16   C     C_3   0.061162 0.693428 0.190229 0.378137
C17   C     C_R   0.211352 0.493676 0.141753 -0.042762
C18   C     C_R   0.109874 0.456166 0.189479 -0.104388
C19   C     C_R   0.956363 0.416211 0.159883 0.453056
C20   C     C_R   0.224984 0.575238 0.833533 -0.027041
C21   C     C_R   0.275648 0.580665 0.905217 -0.097639
C22   C     C_R   0.192759 0.535019 0.950922 0.031151
C23   C     C_3   0.453084 0.334010 0.316683 0.303237
C24   C     C_R   0.260188 0.527127 0.020425 0.005295
C25   C     C_R   0.428159 0.549269 0.043686 -0.011278
C26   C     C_R   0.370976 0.528499 0.165800 -0.021924
C27   C     C_R   0.477259 0.553584 0.115940 0.008404
C28   C     C_3   0.262373 0.724391 0.712321 0.600799
C29   C     C_R   0.423193 0.534588 0.238642 0.010444
C30   C     C_R   0.317758 0.505517 0.286452 -0.320266
C31   C     C_R   0.164760 0.464972 0.264015 0.034138
C32   C     C_R   0.403513 0.717613 0.470220 -0.218575
C33   C     C_R   0.552198 0.744824 0.507908 0.083547
C34   C     C_3   0.387326 0.295219 0.242059 -0.257252
C35   C     C_R   0.613547 0.824195 0.513993 -0.037722
C36   C     C_R   0.524917 0.876466 0.483067 0.008338
C37   C     C_R   0.372228 0.848819 0.446993 -0.081861
C38   C     C_R   0.310967 0.769349 0.441413 0.050263
C39   C     C_R   0.596455 0.161988 0.481619 -0.120904
C40   C     C_3   0.184399 0.745395 0.784700 -0.273441
C41   C     C_R   0.646725 0.242620 0.491251 0.018295
C42   C     C_R   0.895341 0.223083 0.556245 0.014906
C43   C     C_R   0.847324 0.141571 0.544555 -0.102753
C44   C     C_R   0.695201 0.111070 0.508855 -0.000077
C45   C     C_3   0.046397 0.199974 0.712987 0.865059
C46   C     C_1   0.638973 0.027887 0.499451 0.022077
C47   C     C_1   0.587593 0.958860 0.491605 0.035866
C48   C     C_R   0.792439 0.272841 0.530567 -0.289636
C49   C     C_3   0.971224 0.294983 0.383571 0.342123
C50   C     C_3   0.946668 0.206017 0.364665 -0.357679
C51   C     C_3   0.720111 0.646336 0.683841 0.323694
C52   C     C_3   0.700863 0.664265 0.765344 -0.243869
C53   C     C_2   0.312688 0.778960 0.842964 0.662032
C54   C     C_2   0.775344 0.744242 0.800001 0.563081
C55   C     C_2   0.727568 0.337941 0.966536 0.600443
C56   C     C_3   0.102891 0.116911 0.705648 0.303148
C57   C     C_2   0.561210 0.557801 0.993644 0.476029
C58   C     C_3   0.582882 0.268733 0.678172 0.372508
C59   C     C_3   0.573674 0.184570 0.691075 -0.170876
C60   C     C_R   0.993876 0.462034 0.045607 -0.029030
H1    H     H_    0.690671 0.730082 0.358897 0.046259
H2    H     H_    0.646927 0.589141 0.663749 0.022806
H3    H     H_    0.805513 0.824845 0.285280 0.151373
H4    H     H_    0.759779 0.621118 0.791584 -0.025955
H5    H     H_    0.570971 0.656955 0.777729 0.046884
H6    H     H_    0.493858 0.720341 0.309786 -0.021765
H7    H     H_    0.624501 0.856408 0.326550 0.050144
H8    H     H_    0.349031 0.355787 0.346161 0.005145
H9    H     H_    0.544831 0.384579 0.312796 0.068098
H10   H     H_    0.291782 0.246645 0.246805 0.148523
H11   H     H_    0.335447 0.338506 0.213149 0.092059
H12   H     H_    0.094416 0.787655 0.780414 0.161745
H13   H     H_    0.484719 0.269919 0.210294 0.197340
H14   H     H_    0.614988 0.814681 0.232720 0.184610
H15   H     H_    0.925437 0.193231 0.684374 -0.470975
H16   H     H_    0.992566 0.073315 0.702747 0.043223
H17   H     H_    0.161307 0.104151 0.653624 -0.059193
H18   H     H_    0.712700 0.289938 0.672149 -0.049975
H19   H     H_    0.511237 0.268897 0.627380 0.055368
H20   H     H_    0.646962 0.150189 0.652925 0.064573
H21   H     H_    0.445900 0.157863 0.681441 0.135611
H22   H     H_    0.013553 0.629444 0.276198 0.030839
H23   H     H_    0.112452 0.694254 0.799968 -0.083251
H24   H     H_    0.620275 0.181699 0.746219 0.210759
H25   H     H_    0.823400 0.485140 0.654988 0.061350
H26   H     H_    0.604484 0.392920 0.858941 0.154892
H27   H     H_    0.304303 0.605762 0.800682 0.036188
H28   H     H_    0.603835 0.573092 0.132116 0.133306
H29   H     H_    0.358548 0.512180 0.342331 0.061291
H30   H     H_    0.762878 0.418606 0.084212 0.089655
H31   H     H_    0.380624 0.622230 0.923804 0.080438
H32   H     H_    0.224763 0.668332 0.274147 -0.048594
H33   H     H_    0.483059 0.138807 0.451295 0.082930
H34   H     H_    0.854291 0.317104 0.397857 0.008943
H35   H     H_    0.300076 0.888914 0.424942 0.085567
H36   H     H_    0.926878 0.102411 0.563234 0.059816
H37   H     H_    0.728181 0.845430 0.544069 0.096353
H38   H     H_    0.355206 0.656753 0.466936 0.065965
H39   H     H_    0.830501 0.335168 0.537375 0.056897
H40   H     H_    0.052405 0.636245 0.153998 -0.038739
H41   H     H_    0.942577 0.717629 0.185592 0.088347
H42   H     H_    0.375553 0.696706 0.717946 -0.032719
H43   H     H_    0.403733 0.743276 0.858396 -0.070409
H44   H     H_    0.858642 0.749962 0.846634 0.015325
H45   H     H_    0.062314 0.311963 0.429390 0.046486
H46   H     H_    0.332331 0.875870 0.198688 0.365129
H47   H     H_    0.913168 0.335711 0.761115 0.300650
H48   H     H_    0.422940 0.162081 0.853689 0.396553
H49   H     H_    0.977357 0.214365 0.190217 0.372544
H50   H     H_    0.812811 0.303985 0.989346 0.105255
H51   H     H_    0.544101 0.528812 0.938634 -0.016508
H52   H     H_    0.114861 0.798522 0.594596 0.351214
H53   H     H_    0.847317 0.187748 0.322213 0.156120
H54   H     H_    0.914270 0.178901 0.411913 0.053549
H55   H     H_    0.061337 0.184154 0.344920 0.121141
H56   H     H_    0.849958 0.642286 0.673757 -0.008520
O1    O     O_2   0.878040 0.448040 0.325130 -0.422491
O2    O     O_2   0.231691 0.233361 0.551545 -0.506012
O3    O     O_3   0.159714 0.253650 0.685569 -0.592703
O4    O     O_3   0.126800 0.453980 0.414370 -0.510954
O5    O     O_3   0.569440 0.593820 0.536390 -0.500050
O6    O     O_2   0.359400 0.311980 0.465480 -0.463045
O7    O     O_3   0.525916 0.278350 0.349657 -0.622275
O8    O     O_2   0.409518 0.453727 0.754683 -0.460087
O9    O     O_3   0.517163 0.315280 0.735404 -0.519112
O10   O     O_3   0.651020 0.589120 0.368830 -0.500375
O11   O     O_2   0.761618 0.532195 0.243752 -0.510441
O12   O     O_3   0.666892 0.705777 0.649757 -0.562123
O13   O     O_3   0.026391 0.323911 0.323090 -0.561053
O14   O     O_3   0.682046 0.673987 0.253204 -0.593785
O15   O     O_2   0.830300 0.688050 0.534560 -0.464238
O16   O     O_3   0.068750 0.630380 0.404830 -0.494877
O17   O     O_2   0.972113 0.770373 0.447114 -0.485214
O18   O     O_2   0.316307 0.846616 0.872719 -0.437183
O19   O     O_2   0.738184 0.803126 0.778828 -0.457833
O20   O     O_2   0.374615 0.721241 0.158157 -0.326321
O21   O     O_2   0.169191 0.773335 0.087663 -0.233537
O22   O     O_3   0.244192 0.843458 0.218441 -0.504184
O23   O     O_3   0.066360 0.747890 0.315312 -0.588821
O24   O     O_2   0.935770 0.178606 0.844144 -0.210655
O25   O     O_2   0.154134 0.287362 0.842524 -0.202645
O26   O     O_3   0.864607 0.301755 0.794457 -0.552944
O27   O     O_2   0.141674 0.062280 0.830723 -0.159817
O28   O     O_2   0.350836 0.040457 0.744147 -0.226146
O29   O     O_3   0.354059 0.179434 0.816349 -0.451217
O30   O     O_2   0.770491 0.325041 0.237451 -0.310522
O31   O     O_2   0.772838 0.278621 0.110560 -0.295788
O32   O     O_3   0.030668 0.267742 0.186953 -0.518924
O33   O     O_2   0.582184 0.313584 0.959576 -0.516700
O34   O     O_2   0.311660 0.551990 0.674910 -0.492757
O35   O     O_2   0.691933 0.596579 0.013357 -0.564643
O36   O     O_2   0.242982 0.882212 0.717669 -0.206979
O37   O     O_2   0.495335 0.832558 0.676972 -0.218468
O38   O     O_3   0.236092 0.801414 0.591082 -0.536681
O39   O     O_3   0.062910 0.546080 0.585630 -0.447621
O40   O     O_3   0.538690 0.410940 0.631180 -0.491020
O41   O     O_3   0.150288 0.675918 0.662573 -0.632979
O42   O     O_3   0.620260 0.406250 0.463620 -0.481966
O43   O     O_3   0.120960 0.369680 0.595180 -0.460989
P1    P     P_3+3 0.048060 0.426210 0.336320 1.059270
P2    P     P_3+3 0.655920 0.678120 0.556130 1.059703
P3    P     P_3+3 0.104330 0.730977 0.403070 0.991529
P4    P     P_3+3 0.141640 0.573850 0.663690 0.990281
P5    P     P_3+3 0.098122 0.267754 0.598048 0.964025
P6    P     P_3+3 0.628112 0.581032 0.275813 0.938358
P7    P     P_3+3 0.539683 0.307810 0.442557 0.956415
P8    P     P_3+3 0.554669 0.413157 0.722711 1.014344
S1    S     S_3+6 0.218066 0.758296 0.161183 -0.053199
S2    S     S_3+6 0.004419 0.240791 0.802530 0.015581
S3    S     S_3+6 0.239257 0.097813 0.776001 0.036151
S4    S     S_3+6 0.876493 0.320991 0.174743 -0.070881
S5    S     S_3+6 0.313239 0.813462 0.675916 -0.011447

loop_
_geom_bond_atom_site_label_1
_geom_bond_atom_site_label_2
_ccdc_geom_bond_type
O12   P2    S    
C58   O9    S    
C2    C19   A    
O28   S3    D    
C25   C27   A    
O17   P3    D    
C17   C18   A    
O14   P6    S    
O34   P4    D    
C57   O35   D    
O2    P5    D    
C36   C47   S    
C12   O14   S    
C43   C44   A    
C42   C43   A    
C5    C9    A    
O3    P5    S    
O26   S2    S    
O38   S5    S    
C24   C25   A    
C53   H43   S    
C32   C38   A    
C15   C24   A    
C26   C27   A    
C1    H7    S    
C22   C24   A    
C38   P3    S    
C59   H20   S    
Ba1   O1    S    
C36   C37   A    
C40   C53   S    
C51   H2    S    
C37   H35   S    
C30   H29   S    
O20   S1    D    
C55   O33   D    
C34   H10   S    
C13   C14   A    
C2    C60   A    
C9    C22   A    
O1    P1    D    
O21   S1    D    
C32   C33   A    
C16   H40   S    
C23   O7    S    
Ba1   O4    S    
O6    P7    D    
C6    C7    A    
C4    H32   S    
O10   P6    S    
C32   H38   S    
C39   C44   A    
Ba1   O10   S    
C23   H9    S    
C7    C8    A    
O43   P5    S    
Ba2   O40   S    
C49   H34   S    
C50   H55   S    
C50   H54   S    
O27   S3    D    
C39   C41   A    
C1    H3    S    
Ba1   O15   S    
O15   P2    D    
Ba2   O43   S    
H52   O38   S    
C27   H28   S    
C44   C46   S    
Ba2   O4    S    
Ba2   O34   S    
C28   O41   S    
C4    C16   S    
C52   C54   S    
C40   H12   S    
C4    H22   S    
O11   P6    D    
C49   C50   S    
C26   C29   A    
O7    P7    S    
C59   H21   S    
O39   P4    S    
C37   C38   A    
C3    C5    A    
O36   S5    D    
C51   H56   S    
C52   H5    S    
C23   C34   S    
O13   P1    S    
C41   P7    S    
C33   P2    S    
C21   H31   S    
C14   C20   A    
C58   C59   S    
C6    H26   S    
C56   S3    S    
Ba1   O5    S    
C5    C60   A    
C35   C36   A    
C1    H14   S    
C34   H13   S    
C15   C60   A    
O5    P2    S    
C58   H19   S    
C29   C30   A    
C57   H51   S    
C11   H25   S    
C41   C48   A    
C40   H23   S    
C42   P5    S    
C10   C11   A    
C4    O23   S    
C17   C26   A    
Ba2   P4    S    
C54   H44   S    
C1    C12   S    
C56   H17   S    
C48   H39   S    
C18   C31   A    
O37   S5    D    
C49   H45   S    
C46   C47   T    
C29   P6    S    
Ba1   P1    S    
C19   S4    S    
C8    C9    A    
C11   C13   A    
C45   H15   S    
Ba1   O16   S    
H49   O32   S    
C35   H37   S    
O29   S3    S    
H48   O29   S    
H46   O22   S    
C50   H53   S    
C42   C48   A    
C58   H18   S    
O22   S1    S    
C33   C35   A    
Ba1   O42   S    
C13   P4    S    
C51   O12   S    
C3    C6    A    
C45   S2    S    
O40   P8    S    
C51   C52   S    
C10   P8    S    
C52   H4    S    
Ba2   O6    S    
O9    P8    S    
O30   S4    D    
O4    P1    S    
C3    C55   S    
C43   H36   S    
C30   C31   A    
Ba1   O39   S    
C31   P1    S    
O25   S2    D    
O8    P8    D    
C25   C57   S    
C45   C56   S    
C54   O19   D    
C39   H33   S    
Ba2   O39   S    
C12   H1    S    
Ba1   Ba2   S    
C15   C17   A    
C20   H27   S    
O16   P3    S    
C16   S1    S    
H47   O26   S    
O31   S4    D    
C16   H41   S    
O42   P7    S    
C7    C10   A    
C45   O3    S    
C59   H24   S    
C56   H16   S    
C21   C22   A    
C55   H50   S    
O41   P4    S    
O32   S4    S    
C18   C19   A    
Ba1   P2    S    
O23   P3    S    
Ba2   O42   S    
C49   O13   S    
C28   H42   S    
C12   H6    S    
C20   C21   A    
C28   C40   S    
C8    C14   A    
C23   H8    S    
C34   H11   S    
C28   S5    S    
Ba2   O5    S    
C53   O18   D    
O24   S2    D    
C2    H30   S    
