data_mof_unit_50976.cif
_audit_creation_date              2012-12-10T17:21:10-0500
_audit_creation_method            fapswitch 2.2
_symmetry_space_group_name_H-M    P1
_symmetry_Int_Tables_number       1
_space_group_crystal_system       triclinic
_cell_length_a                    10.14855
_cell_length_b                    10.727939
_cell_length_c                    10.62914
_cell_angle_alpha                 90.109513
_cell_angle_beta                  94.023997
_cell_angle_gamma                 81.287353
_cell_volume                      1141.00823993

loop_
_atom_site_label
_atom_site_type_symbol
_atom_type_description
_atom_site_fract_x
_atom_site_fract_y
_atom_site_fract_z
_atom_type_partial_charge
C1    C     C_R   0.445794 0.511016 0.265920 0.935102
C2    C     C_3   0.503912 0.879159 0.506786 -0.062200
C3    C     C_3   0.607318 0.917184 0.614207 0.003636
C4    C     C_3   0.360540 0.948467 0.529209 -0.373368
C5    C     C_2   0.419543 0.527839 0.130137 -0.206816
C6    C     C_2   0.499096 0.593745 0.066563 0.135013
C7    C     C_2   0.577360 0.523945 0.866968 -0.468967
C8    C     C_2   0.486043 0.600208 0.930077 -0.061771
C9    C     C_2   0.070419 0.491929 0.491024 -0.088064
C10   C     C_2   0.922518 0.516017 0.505725 -0.082189
C11   C     C_R   0.498016 0.258507 0.495327 0.831241
C12   C     C_R   0.553735 0.501473 0.733328 0.898332
C13   C     C_R   0.501503 0.742352 0.503561 0.808180
C14   C     C_3   0.556410 0.061062 0.375355 -0.211103
C15   C     C_3   0.537915 0.921086 0.374035 -0.403645
C16   C     C_3   0.592904 0.066341 0.613769 -0.080038
C17   C     C_3   0.351953 0.090867 0.509817 0.022246
C18   C     C_3   0.497157 0.122647 0.497273 0.002405
H1    H     H_    0.665927 0.063960 0.382478 0.125387
H2    H     H_    0.332257 0.928804 0.625333 0.206332
H3    H     H_    0.664476 0.469905 0.917171 0.192924
H4    H     H_    0.879253 0.591652 0.564528 0.201878
H5    H     H_    0.106858 0.421791 0.423102 0.163711
H6    H     H_    0.884847 0.375751 0.393597 0.171094
H7    H     H_    0.455223 0.904219 0.304797 0.229103
H8    H     H_    0.630080 0.864401 0.342258 0.162467
H9    H     H_    0.692887 0.092578 0.598372 0.194326
H10   H     H_    0.310231 0.137978 0.594750 0.190207
H11   H     H_    0.284598 0.911703 0.464272 0.200266
N1    N     N_2   0.157300 0.551950 0.551120 -0.171568
N2    N     N_2   0.842730 0.448000 0.448950 -0.208340
O1    O     O_R   0.568940 0.489540 0.307530 -0.622080
O2    O     O_R   0.348880 0.522880 0.340350 -0.575258
O3    O     O_R   0.610030 0.298130 0.483570 -0.629642
O4    O     O_R   0.389960 0.331470 0.516390 -0.611994
O5    O     O_R   0.651120 0.477120 0.659650 -0.576248
O6    O     O_R   0.431060 0.510460 0.692470 -0.637798
O7    O     O_R   0.610040 0.668530 0.483610 -0.643076
O8    O     O_R   0.389970 0.701870 0.516430 -0.650362
Zn1   Zn    Zn3+2 0.646940 0.477740 0.478080 0.939339
Zn2   Zn    Zn3+2 0.353060 0.522260 0.521920 0.950264
C19   C     C_3   0.560644 0.132559 0.740366 -0.724555
H12   H     H_    0.631768 0.089516 0.818080 0.276512
H13   H     H_    0.573702 0.233160 0.736318 0.205451
H14   H     H_    0.456804 0.129136 0.764332 0.273093
C20   C     C_2   0.585142 0.858068 0.740555 0.396810
H15   H     H_    0.645885 0.769713 0.771238 0.089132
O9    O     O_2   0.496743 0.903300 0.806521 -0.583657
C21   C     C_2   0.372765 0.690628 0.870332 0.542395
H16   H     H_    0.367743 0.714461 0.771160 0.072035
O10   O     O_2   0.285185 0.743508 0.933490 -0.527094
C22   C     C_3   0.603185 0.664821 0.129368 -0.733340
H17   H     H_    0.633763 0.733234 0.062901 0.254187
H18   H     H_    0.560972 0.718560 0.209522 0.219163
H19   H     H_    0.693937 0.598592 0.162073 0.241885
C23   C     C_2   0.312474 0.464912 0.065288 0.435426
H20   H     H_    0.291133 0.472563 0.963969 0.115664
O11   O     O_2   0.247175 0.402168 0.125050 -0.563744
C24   C     C_2   0.505539 0.130776 0.252673 0.449534
H21   H     H_    0.509504 0.230844 0.244744 0.062474
O12   O     O_2   0.463947 0.076497 0.160454 -0.526539
C25   C     C_2   0.117736 0.642899 0.644363 0.568976
H22   H     H_    0.154875 0.732452 0.644488 0.059092
O13   O     O_2   0.051277 0.618101 0.729865 -0.558141
C26   C     C_2   0.751941 0.865650 0.588465 0.259846
H23   H     H_    0.777401 0.815740 0.502952 0.100957
O14   O     O_2   0.843617 0.882066 0.664566 -0.545566
C27   C     C_3   0.249788 0.135750 0.397460 -0.832850
H24   H     H_    0.146892 0.133263 0.425785 0.227838
H25   H     H_    0.254767 0.233006 0.365989 0.266418
H26   H     H_    0.264811 0.073464 0.314671 0.279669

loop_
_geom_bond_atom_site_label_1
_geom_bond_atom_site_label_2
_ccdc_geom_bond_type
C2    C4    S    
C15   H8    S    
N1    Zn2   S    
C25   H22   S    
C2    C15   S    
C12   O5    A    
C9    C10   S    
C14   C18   S    
C5    C23   S    
C4    H11   S    
C11   O3    A    
C22   H19   S    
C26   H23   S    
O2    Zn2   S    
C16   H9    S    
C11   O4    A    
C17   C18   S    
H6    N2    S    
C1    O2    A    
C24   H21   S    
C11   C18   S    
C16   C18   S    
C7    H3    S    
N2    Zn1   S    
O7    Zn1   S    
C14   C24   S    
C2    C13   S    
C13   O7    A    
C3    C26   S    
C19   H13   S    
C9    N1    D    
C27   H26   S    
C1    C5    S    
C4    C17   S    
C6    C8    S    
C27   H25   S    
C23   O11   D    
C2    C3    S    
O1    Zn1   S    
N1    C25   S    
O6    Zn2   S    
C5    C6    D    
O4    Zn2   S    
C20   O9    D    
C7    C12   S    
C24   O12   D    
C13   O8    A    
C19   H12   S    
C4    H2    S    
C16   C19   S    
O5    Zn1   S    
C22   H17   S    
C15   H7    S    
O8    Zn2   S    
C21   H16   S    
C12   O6    A    
C23   H20   S    
C7    C8    D    
C20   H15   S    
O3    Zn1   S    
C17   C27   S    
C25   O13   D    
C8    C21   S    
C3    C20   S    
C6    C22   S    
C14   C15   S    
C17   H10   S    
C14   H1    S    
C10   H4    S    
C1    O1    A    
C9    H5    S    
C3    C16   S    
C26   O14   D    
C22   H18   S    
C27   H24   S    
C21   O10   D    
C19   H14   S    
C10   N2    D    
