data_mof_unit_46923.cif
_audit_creation_date              2012-12-10T17:25:17-0500
_audit_creation_method            fapswitch 2.2
_symmetry_space_group_name_H-M    P1
_symmetry_Int_Tables_number       1
_space_group_crystal_system       triclinic
_cell_length_a                    27.805523
_cell_length_b                    10.854765
_cell_length_c                    9.567992
_cell_angle_alpha                 90.541134
_cell_angle_beta                  90.107805
_cell_angle_gamma                 93.075811
_cell_volume                      2883.53744127

loop_
_atom_site_label
_atom_site_type_symbol
_atom_type_description
_atom_site_fract_x
_atom_site_fract_y
_atom_site_fract_z
_atom_type_partial_charge
C1    C     C_R   0.503531 0.263067 0.499928 0.806434
C2    C     C_R   0.278725 0.488893 0.626346 -0.100842
C3    C     C_R   0.253405 0.496361 0.500261 0.351972
C4    C     C_R   0.101526 0.494400 0.506059 -0.046719
C5    C     C_R   0.124887 0.397274 0.441159 -0.014537
C6    C     C_R   0.097383 0.301300 0.376534 -0.185458
C7    C     C_R   0.129306 0.593388 0.566345 -0.020795
C8    C     C_R   0.354455 0.498412 0.499823 -0.043293
C9    C     C_R   0.645374 0.495854 0.501717 -0.039950
C10   C     C_R   0.972046 0.382514 0.472546 -0.067325
C11   C     C_R   0.976487 0.598030 0.558536 0.074798
C12   C     C_R   0.407468 0.499387 0.499875 0.809549
C13   C     C_R   0.948998 0.490582 0.514274 0.008439
C14   C     C_R   0.943087 0.271234 0.454192 0.433202
C15   C     C_R   0.892922 0.274409 0.449216 -0.235227
C16   C     C_R   0.870094 0.383457 0.476656 -0.089894
C17   C     C_R   0.897945 0.491022 0.512952 -0.050021
C18   C     C_R   0.874634 0.599130 0.547937 0.005860
C19   C     C_R   0.824146 0.598118 0.543499 0.527444
C20   C     C_R   0.819661 0.386196 0.474198 0.560483
C21   C     C_R   0.720870 0.505606 0.630341 -0.102443
C22   C     C_R   0.670781 0.506777 0.628828 -0.235373
C23   C     C_R   0.497120 0.737535 0.501938 0.788275
C24   C     C_R   0.671013 0.482649 0.376555 -0.247025
C25   C     C_R   0.721118 0.481333 0.378305 -0.110460
C26   C     C_R   0.746224 0.493097 0.505148 0.357662
C27   C     C_R   0.022950 0.389288 0.455682 0.039398
C28   C     C_R   0.050445 0.492866 0.509926 0.061848
C29   C     C_R   0.027399 0.595382 0.566764 0.043871
C30   C     C_R   0.047375 0.298427 0.381587 -0.169319
C31   C     C_R   0.106245 0.690863 0.629032 -0.140559
C32   C     C_R   0.951985 0.705124 0.592051 -0.207655
C33   C     C_R   0.902084 0.705717 0.586153 -0.153523
C34   C     C_R   0.592481 0.498821 0.500274 0.769076
C35   C     C_R   0.056294 0.692233 0.629050 -0.208857
C36   C     C_R   0.538123 0.125661 0.745826 -0.191185
C37   C     C_R   0.536413 0.069551 0.876979 0.139122
C38   C     C_R   0.512713 0.953748 0.889623 -0.168478
C39   C     C_R   0.495748 0.889889 0.770953 -0.192230
C40   C     C_R   0.502144 0.940458 0.635692 0.101822
C41   C     C_R   0.516405 0.066454 0.627179 0.065191
C42   C     C_R   0.507231 0.129278 0.501387 -0.105795
C43   C     C_R   0.494527 0.062289 0.380028 -0.209927
C44   C     C_R   0.490294 0.934964 0.382385 -0.226086
C45   C     C_R   0.175429 0.399768 0.440077 0.537402
C46   C     C_R   0.494500 0.872148 0.508605 -0.107340
C47   C     C_R   0.565113 0.664532 0.145575 -0.298586
C48   C     C_R   0.597662 0.744992 0.073231 0.450466
C49   C     C_R   0.596646 0.742460 0.928994 -0.250291
C50   C     C_R   0.564971 0.662030 0.857004 -0.256308
C51   C     C_R   0.532167 0.579586 0.925964 0.203574
C52   C     C_R   0.532209 0.580078 0.075560 0.162011
C53   C     C_R   0.469637 0.423595 0.073026 -0.077788
C54   C     C_R   0.469640 0.423668 0.924921 -0.074270
C55   C     C_R   0.179751 0.592428 0.562700 0.534371
C56   C     C_R   0.278691 0.504664 0.373878 -0.098921
C57   C     C_R   0.328877 0.505487 0.373501 -0.217028
C58   C     C_R   0.328884 0.490093 0.626301 -0.214839
Cu1   Cu    Cu3+1 0.500000 0.499990 0.640660 0.923994
Cu2   Cu    Cu3+1 0.500000 0.500010 0.359340 0.928535
H1    H     H_    0.347565 0.484152 0.725235 0.158001
H2    H     H_    0.259408 0.511009 0.275995 0.145303
H3    H     H_    0.126755 0.767242 0.678095 0.188481
H4    H     H_    0.970561 0.791358 0.619620 0.126081
H5    H     H_    0.652450 0.474958 0.277184 0.153784
H6    H     H_    0.885102 0.790485 0.612134 0.179194
H7    H     H_    0.740501 0.472042 0.281051 0.140212
H8    H     H_    0.041334 0.769363 0.681968 0.139821
H9    H     H_    0.487516 0.108359 0.282779 0.158002
H10   H     H_    0.556771 0.215286 0.737940 0.162530
H11   H     H_    0.259450 0.481981 0.724442 0.144050
H12   H     H_    0.507932 0.911504 0.991163 0.139512
H13   H     H_    0.475654 0.803942 0.789337 0.182740
H14   H     H_    0.483240 0.885609 0.284898 0.166603
H15   H     H_    0.444822 0.360945 0.127712 0.138436
H16   H     H_    0.566000 0.672594 0.255364 0.211103
H17   H     H_    0.620271 0.806019 0.871061 0.176421
H18   H     H_    0.567089 0.671242 0.746989 0.226286
H19   H     H_    0.444816 0.361062 0.868595 0.144456
H20   H     H_    0.114395 0.228297 0.320365 0.191663
H21   H     H_    0.652053 0.517126 0.727040 0.163713
H22   H     H_    0.740056 0.514347 0.728830 0.140364
H23   H     H_    0.871972 0.189065 0.428663 0.201558
H24   H     H_    0.028587 0.226543 0.321271 0.206963
H25   H     H_    0.347586 0.512098 0.274463 0.159565
N1    N     N_R   0.201756 0.496191 0.500858 -0.468036
N2    N     N_R   0.797799 0.492611 0.506990 -0.467660
N3    N     N_R   0.500460 0.501210 0.147910 -0.182274
N4    N     N_R   0.500480 0.501290 0.852040 -0.191923
O1    O     O_R   0.500000 0.319640 0.618810 -0.585119
O2    O     O_2   0.792642 0.283066 0.440777 -0.542274
O3    O     O_2   0.206630 0.687449 0.619391 -0.537407
O4    O     O_2   0.801541 0.701857 0.574614 -0.548676
O5    O     O_R   0.500000 0.319660 0.381240 -0.580404
O6    O     O_R   0.430260 0.500010 0.618770 -0.581435
O7    O     O_R   0.430270 0.500030 0.381200 -0.578416
O8    O     O_R   0.500000 0.680340 0.618760 -0.607392
O9    O     O_R   0.500000 0.680360 0.381190 -0.596979
O10   O     O_R   0.569730 0.499970 0.618800 -0.602995
O11   O     O_R   0.569740 0.499990 0.381230 -0.598412
O12   O     O_2   0.198082 0.305952 0.380170 -0.538359
C59   C     C_3   0.556529 0.137205 0.004307 -0.415967
C60   C     C_3   0.611517 0.155005 0.997873 -0.329385
C61   C     C_3   0.630928 0.226725 0.125652 -0.796454
H26   H     H_    0.615464 0.318899 0.129882 0.246596
H27   H     H_    0.621387 0.176082 0.222912 0.255972
H28   H     H_    0.670747 0.239333 0.119014 0.247745
H29   H     H_    0.627653 0.063543 0.993780 0.258749
H30   H     H_    0.622559 0.206941 0.902609 0.209612
H31   H     H_    0.540273 0.228361 0.012114 0.202850
H32   H     H_    0.546696 0.085148 0.100492 0.202296
O13   O     O_3   0.627211 0.837899 0.135643 -0.619701
C62   C     C_3   0.646331 0.807160 0.267171 0.057950
H33   H     H_    0.685311 0.835560 0.266817 0.186062
H34   H     H_    0.644514 0.706812 0.289041 0.129460
C63   C     C_3   0.622184 0.880553 0.382204 -0.350292
H35   H     H_    0.629212 0.980841 0.363945 0.232578
H36   H     H_    0.582851 0.860341 0.377852 0.219299
C64   C     C_3   0.640425 0.849298 0.527335 -0.886640
H37   H     H_    0.631100 0.751204 0.551151 0.244091
H38   H     H_    0.623074 0.907514 0.606714 0.251476
H39   H     H_    0.680083 0.866911 0.533982 0.281930
O14   O     O_3   0.963045 0.157315 0.446030 -0.628858
C65   C     C_3   0.958726 0.096856 0.576383 0.051311
H40   H     H_    0.956279 0.996202 0.554610 0.167585
H41   H     H_    0.925314 0.117315 0.634784 0.138142
C66   C     C_3   0.003281 0.127233 0.667484 -0.351736
H42   H     H_    0.036131 0.102405 0.609938 0.236196
H43   H     H_    0.006187 0.227687 0.691311 0.222760
C67   C     C_3   0.000551 0.057297 0.805061 -0.899680
H44   H     H_    0.968341 0.082374 0.865333 0.263568
H45   H     H_    0.033208 0.081734 0.868547 0.263978
H46   H     H_    0.998665 0.956263 0.785238 0.244972

loop_
_geom_bond_atom_site_label_1
_geom_bond_atom_site_label_2
_ccdc_geom_bond_type
C10   C27   A    
C21   C26   A    
C1    O1    A    
C36   C41   A    
Cu1   O10   S    
C41   C42   A    
C25   H7    S    
C7    C55   A    
C61   H27   S    
Cu2   N3    S    
C45   N1    A    
O14   C65   S    
C53   C54   A    
C63   H35   S    
C40   C46   A    
C37   C38   A    
C36   C37   A    
C47   H16   S    
C54   H19   S    
Cu2   O9    S    
C49   H17   S    
C5    C6    A    
C9    C22   A    
C15   C16   A    
C20   N2    A    
C56   C57   A    
C18   C19   A    
Cu1   N4    S    
O13   C62   S    
C8    C58   A    
C36   H10   S    
C16   C17   A    
C34   O11   A    
C12   O6    A    
C60   H29   S    
C19   O4    S    
C8    C12   S    
C62   C63   S    
C58   H1    S    
Cu1   Cu2   S    
C43   H9    S    
C23   C46   S    
C21   C22   A    
C3    N1    S    
C59   H32   S    
C53   H15   S    
Cu1   O6    S    
C4    C7    A    
C50   H18   S    
C61   H26   S    
C4    C28   A    
C44   C46   A    
C33   H6    S    
C50   C51   A    
C64   H38   S    
C20   O2    S    
C38   H12   S    
C7    C31   A    
C51   C52   A    
C22   H21   S    
C31   H3    S    
C52   N3    A    
C24   C25   A    
C32   H4    S    
C54   N4    A    
C10   C14   A    
C39   C40   A    
C27   C30   A    
C26   N2    S    
C15   H23   S    
C25   C26   A    
C5    C45   A    
C37   C59   S    
Cu1   O1    S    
C67   H45   S    
C43   C44   A    
C66   H43   S    
C55   O3    S    
C8    C57   A    
C3    C56   A    
C6    H20   S    
C47   C48   A    
C16   C20   A    
C17   C18   A    
C44   H14   S    
C45   O12   S    
C24   H5    S    
C65   C66   S    
Cu2   O7    S    
C40   C41   A    
C23   O8    A    
C11   C32   A    
C9    C34   S    
Cu1   O8    S    
C31   C35   A    
C59   H31   S    
C67   H46   S    
C42   C43   A    
C2    H11   S    
C60   C61   S    
C65   H41   S    
C62   H33   S    
C64   H39   S    
C28   C29   A    
C14   O14   S    
C6    C30   A    
C14   C15   A    
C4    C5    A    
Cu2   O11   S    
C10   C13   A    
C1    O5    A    
C64   H37   S    
C2    C58   A    
C9    C24   A    
C47   C52   A    
C34   O10   A    
C29   C35   A    
C19   N2    A    
C63   C64   S    
C13   C17   A    
C60   H30   S    
C32   C33   A    
C55   N1    A    
C67   H44   S    
C66   C67   S    
C51   N4    A    
C11   C13   A    
C38   C39   A    
C35   H8    S    
C48   C49   A    
C63   H36   S    
C2    C3    A    
C53   N3    A    
C56   H2    S    
C39   H13   S    
C30   H24   S    
C59   C60   S    
C18   C33   A    
C1    C42   S    
C23   O9    A    
C21   H22   S    
C11   C29   A    
C49   C50   A    
C27   C28   A    
C48   O13   S    
C12   O7    A    
C57   H25   S    
C61   H28   S    
C66   H42   S    
C65   H40   S    
C62   H34   S    
Cu2   O5    S    
