data_mof_unit_37581.cif
_audit_creation_date              2012-12-10T17:35:00-0500
_audit_creation_method            fapswitch 2.2
_symmetry_space_group_name_H-M    P1
_symmetry_Int_Tables_number       1
_space_group_crystal_system       triclinic
_cell_length_a                    12.402836
_cell_length_b                    13.183573
_cell_length_c                    13.882974
_cell_angle_alpha                 106.444864
_cell_angle_beta                  73.93461
_cell_angle_gamma                 116.886331
_cell_volume                      1912.28164185

loop_
_atom_site_label
_atom_site_type_symbol
_atom_type_description
_atom_site_fract_x
_atom_site_fract_y
_atom_site_fract_z
_atom_type_partial_charge
C1    C     C_R   0.143910 0.713818 0.509026 0.882646
C2    C     C_1   0.971019 0.500879 0.790904 -0.152848
C3    C     C_R   0.727904 0.956673 0.407638 -0.200723
C4    C     C_R   0.772888 0.160096 0.475208 -0.098306
C5    C     C_R   0.178827 0.917408 0.582310 -0.426239
C6    C     C_R   0.258873 0.028579 0.620528 0.462669
C7    C     C_R   0.385302 0.058726 0.595155 0.421628
C8    C     C_R   0.433466 0.986568 0.514382 -0.184380
C9    C     C_R   0.350676 0.876528 0.472308 -0.033432
C10   C     C_R   0.560679 0.017685 0.476997 0.049290
C11   C     C_R   0.603553 0.933426 0.415279 0.057908
C12   C     C_R   0.983672 0.503528 0.686236 0.799391
C13   C     C_R   0.522175 0.832362 0.360331 0.037251
C14   C     C_R   0.394669 0.807405 0.386882 0.420105
C15   C     C_R   0.646662 0.132175 0.493654 -0.241853
C16   C     C_R   0.812320 0.067908 0.442868 0.158214
C17   C     C_R   0.224544 0.838090 0.516465 -0.097977
C18   C     C_R   0.648895 0.690624 0.649732 -0.267074
C19   C     C_R   0.257125 0.359603 0.355375 0.597222
C20   C     C_R   0.368970 0.350708 0.309286 -0.416457
C21   C     C_R   0.474504 0.419143 0.352987 0.156471
C22   C     C_R   0.460779 0.480293 0.455221 0.031791
C23   C     C_R   0.855836 0.285109 0.487497 0.794428
C24   C     C_R   0.349843 0.498753 0.493238 0.145382
C25   C     C_R   0.555404 0.534032 0.517126 -0.003187
C26   C     C_R   0.551288 0.626132 0.597433 -0.001985
C27   C     C_R   0.448896 0.652559 0.626335 -0.232742
C28   C     C_R   0.347806 0.586267 0.578594 -0.138137
C29   C     C_R   0.651164 0.497550 0.505115 0.496970
C30   C     C_R   0.748132 0.660837 0.627923 0.530176
C31   C     C_R   0.016076 0.496127 0.313732 0.844583
C32   C     C_1   0.027246 0.497166 0.208929 -0.136799
C33   C     C_2   0.043635 0.502794 0.016907 -0.183014
C34   C     C_2   0.946509 0.491707 0.983939 0.433730
C35   C     C_1   0.959638 0.497101 0.878758 -0.119280
C36   C     C_1   0.035708 0.499318 0.121166 0.093241
Cu1   Cu    Cu3+1 0.899780 0.525060 0.522890 0.954015
Cu2   Cu    Cu3+1 0.100220 0.474940 0.477110 0.976056
H1    H     H_    0.444830 0.722431 0.689261 0.149774
H2    H     H_    0.648468 0.764972 0.708587 0.174216
H3    H     H_    0.376220 0.298026 0.234052 0.147020
H4    H     H_    0.271443 0.609513 0.608722 0.193275
H5    H     H_    0.130792 0.515702 0.965562 0.115939
H6    H     H_    0.759390 0.887817 0.378794 0.126036
H7    H     H_    0.614767 0.200746 0.518105 0.246184
H8    H     H_    0.081364 0.889892 0.611550 0.207905
N1    N     N_R   0.748810 0.563010 0.557590 -0.275045
N2    N     N_R   0.250540 0.437620 0.443020 -0.213991
O1    O     O_R   0.025040 0.682470 0.528790 -0.593075
O2    O     O_R   0.194310 0.640150 0.490130 -0.589218
O3    O     O_R   0.903380 0.524130 0.659910 -0.591179
O4    O     O_R   0.072660 0.481800 0.621240 -0.596868
O5    O     O_R   0.805690 0.359850 0.509870 -0.572923
O6    O     O_R   0.974960 0.317530 0.471210 -0.535534
O7    O     O_R   0.927340 0.518200 0.378760 -0.617835
O8    O     O_R   0.096620 0.475870 0.340090 -0.513381
O9    O     O_3   0.835910 0.474783 0.049727 -0.734846
H9    H     H_    0.776045 0.468813 0.011313 0.323683
O10   O     O_3   0.311471 0.723040 0.326548 -0.738800
H10   H     H_    0.338380 0.659687 0.292566 0.335665
O11   O     O_3   0.842684 0.734390 0.680358 -0.754433
H11   H     H_    0.890828 0.693254 0.681264 0.369141
O12   O     O_3   0.637821 0.390580 0.447656 -0.734620
H12   H     H_    0.718734 0.397840 0.406961 0.353789
O13   O     O_3   0.156787 0.300100 0.306904 -0.718756
H13   H     H_    0.175929 0.247656 0.244313 0.295367
C37   C     C_3   0.596331 0.443197 0.278049 -0.301428
C38   C     C_3   0.691736 0.568993 0.294101 -0.824076
H14   H     H_    0.740241 0.595819 0.219378 0.268871
H15   H     H_    0.648696 0.629606 0.338337 0.225341
H16   H     H_    0.762342 0.578033 0.334062 0.257879
H17   H     H_    0.635822 0.381507 0.273920 0.228373
H18   H     H_    0.577825 0.425151 0.199535 0.198352
C39   C     C_3   0.939974 0.081926 0.444847 -0.391917
C40   C     C_3   0.963424 0.112050 0.553943 -0.767085
H19   H     H_    0.954382 0.193912 0.595387 0.256506
H20   H     H_    0.897065 0.041359 0.595955 0.246107
H21   H     H_    0.057822 0.122344 0.552360 0.249698
H22   H     H_    0.952458 0.000388 0.408005 0.191708
H23   H     H_    0.010468 0.146752 0.399792 0.259375
C41   C     C_3   0.570887 0.763158 0.264300 -0.432823
C42   C     C_3   0.563736 0.792110 0.167728 -0.768212
H24   H     H_    0.467723 0.769620 0.162354 0.269773
H25   H     H_    0.618258 0.885940 0.166902 0.255377
H26   H     H_    0.602267 0.742452 0.099627 0.238912
H27   H     H_    0.667834 0.780222 0.258457 0.206722
H28   H     H_    0.520687 0.668890 0.263931 0.197554
O14   O     O_3   0.456531 0.153103 0.657594 -0.686352
H29   H     H_    0.517035 0.132092 0.672053 0.314492
O15   O     O_3   0.216118 0.105033 0.692008 -0.676799
H30   H     H_    0.125160 0.071034 0.702143 0.317427

loop_
_geom_bond_atom_site_label_1
_geom_bond_atom_site_label_2
_ccdc_geom_bond_type
C2    C35   T    
C29   O12   S    
C19   C20   A    
C18   C26   A    
C40   H19   S    
C2    C12   S    
C20   H3    S    
O15   H30   S    
C7    C8    A    
C14   O10   S    
C26   C27   A    
C29   N1    A    
C16   C39   S    
C32   C36   T    
C34   C35   S    
C10   C15   A    
C5    C6    A    
Cu1   O3    S    
C5    C17   A    
C13   C41   S    
C33   C36   S    
C37   H17   S    
C18   H2    S    
C7    O14   S    
C27   H1    S    
C8    C9    A    
C22   C25   A    
C34   O9    S    
C37   H18   S    
C31   O8    A    
Cu1   N1    S    
C1    O2    A    
Cu2   N2    S    
C41   H27   S    
Cu1   O5    S    
O10   H10   S    
C39   H23   S    
C21   C22   A    
C21   C37   S    
C12   O4    A    
C23   O5    A    
C25   C29   A    
C3    H6    S    
C39   C40   S    
C37   C38   S    
C24   N2    A    
C30   N1    A    
C4    C23   S    
C19   N2    A    
C38   H14   S    
C25   C26   A    
C6    O15   S    
C41   C42   S    
C33   H5    S    
C4    C16   A    
C9    C14   A    
Cu1   Cu2   S    
Cu1   O1    S    
C31   C32   S    
Cu2   O6    S    
C33   C34   D    
Cu2   O8    S    
O14   H29   S    
C40   H20   S    
C41   H28   S    
C18   C30   A    
C9    C17   A    
C42   H24   S    
C42   H25   S    
C39   H22   S    
C22   C24   A    
C15   H7    S    
C12   O3    A    
C23   O6    A    
C24   C28   A    
C6    C7    A    
Cu2   O2    S    
C42   H26   S    
C5    H8    S    
C1    C17   S    
C4    C15   A    
C11   C13   A    
O9    H9    S    
C38   H16   S    
C28   H4    S    
C19   O13   S    
O11   H11   S    
C40   H21   S    
C3    C11   A    
C10   C11   A    
O12   H12   S    
Cu1   O7    S    
Cu2   O4    S    
C20   C21   A    
C8    C10   A    
O13   H13   S    
C30   O11   S    
C27   C28   A    
C38   H15   S    
C31   O7    A    
C13   C14   A    
C1    O1    A    
C3    C16   A    
