data_mof_unit_19241.cif
_audit_creation_date              2012-10-26T19:22:52-0400
_audit_creation_method            fapswitch 2.2
_symmetry_space_group_name_H-M    P1
_symmetry_Int_Tables_number       1
_space_group_crystal_system       triclinic
_cell_length_a                    17.240097
_cell_length_b                    12.985859
_cell_length_c                    11.819329
_cell_angle_alpha                 100.077938
_cell_angle_beta                  89.3872
_cell_angle_gamma                 93.701394
_cell_volume                      2599.81917436

loop_
_atom_site_label
_atom_site_type_symbol
_atom_type_description
_atom_site_fract_x
_atom_site_fract_y
_atom_site_fract_z
_atom_type_partial_charge
C1    C     C_R   0.498860 0.299275 0.478544 0.540740
C2    C     C_R   0.497949 0.860114 0.435198 -0.104525
C3    C     C_R   0.500658 0.031629 0.555249 0.050409
C4    C     C_R   0.497801 0.968219 0.445125 0.051190
C5    C     C_R   0.436855 0.384138 0.028552 -0.023986
C6    C     C_R   0.562513 0.614591 0.972060 -0.079319
C7    C     C_R   0.433812 0.407435 0.150560 0.135950
C8    C     C_R   0.567777 0.590049 0.850885 0.156996
C9    C     C_R   0.535243 0.539749 0.151713 0.127679
C10   C     C_R   0.463745 0.460790 0.847725 0.137374
C11   C     C_R   0.523550 0.540107 0.031878 -0.051649
C12   C     C_R   0.501224 0.700721 0.521484 0.573551
C13   C     C_R   0.474302 0.460017 0.968221 0.002987
C14   C     C_R   0.351583 0.507486 0.515850 0.513791
C15   C     C_R   0.648857 0.492128 0.483602 0.560903
C16   C     C_R   0.269439 0.529275 0.524658 -0.008091
C17   C     C_R   0.732870 0.476726 0.473491 -0.010931
C18   C     C_R   0.219592 0.472307 0.588839 -0.090315
C19   C     C_R   0.778338 0.505793 0.573341 -0.098329
C20   C     C_R   0.139691 0.482033 0.586177 -0.073437
C21   C     C_R   0.857931 0.496929 0.569837 -0.080400
C22   C     C_R   0.109181 0.548199 0.518436 0.006843
C23   C     C_R   0.501034 0.814379 0.533862 0.010467
C24   C     C_R   0.894627 0.462842 0.465382 0.009684
C25   C     C_R   0.158850 0.609731 0.459798 -0.056000
C26   C     C_R   0.850185 0.428956 0.365937 -0.060806
C27   C     C_R   0.239189 0.602102 0.462723 0.004969
C28   C     C_R   0.768982 0.432356 0.368943 0.014619
C29   C     C_2   0.024856 0.551573 0.504479 0.007609
C30   C     C_2   0.980068 0.463342 0.460251 0.013018
C31   C     C_2   0.636616 0.636103 0.797275 0.262573
C32   C     C_2   0.371450 0.355579 0.211063 0.299667
C33   C     C_3   0.407578 0.274127 0.969519 -0.226879
C34   C     C_R   0.498451 0.185544 0.466325 0.011268
C35   C     C_3   0.458145 0.189055 0.999389 -0.298597
C36   C     C_3   0.414474 0.081356 0.975026 -0.436060
C37   C     C_3   0.594729 0.722738 0.032926 -0.269839
C38   C     C_3   0.561530 0.814185 0.985862 -0.303075
C39   C     C_3   0.606463 0.917647 0.033789 -0.443668
C40   C     C_2   0.724286 0.383031 0.264510 0.212365
C41   C     C_2   0.290116 0.672484 0.403158 0.231313
C42   C     C_2   0.012985 0.362968 0.406000 0.214109
C43   C     C_2   0.993586 0.657300 0.536261 0.211995
C44   C     C_2   0.391757 0.411468 0.790506 0.252453
C45   C     C_R   0.495174 0.013878 0.346594 -0.124925
C46   C     C_2   0.610595 0.584307 0.203065 0.259052
C47   C     C_R   0.503598 0.985939 0.653762 -0.133756
C48   C     C_R   0.496118 0.122191 0.357115 -0.104901
C49   C     C_R   0.503591 0.877653 0.643115 -0.111139
C50   C     C_R   0.500598 0.139774 0.565114 -0.128637
Cu1   Cu    Cu3+1 0.505800 0.507690 0.615350 0.993670
Cu2   Cu    Cu3+1 0.494200 0.492310 0.384650 1.013127
H1    H     H_    0.242173 0.416963 0.636777 0.159393
H2    H     H_    0.495229 0.156113 0.279886 0.158743
H3    H     H_    0.492542 0.965968 0.261746 0.108936
H4    H     H_    0.506100 0.033817 0.738640 0.103649
H5    H     H_    0.693818 0.626588 0.829910 0.067295
H6    H     H_    0.318320 0.394951 0.233001 0.136210
H7    H     H_    0.361707 0.080595 0.029705 0.197643
H8    H     H_    0.397076 0.061430 0.883203 0.150679
H9    H     H_    0.452044 0.020743 0.994843 0.136801
H10   H     H_    0.512070 0.187169 0.946754 0.145503
H11   H     H_    0.476616 0.205399 0.090563 0.201824
H12   H     H_    0.752646 0.536645 0.654988 0.140067
H13   H     H_    0.345877 0.259717 0.993846 0.184770
H14   H     H_    0.409249 0.262033 0.875137 0.129754
H15   H     H_    0.601999 0.934760 0.128906 0.157771
H16   H     H_    0.668703 0.913820 0.009112 0.179387
H17   H     H_    0.582730 0.982577 0.998050 0.140671
H18   H     H_    0.564562 0.803077 0.891141 0.201661
H19   H     H_    0.499309 0.819632 0.010550 0.165073
H20   H     H_    0.578446 0.737817 0.124534 0.188171
H21   H     H_    0.659201 0.726802 0.026744 0.146430
H22   H     H_    0.664848 0.351993 0.270788 0.124792
H23   H     H_    0.134354 0.662459 0.410105 0.173097
H24   H     H_    0.351800 0.682393 0.420053 0.125158
H25   H     H_    0.976919 0.290410 0.398347 0.111417
H26   H     H_    0.025916 0.717514 0.595913 0.112090
H27   H     H_    0.393518 0.359306 0.708689 0.132718
H28   H     H_    0.663946 0.558897 0.160705 0.117609
H29   H     H_    0.879142 0.398716 0.286310 0.165249
H30   H     H_    0.891477 0.520270 0.648172 0.116862
H31   H     H_    0.101374 0.435235 0.633216 0.123861
H32   H     H_    0.495831 0.811897 0.350384 0.150001
H33   H     H_    0.502362 0.188014 0.649930 0.112913
H34   H     H_    0.505436 0.843611 0.720216 0.143777
N1    N     N_R   0.514530 0.519260 0.788680 -0.266983
N2    N     N_R   0.485470 0.480740 0.211320 -0.264463
O1    O     O_R   0.504120 0.354440 0.581590 -0.552046
O2    O     O_2   0.377195 0.268199 0.233373 -0.529309
O3    O     O_2   0.754339 0.373719 0.169519 -0.520630
O4    O     O_2   0.263375 0.721824 0.335323 -0.495170
O5    O     O_2   0.078252 0.360402 0.364874 -0.473352
O6    O     O_2   0.934682 0.679981 0.492313 -0.463688
O7    O     O_2   0.328851 0.427287 0.836551 -0.526955
O8    O     O_2   0.614427 0.654731 0.286238 -0.482594
O9    O     O_R   0.495880 0.645560 0.418410 -0.475580
O10   O     O_R   0.494320 0.341440 0.386760 -0.481925
O11   O     O_R   0.505680 0.658560 0.613240 -0.455050
O12   O     O_R   0.391870 0.507230 0.608700 -0.509712
O13   O     O_R   0.608130 0.492770 0.391300 -0.488129
O14   O     O_R   0.382070 0.494240 0.413880 -0.525433
O15   O     O_R   0.617930 0.505760 0.586120 -0.478190
O16   O     O_2   0.631149 0.691563 0.725054 -0.481872

loop_
_geom_bond_atom_site_label_1
_geom_bond_atom_site_label_2
_ccdc_geom_bond_type
C38   H18   S    
C22   C29   S    
C42   O5    D    
C39   H16   S    
C2    H32   S    
C35   C36   S    
C32   H6    S    
C36   H7    S    
C33   H13   S    
C47   C49   A    
C43   H26   S    
C48   H2    S    
C12   C23   S    
Cu2   O14   S    
C37   C38   S    
C19   C21   A    
C24   C26   A    
C9    N2    A    
C38   C39   S    
C14   O14   A    
C28   C40   S    
Cu1   O15   S    
Cu2   O9    S    
C43   O6    D    
Cu2   O10   S    
C12   O11   A    
C50   H33   S    
C17   C19   A    
C32   O2    D    
C22   C25   A    
C5    C33   S    
C33   H14   S    
C5    C13   A    
C18   H1    S    
C16   C27   A    
C9    C46   S    
C29   C43   S    
C8    C31   S    
C37   H20   S    
C3    C50   A    
C1    C34   S    
C4    C45   A    
Cu1   O11   S    
C10   N1    A    
Cu2   O13   S    
C34   C50   A    
C10   C44   S    
Cu1   Cu2   S    
Cu2   N2    S    
Cu1   N1    S    
C6    C11   A    
C5    C7    A    
C6    C8    A    
C25   H23   S    
C2    C4    A    
C29   C30   D    
C27   C41   S    
C7    N2    A    
C19   H12   S    
C39   H17   S    
C6    C37   S    
C15   O13   A    
C9    C11   A    
C12   O9    A    
C20   C22   A    
C26   H29   S    
C14   C16   S    
C20   H31   S    
C34   C48   A    
C36   H9    S    
C45   C48   A    
Cu1   O12   S    
C15   C17   S    
C37   H21   S    
C38   H19   S    
C1    O1    A    
C7    C32   S    
C17   C28   A    
C39   H15   S    
C49   H34   S    
C44   H27   S    
C36   H8    S    
C10   C13   A    
C1    O10   A    
C14   O12   A    
C25   C27   A    
C26   C28   A    
C8    N1    A    
C31   O16   D    
C31   H5    S    
C44   O7    D    
Cu1   O1    S    
C41   H24   S    
C46   H28   S    
C11   C13   A    
C3    C47   A    
C33   C35   S    
C40   H22   S    
C35   H10   S    
C18   C20   A    
C40   O3    D    
C24   C30   S    
C23   C49   A    
C41   O4    D    
C46   O8    D    
C21   H30   S    
C45   H3    S    
C42   H25   S    
C16   C18   A    
C21   C24   A    
C2    C23   A    
C30   C42   S    
C35   H11   S    
C15   O15   A    
C3    C4    A    
C47   H4    S    
