data_mof_unit_66156.cif
_audit_creation_date              2012-12-10T20:28:26-0500
_audit_creation_method            fapswitch 2.2
_symmetry_space_group_name_H-M    P1
_symmetry_Int_Tables_number       1
_space_group_crystal_system       triclinic
_cell_length_a                    25.996406
_cell_length_b                    36.251618
_cell_length_c                    22.369276
_cell_angle_alpha                 90.000856
_cell_angle_beta                  125.671092
_cell_angle_gamma                 90.000115
_cell_volume                      17125.7935316

loop_
_atom_site_label
_atom_site_type_symbol
_atom_type_description
_atom_site_fract_x
_atom_site_fract_y
_atom_site_fract_z
_atom_type_partial_charge
C1    C     C_R   0.140070 0.249675 0.999555 0.793170
C2    C     C_R   0.154678 0.837925 0.967166 0.018259
C3    C     C_R   0.692675 0.770466 0.460865 -0.105979
C4    C     C_R   0.192626 0.729580 0.460861 -0.105984
C5    C     C_R   0.804155 0.273166 0.539091 -0.105906
C6    C     C_R   0.807325 0.729534 0.539135 -0.105978
C7    C     C_R   0.193420 0.271153 0.460875 -0.106002
C8    C     C_1   0.672767 0.249079 0.342900 0.120708
C9    C     C_1   0.327351 0.750972 0.657101 0.120634
C10   C     C_1   0.327319 0.249039 0.657101 0.120636
C11   C     C_1   0.672650 0.750972 0.342899 0.120638
C12   C     C_1   0.172649 0.749028 0.342899 0.120636
C13   C     C_R   0.154710 0.162065 0.967209 0.018545
C14   C     C_1   0.827233 0.250921 0.657100 0.120710
C15   C     C_1   0.827350 0.749028 0.657101 0.120639
C16   C     C_1   0.172680 0.250960 0.342899 0.120637
C17   C     C_1   0.861034 0.250365 0.723368 -0.049708
C18   C     C_1   0.138932 0.749626 0.276631 -0.049717
C19   C     C_1   0.138940 0.250373 0.276631 -0.049763
C20   C     C_1   0.861069 0.749625 0.723369 -0.049706
C21   C     C_1   0.361068 0.750374 0.723369 -0.049720
C22   C     C_1   0.638966 0.249634 0.276632 -0.049713
C23   C     C_1   0.638931 0.750375 0.276631 -0.049711
C24   C     C_R   0.845325 0.837925 0.032815 0.018288
C25   C     C_1   0.361059 0.249627 0.723368 -0.049766
C26   C     C_R   0.041424 0.980714 0.990516 -0.173144
C27   C     C_R   0.958571 0.019286 0.009482 -0.173091
C28   C     C_R   0.958571 0.980713 0.009482 -0.173138
C29   C     C_R   0.041424 0.019287 0.990517 -0.173113
C30   C     C_R   0.541611 0.480714 0.990820 -0.173039
C31   C     C_R   0.458394 0.519286 0.009181 -0.173094
C32   C     C_R   0.458394 0.480713 0.009180 -0.173063
C33   C     C_R   0.541610 0.519287 0.990820 -0.173089
C34   C     C_R   0.999998 0.961371 0.999999 0.165446
C35   C     C_R   0.345305 0.662070 0.032796 0.018264
C36   C     C_R   0.999997 0.038629 1.000000 0.165451
C37   C     C_R   0.500003 0.461371 1.000000 0.165482
C38   C     C_R   0.500002 0.538629 0.000000 0.165478
C39   C     C_1   1.000000 0.921722 1.000000 -0.089287
C40   C     C_1   0.999997 0.078277 1.000000 -0.089185
C41   C     C_1   0.500003 0.421723 1.000000 -0.089146
C42   C     C_1   0.500000 0.578277 1.000000 -0.089247
C43   C     C_1   0.999998 0.111496 1.000000 -0.137848
C44   C     C_1   0.000001 0.888504 0.000000 -0.138092
C45   C     C_1   0.499999 0.611496 0.999999 -0.138094
C46   C     C_R   0.654730 0.337938 0.967268 0.018534
C47   C     C_1   0.500002 0.388504 0.000000 -0.137849
C48   C     C_R   0.999999 0.151000 1.000000 0.847251
C49   C     C_R   0.000000 0.849000 0.000000 0.847290
C50   C     C_R   0.500000 0.650999 1.000000 0.847304
C51   C     C_R   0.500001 0.349001 0.000000 0.847265
C52   C     C_R   1.000000 0.348967 0.000000 0.821896
C53   C     C_R   0.000000 0.651033 1.000000 0.821606
C54   C     C_R   0.500000 0.848966 0.000000 0.821605
C55   C     C_R   0.500000 0.151033 1.000000 0.821895
C56   C     C_R   0.017008 0.519283 0.959742 -0.169573
C57   C     C_R   0.654692 0.662070 0.967222 0.018293
C58   C     C_R   0.982990 0.480716 0.040255 -0.169552
C59   C     C_R   0.982990 0.519284 0.040255 -0.169560
C60   C     C_R   0.017007 0.480715 0.959742 -0.169404
C61   C     C_R   0.517196 0.019283 0.959926 -0.169548
C62   C     C_R   0.482807 0.980717 0.040077 -0.169569
C63   C     C_R   0.482807 0.019284 0.040077 -0.169400
C64   C     C_R   0.517196 0.980716 0.959925 -0.169556
C65   C     C_R   0.999999 0.538629 0.999999 0.157439
C66   C     C_R   0.999998 0.461371 0.999999 0.157429
C67   C     C_R   0.500002 0.038629 0.000001 0.157445
C68   C     C_R   0.345272 0.337940 0.032752 0.018550
C69   C     C_R   0.500001 0.961371 0.000001 0.157454
C70   C     C_1   1.000000 0.578284 0.999999 -0.063937
C71   C     C_1   0.999998 0.421716 0.999999 -0.063767
C72   C     C_1   0.500002 0.078284 0.000001 -0.063765
C73   C     C_1   0.500000 0.921716 0.000001 -0.063935
C74   C     C_1   0.999999 0.388488 1.000000 -0.121373
C75   C     C_1   0.000000 0.611512 0.999999 -0.121601
C76   C     C_1   0.500000 0.888488 0.000001 -0.121601
C77   C     C_1   0.500001 0.111512 0.000000 -0.121373
C78   C     C_R   0.863268 0.128910 0.016849 -0.095820
C79   C     C_R   0.789320 0.180233 0.975617 0.032805
C80   C     C_R   0.136685 0.871085 0.983063 -0.095606
C81   C     C_R   0.136724 0.128908 0.983121 -0.095666
C82   C     C_R   0.863314 0.871083 0.016908 -0.095595
C83   C     C_R   0.363287 0.628912 0.016880 -0.095567
C84   C     C_R   0.636760 0.371093 0.983210 -0.095781
C85   C     C_R   0.636713 0.628915 0.983148 -0.095557
C86   C     C_R   0.363247 0.371095 0.016820 -0.095627
C87   C     C_2   0.884595 0.177081 0.108798 0.347710
C88   C     C_2   0.115378 0.822896 0.891151 0.348027
C89   C     C_2   0.115415 0.177079 0.891183 0.347601
C90   C     C_R   0.210654 0.819771 0.024334 0.033047
C91   C     C_2   0.884638 0.822897 0.108829 0.348016
C92   C     C_2   0.384614 0.677090 0.108817 0.348031
C93   C     C_2   0.615415 0.322933 0.891234 0.347715
C94   C     C_2   0.615371 0.677089 0.891201 0.348018
C95   C     C_2   0.384575 0.322935 0.108785 0.347604
C96   C     C_2   0.862241 0.296663 0.579933 0.382500
C97   C     C_2   0.131286 0.709065 0.419970 0.382727
C98   C     C_2   0.132880 0.292462 0.419997 0.382609
C99   C     C_2   0.868615 0.708969 0.580023 0.382736
C100  C     C_2   0.368714 0.790935 0.580030 0.382726
C101  C     C_R   0.210673 0.180233 0.024372 0.033119
C102  C     C_2   0.637760 0.203336 0.420066 0.382501
C103  C     C_2   0.631386 0.791031 0.419977 0.382735
C104  C     C_2   0.367119 0.207537 0.580002 0.382609
C105  C     C_2   0.785457 0.294622 0.421001 0.380432
C106  C     C_2   0.208372 0.711235 0.578904 0.380397
C107  C     C_2   0.209887 0.290324 0.578931 0.380345
C108  C     C_2   0.791533 0.711138 0.421089 0.380403
C109  C     C_2   0.291628 0.788765 0.421096 0.380398
C110  C     C_2   0.714543 0.205377 0.578998 0.380435
C111  C     C_2   0.708467 0.788862 0.578911 0.380406
C112  C     C_R   0.859930 0.750324 0.000444 0.793312
C113  C     C_R   0.789342 0.819770 0.975657 0.033041
C114  C     C_2   0.290112 0.209675 0.421069 0.380348
C115  C     C_R   0.289332 0.680231 0.975640 0.033055
C116  C     C_R   0.710694 0.319765 0.024410 0.032815
C117  C     C_R   0.710672 0.680232 0.024368 0.033048
C118  C     C_R   0.289312 0.319765 0.975601 0.033127
C119  C     C_R   0.752328 0.164391 0.905106 -0.103592
C120  C     C_R   0.247642 0.835627 0.094832 -0.103649
C121  C     C_R   0.247657 0.164391 0.094882 -0.103885
C122  C     C_R   0.752343 0.835626 0.905160 -0.103667
C123  C     C_R   0.252336 0.664384 0.905135 -0.103653
C124  C     C_R   0.859930 0.249675 0.000444 0.792980
C125  C     C_R   0.747695 0.335598 0.094929 -0.103597
C126  C     C_R   0.747678 0.664385 0.094873 -0.103671
C127  C     C_R   0.252321 0.335597 0.905083 -0.103889
C128  C     C_R   0.770841 0.131435 0.890548 -0.110491
C129  C     C_R   0.229116 0.868586 0.109364 -0.111824
C130  C     C_R   0.229138 0.131434 0.109431 -0.111567
C131  C     C_R   0.770865 0.868583 0.890618 -0.111787
C132  C     C_R   0.270851 0.631427 0.890583 -0.111821
C133  C     C_R   0.729192 0.368551 0.109507 -0.110487
C134  C     C_R   0.729166 0.631430 0.109434 -0.111784
C135  C     C_R   0.140070 0.750324 0.999556 0.793311
C136  C     C_R   0.270829 0.368552 0.890514 -0.111562
C137  C     C_R   0.826341 0.113835 0.946192 -0.148371
C138  C     C_R   0.173608 0.886175 0.053708 -0.148137
C139  C     C_R   0.173643 0.113833 0.053778 -0.148184
C140  C     C_R   0.826380 0.886171 0.946264 -0.148123
C141  C     C_R   0.326356 0.613831 0.946227 -0.148121
C142  C     C_R   0.673695 0.386159 0.053875 -0.148356
C143  C     C_R   0.673653 0.613835 0.053800 -0.148107
C144  C     C_R   0.326322 0.386160 0.946155 -0.148170
C145  C     C_R   0.214912 0.717774 0.985148 -0.230730
C146  C     C_R   0.640070 0.749676 0.999556 0.793301
C147  C     C_R   0.785098 0.282223 0.014873 -0.231205
C148  C     C_R   0.785089 0.717774 0.014855 -0.230731
C149  C     C_R   0.214903 0.282224 0.985129 -0.231315
C150  C     C_R   0.714903 0.217776 0.985129 -0.231195
C151  C     C_R   0.285086 0.782227 0.014849 -0.230721
C152  C     C_R   0.285095 0.217776 0.014868 -0.231306
C153  C     C_R   0.714913 0.782226 0.985148 -0.230722
C154  C     C_R   0.195743 0.750878 0.998822 -0.058020
C155  C     C_R   0.804257 0.249122 0.001178 -0.058067
C156  C     C_R   0.804258 0.750878 0.001179 -0.058016
C157  C     C_R   0.359930 0.250325 0.000444 0.793161
C158  C     C_R   0.195743 0.249122 0.998822 -0.058041
C159  C     C_R   0.695744 0.250878 0.998824 -0.058064
C160  C     C_R   0.304256 0.749122 0.001177 -0.058016
C161  C     C_R   0.304256 0.250878 0.001177 -0.058037
C162  C     C_R   0.695743 0.749122 0.998822 -0.058013
C163  C     C_R   0.230637 0.783615 0.012955 -0.020217
C164  C     C_R   0.769352 0.216387 0.987023 -0.020149
C165  C     C_R   0.769363 0.783614 0.987044 -0.020212
C166  C     C_R   0.230646 0.216387 0.012974 -0.020077
C167  C     C_R   0.730652 0.283612 0.012984 -0.020159
C168  C     C_R   0.359929 0.749676 0.000444 0.793300
C169  C     C_R   0.269359 0.716386 0.987039 -0.020226
C170  C     C_R   0.269350 0.283612 0.987019 -0.020086
C171  C     C_R   0.730641 0.716386 0.012963 -0.020221
C172  C     C_R   0.767712 0.271249 0.461363 -0.104157
C173  C     C_R   0.229356 0.731641 0.538593 -0.104306
C174  C     C_R   0.230074 0.269127 0.538605 -0.104214
C175  C     C_R   0.770599 0.731593 0.461404 -0.104304
C176  C     C_R   0.270644 0.768359 0.461407 -0.104308
C177  C     C_R   0.732288 0.228751 0.538637 -0.104159
C178  C     C_R   0.729401 0.768407 0.538596 -0.104306
C179  C     C_R   0.640070 0.250324 0.999556 0.792969
C180  C     C_R   0.269925 0.230872 0.461395 -0.104216
C181  C     C_R   0.713427 0.248325 0.422599 0.090986
C182  C     C_R   0.286822 0.751798 0.577404 0.090963
C183  C     C_R   0.286756 0.248232 0.577403 0.090954
C184  C     C_R   0.713181 0.751797 0.422596 0.090967
C185  C     C_R   0.213177 0.748202 0.422596 0.090963
C186  C     C_R   0.786574 0.251674 0.577401 0.090985
C187  C     C_R   0.786819 0.748203 0.577404 0.090967
C188  C     C_R   0.213243 0.251768 0.422597 0.090953
C189  C     C_R   0.098973 0.249973 0.197886 0.827542
C190  C     C_R   0.845288 0.162067 0.032771 0.018531
C191  C     C_R   0.901028 0.750027 0.802114 0.827686
C192  C     C_R   0.901024 0.249972 0.802114 0.827286
C193  C     C_R   0.098973 0.750027 0.197886 0.827717
C194  C     C_R   0.598972 0.749973 0.197886 0.827681
C195  C     C_R   0.401027 0.250027 0.802114 0.827536
C196  C     C_R   0.401027 0.749973 0.802114 0.827712
C197  C     C_R   0.598976 0.250028 0.197886 0.827281
C198  C     C_R   0.695845 0.226833 0.460909 -0.105909
C199  C     C_R   0.307374 0.770419 0.539138 -0.105985
C200  C     C_R   0.306580 0.228847 0.539125 -0.106005
H1    H     H_    0.840742 0.088375 0.934632 0.136225
H2    H     H_    0.969764 0.533994 0.071564 0.148208
H3    H     H_    0.969763 0.466007 0.071564 0.148225
H4    H     H_    0.030234 0.533993 0.928433 0.148207
H5    H     H_    0.530567 0.966006 0.928757 0.148188
H6    H     H_    0.469436 0.033995 0.071246 0.148228
H7    H     H_    0.469435 0.966007 0.071245 0.148187
H8    H     H_    0.530567 0.033993 0.928757 0.148206
H9    H     H_    0.073614 0.034003 0.983108 0.133834
H10   H     H_    0.926382 0.965997 0.016892 0.133831
H11   H     H_    0.926381 0.034001 0.016893 0.133836
H12   H     H_    0.159198 0.911637 0.065248 0.136077
H13   H     H_    0.073614 0.965999 0.983105 0.133828
H14   H     H_    0.573941 0.534003 0.983645 0.133756
H15   H     H_    0.426063 0.465997 0.016354 0.133758
H16   H     H_    0.426063 0.534002 0.016356 0.133752
H17   H     H_    0.573943 0.465998 0.983645 0.133761
H18   H     H_    0.905906 0.114510 0.059129 0.166152
H19   H     H_    0.094041 0.885476 0.940773 0.166116
H20   H     H_    0.094090 0.114507 0.940835 0.166171
H21   H     H_    0.905963 0.885474 0.059190 0.166098
H22   H     H_    0.405929 0.614516 0.059160 0.166137
H23   H     H_    0.159238 0.088373 0.065331 0.136095
H24   H     H_    0.594126 0.385499 0.940940 0.166173
H25   H     H_    0.594066 0.614518 0.940875 0.166119
H26   H     H_    0.405879 0.385501 0.059097 0.166192
H27   H     H_    0.869171 0.201085 0.123329 0.083744
H28   H     H_    0.130810 0.798890 0.876638 0.084030
H29   H     H_    0.130839 0.201087 0.876664 0.083663
H30   H     H_    0.869198 0.798901 0.123358 0.084030
H31   H     H_    0.369190 0.701096 0.123344 0.084023
H32   H     H_    0.630829 0.298930 0.876689 0.083738
H33   H     H_    0.630803 0.701084 0.876660 0.084025
H34   H     H_    0.840788 0.911632 0.934716 0.136102
H35   H     H_    0.369161 0.298928 0.123318 0.083657
H36   H     H_    0.709533 0.177971 0.860974 0.147146
H37   H     H_    0.290444 0.822056 0.138973 0.147164
H38   H     H_    0.290448 0.177972 0.139020 0.146759
H39   H     H_    0.709536 0.822054 0.861025 0.147179
H40   H     H_    0.209536 0.677960 0.861002 0.147165
H41   H     H_    0.790487 0.322011 0.139052 0.147147
H42   H     H_    0.790483 0.677962 0.138999 0.147181
H43   H     H_    0.209532 0.322010 0.860954 0.146760
H44   H     H_    0.742271 0.119632 0.835864 0.143876
H45   H     H_    0.340758 0.588371 0.934671 0.136010
H46   H     H_    0.257684 0.880401 0.164038 0.143163
H47   H     H_    0.257702 0.119631 0.164114 0.143196
H48   H     H_    0.742290 0.880397 0.835944 0.143200
H49   H     H_    0.242277 0.619619 0.835903 0.143164
H50   H     H_    0.757768 0.380348 0.164197 0.143877
H51   H     H_    0.757747 0.619623 0.164114 0.143200
H52   H     H_    0.242260 0.380348 0.835825 0.143196
H53   H     H_    0.188363 0.692624 0.975036 0.166194
H54   H     H_    0.811656 0.307371 0.025002 0.166219
H55   H     H_    0.811639 0.692625 0.024969 0.166197
H56   H     H_    0.659303 0.411617 0.065451 0.136157
H57   H     H_    0.188347 0.307372 0.975002 0.166132
H58   H     H_    0.688347 0.192628 0.975002 0.166212
H59   H     H_    0.311634 0.807376 0.024960 0.166188
H60   H     H_    0.311650 0.192628 0.024993 0.166126
H61   H     H_    0.688364 0.807375 0.975035 0.166190
H62   H     H_    0.890354 0.300448 0.558865 0.067794
H63   H     H_    0.102820 0.708210 0.441023 0.068469
H64   H     H_    0.104464 0.294078 0.441055 0.068363
H65   H     H_    0.897077 0.708066 0.558968 0.068452
H66   H     H_    0.397180 0.791790 0.558977 0.068469
H67   H     H_    0.659254 0.588376 0.065363 0.136034
H68   H     H_    0.609646 0.199551 0.441135 0.067795
H69   H     H_    0.602923 0.791934 0.441032 0.068454
H70   H     H_    0.395535 0.205922 0.558945 0.068364
H71   H     H_    0.806972 0.321466 0.442422 0.065955
H72   H     H_    0.182955 0.685363 0.557423 0.065670
H73   H     H_    0.185469 0.316476 0.557467 0.065722
H74   H     H_    0.816885 0.685248 0.442565 0.065681
H75   H     H_    0.317045 0.814637 0.442577 0.065673
H76   H     H_    0.693029 0.178534 0.557578 0.065958
H77   H     H_    0.683115 0.814752 0.557435 0.065685
H78   H     H_    0.340718 0.411619 0.934586 0.136028
H79   H     H_    0.314530 0.183523 0.442533 0.065725
H80   H     H_    0.030233 0.466005 0.928433 0.148249
O1    O     O_3   0.000000 0.249990 0.000000 -0.498337
O2    O     O_R   0.405540 0.228660 0.042720 -0.642738
O3    O     O_R   0.405540 0.771340 0.042720 -0.642243
O4    O     O_R   0.594460 0.228660 0.957280 -0.642339
O5    O     O_R   0.111850 0.228640 0.162930 -0.623800
O6    O     O_R   0.888150 0.771360 0.837070 -0.624170
O7    O     O_R   0.888150 0.228640 0.837070 -0.622683
O8    O     O_R   0.111850 0.771360 0.162930 -0.624196
O9    O     O_R   0.611850 0.728640 0.162930 -0.624168
O10   O     O_R   0.388150 0.271360 0.837070 -0.623799
O11   O     O_R   0.388150 0.728640 0.837070 -0.624195
O12   O     O_3   1.000000 0.750010 0.000000 -0.498313
O13   O     O_R   0.611850 0.271360 0.162930 -0.622681
O14   O     O_R   0.051760 0.168530 0.042720 -0.628437
O15   O     O_R   0.948240 0.831470 0.957280 -0.628430
O16   O     O_R   0.948240 0.168530 0.957280 -0.628066
O17   O     O_R   0.051760 0.831470 0.042720 -0.628439
O18   O     O_R   0.551760 0.668530 0.042720 -0.628431
O19   O     O_R   0.448240 0.331470 0.957280 -0.628438
O20   O     O_R   0.448240 0.668530 0.957280 -0.628439
O21   O     O_R   0.551760 0.331470 0.042720 -0.628068
O22   O     O_R   0.009000 0.331450 0.957280 -0.633414
O23   O     O_3   0.500000 0.749990 0.000000 -0.498312
O24   O     O_R   0.991000 0.668550 0.042720 -0.633685
O25   O     O_R   0.991000 0.331450 0.042720 -0.633670
O26   O     O_R   0.009000 0.668550 0.957280 -0.633677
O27   O     O_R   0.509000 0.831450 0.957280 -0.633684
O28   O     O_R   0.491000 0.168550 0.042720 -0.633414
O29   O     O_R   0.491000 0.831450 0.042720 -0.633677
O30   O     O_R   0.509000 0.168550 0.957280 -0.633669
O31   O     O_R   0.051110 0.271360 0.162930 -0.619156
O32   O     O_R   0.948890 0.728640 0.837070 -0.618910
O33   O     O_R   0.948890 0.271360 0.837070 -0.620007
O34   O     O_3   0.500000 0.250010 0.000000 -0.498336
O35   O     O_R   0.051110 0.728640 0.162930 -0.618889
O36   O     O_R   0.551110 0.771360 0.162930 -0.618910
O37   O     O_R   0.448890 0.228640 0.837070 -0.619156
O38   O     O_R   0.448890 0.771360 0.837070 -0.618888
O39   O     O_R   0.551110 0.228640 0.162930 -0.620007
O40   O     O_R   0.137190 0.228630 0.042710 -0.627558
O41   O     O_R   0.862810 0.771370 0.957290 -0.627609
O42   O     O_R   0.862810 0.228630 0.957290 -0.627720
O43   O     O_R   0.137190 0.771370 0.042710 -0.627613
O44   O     O_R   0.637190 0.728630 0.042710 -0.627613
O45   O     O_R   0.094460 0.271340 0.957280 -0.642740
O46   O     O_R   0.362810 0.271370 0.957290 -0.627562
O47   O     O_R   0.362810 0.728630 0.957290 -0.627617
O48   O     O_R   0.637190 0.271370 0.042710 -0.627724
O49   O     O_2   0.934880 0.162720 0.156485 -0.568395
O50   O     O_2   0.065088 0.837248 0.843452 -0.568227
O51   O     O_2   0.065141 0.162712 0.843482 -0.568314
O52   O     O_2   0.934947 0.837239 0.156509 -0.568261
O53   O     O_2   0.434900 0.662732 0.156507 -0.568221
O54   O     O_2   0.565133 0.337300 0.843557 -0.568388
O55   O     O_2   0.565065 0.662741 0.843530 -0.568254
O56   O     O_R   0.905540 0.728660 0.042720 -0.642233
O57   O     O_2   0.434846 0.337308 0.156476 -0.568306
O58   O     O_2   0.878493 0.312715 0.636414 -0.547994
O59   O     O_2   0.112612 0.692212 0.363467 -0.547434
O60   O     O_2   0.114843 0.309125 0.363501 -0.547538
O61   O     O_2   0.887249 0.692128 0.636525 -0.547433
O62   O     O_2   0.387388 0.807788 0.636533 -0.547428
O63   O     O_2   0.621507 0.187285 0.363586 -0.547989
O64   O     O_2   0.612751 0.807872 0.363475 -0.547428
O65   O     O_2   0.385157 0.190875 0.636499 -0.547533
O66   O     O_2   0.777685 0.283871 0.364529 -0.551469
O67   O     O_R   0.905540 0.271340 0.042720 -0.642343
O68   O     O_2   0.217845 0.723441 0.635405 -0.551921
O69   O     O_2   0.218898 0.278482 0.635422 -0.551899
O70   O     O_2   0.782091 0.723324 0.364592 -0.551906
O71   O     O_2   0.282155 0.776559 0.364595 -0.551918
O72   O     O_2   0.722315 0.216129 0.635471 -0.551466
O73   O     O_2   0.717909 0.776676 0.635408 -0.551903
O74   O     O_2   0.281102 0.221517 0.364578 -0.551897
O75   O     O_R   0.094460 0.728660 0.957280 -0.642246
O76   O     O_R   0.594460 0.771340 0.957280 -0.642229
Zn1   Zn    Zn3+2 0.987140 0.280510 0.061030 1.003496
Zn2   Zn    Zn3+2 0.926080 0.780520 0.938970 1.015685
Zn3   Zn    Zn3+2 0.926080 0.219480 0.938970 1.016473
Zn4   Zn    Zn3+2 0.073920 0.780520 0.061030 1.015666
Zn5   Zn    Zn3+2 0.573920 0.719480 0.061030 1.015687
Zn6   Zn    Zn3+2 0.426080 0.280520 0.938970 1.015807
Zn7   Zn    Zn3+2 0.426080 0.719480 0.938970 1.015668
Zn8   Zn    Zn3+2 0.573920 0.280520 0.061030 1.016475
Zn9   Zn    Zn3+2 0.012860 0.719490 0.938970 1.003732
Zn10  Zn    Zn3+2 0.012860 0.280510 0.938970 1.002936
Zn11  Zn    Zn3+2 0.987140 0.719490 0.061030 1.003757
Zn12  Zn    Zn3+2 0.487140 0.780510 0.061030 1.003732
Zn13  Zn    Zn3+2 0.512860 0.219490 0.938970 1.003495
Zn14  Zn    Zn3+2 0.512860 0.780510 0.938970 1.003757
Zn15  Zn    Zn3+2 0.487140 0.219490 0.061030 1.002936
Zn16  Zn    Zn3+2 0.073920 0.219480 0.061030 1.015805

loop_
_geom_bond_atom_site_label_1
_geom_bond_atom_site_label_2
_ccdc_geom_bond_type
C62   H7    S    
C124  O67   A    
C158  C166  A    
C104  O65   D    
C3    C103  S    
O23   Zn12  S    
O30   Zn13  S    
C2    C90   A    
O2    Zn15  S    
C82   C140  A    
C131  C140  A    
C88   O50   D    
C134  C143  A    
C32   H15   S    
C98   O60   D    
C40   C43   T    
C113  C122  A    
C132  H49   S    
C35   C115  A    
C168  O47   A    
C147  C155  A    
C117  C126  A    
C120  H37   S    
C110  O72   D    
C119  C128  A    
C53   C75   S    
C135  O75   A    
O41   Zn2   S    
C192  O7    A    
C15   C20   T    
C197  O13   A    
C179  O4    A    
C68   C95   S    
C115  C123  A    
C150  C159  A    
C91   H30   S    
C57   C94   S    
O9    Zn5   S    
C127  C136  A    
O46   Zn6   S    
C81   H20   S    
C8    C22   T    
O26   Zn9   S    
C177  C186  A    
C34   C39   S    
C42   C45   T    
O7    Zn3   S    
O14   Zn16  S    
C7    C188  A    
C84   C142  A    
C49   O17   A    
C147  C167  A    
C46   C84   A    
O5    Zn16  S    
C173  C182  A    
C114  C180  S    
C4    C173  A    
C128  H44   S    
C96   O58   D    
C176  C199  A    
C103  H69   S    
C102  O63   D    
C48   O14   A    
C51   O21   A    
C139  H23   S    
C96   H62   S    
C182  C199  A    
C53   O24   A    
C130  H47   S    
C195  O37   A    
C92   O53   D    
C64   H5    S    
O31   Zn1   S    
C33   C38   A    
C54   O29   A    
C50   O18   A    
O1    Zn1   S    
C100  H66   S    
C45   C50   S    
C193  O8    A    
C12   C185  S    
C23   C194  S    
C11   C23   T    
C106  C173  S    
C159  C167  A    
C49   O15   A    
O34   Zn8   S    
C160  C168  S    
C21   C196  S    
C101  C166  S    
C107  H73   S    
O18   Zn5   S    
C131  H48   S    
C97   H63   S    
C61   H8    S    
C98   H64   S    
O24   Zn11  S    
C126  C134  A    
C136  H52   S    
C97   O59   D    
C135  O43   A    
C8    C181  S    
C189  O5    A    
C123  C132  A    
C22   C197  S    
C121  C130  A    
C9    C21   T    
C20   C191  S    
C151  H59   S    
C133  C142  A    
C26   H13   S    
O36   Zn12  S    
C111  H77   S    
C55   O30   A    
O38   Zn14  S    
C52   C74   S    
C65   C70   S    
C111  O73   D    
C108  C175  S    
C142  H56   S    
O12   Zn2   S    
C67   C72   S    
C138  H12   S    
C68   C118  A    
C172  C181  A    
C122  H39   S    
C57   C85   A    
O23   Zn5   S    
C63   H6    S    
C126  H42   S    
C141  H45   S    
O8    Zn4   S    
C9    C182  S    
C180  C188  A    
C149  C158  A    
C152  C161  A    
C48   O16   A    
O39   Zn15  S    
C4    C97   S    
C104  C200  S    
C14   C17   T    
O43   Zn4   S    
C90   C163  S    
C53   O26   A    
C162  C171  A    
C146  O44   A    
C120  C129  A    
C127  H43   S    
C54   O27   A    
O13   Zn8   S    
C83   C141  A    
O1    Zn3   S    
C32   C37   A    
O34   Zn6   S    
C90   C120  A    
C180  C200  A    
C61   C67   A    
C31   C32   A    
O6    Zn2   S    
C41   C47   T    
C64   C69   A    
C149  H57   S    
C114  H79   S    
C19   C189  S    
C87   C190  S    
C145  C154  A    
O1    Zn10  S    
O29   Zn12  S    
O3    Zn12  S    
C116  C125  A    
O22   Zn10  S    
O37   Zn13  S    
O34   Zn15  S    
C54   C76   S    
C85   H25   S    
C118  C127  A    
C161  C170  A    
C50   O20   A    
C78   C137  A    
C122  C131  A    
C10   C25   T    
C3    C184  A    
C132  C141  A    
C153  C165  A    
O42   Zn3   S    
C11   C184  S    
C107  O69   D    
C152  C166  A    
C168  O3    A    
C29   H9    S    
C39   C44   T    
C107  C174  S    
C114  O74   D    
C150  C164  A    
C183  C200  A    
O12   Zn4   S    
C59   C65   A    
C195  O10   A    
C88   H28   S    
C137  H1    S    
C80   C138  A    
C5    C172  A    
C37   C41   S    
C104  H70   S    
C189  O31   A    
C28   C34   A    
C157  O46   A    
C112  C156  S    
C124  C155  S    
C70   C75   T    
C52   O25   A    
C157  O2    A    
O23   Zn14  S    
C79   C164  S    
C145  H53   S    
C85   C143  A    
C80   H19   S    
C51   O19   A    
C86   C144  A    
C176  C185  A    
C146  C162  S    
C135  C154  S    
C5    C186  A    
C1    C158  S    
C7    C98   S    
C3    C178  A    
C108  H74   S    
C113  C165  S    
C151  C160  A    
C196  O11   A    
C6    C175  A    
C28   H10   S    
C121  H38   S    
C7    C174  A    
C13   C81   A    
C148  C171  A    
C105  O66   D    
C99   O61   D    
C87   O49   D    
O48   Zn8   S    
C79   C119  A    
O34   Zn13  S    
O35   Zn11  S    
C160  C169  A    
C69   C73   S    
O21   Zn8   S    
C35   C92   S    
C60   C66   A    
C140  H34   S    
C10   C183  S    
C100  O62   D    
C134  H51   S    
O67   Zn1   S    
C130  C139  A    
C103  O64   D    
C129  H46   S    
C17   C192  S    
C145  C169  A    
O10   Zn6   S    
C52   O22   A    
C84   H24   S    
C35   C83   A    
C47   C51   S    
C92   H31   S    
C58   C59   A    
C6    C187  A    
C101  C121  A    
C56   C60   A    
C62   C69   A    
C4    C185  A    
C61   C64   A    
C62   C63   A    
C117  C171  S    
C66   C71   S    
C197  O39   A    
O12   Zn11  S    
C178  C187  A    
C93   H32   S    
C58   H3    S    
C87   H27   S    
C16   C188  S    
C73   C76   T    
C157  C161  S    
O32   Zn9   S    
C5    C96   S    
C112  O56   A    
O15   Zn2   S    
C57   C117  A    
O28   Zn15  S    
C124  O42   A    
C81   C139  A    
C191  O32   A    
C159  C179  S    
C174  C183  A    
C71   C74   T    
C33   H14   S    
C94   H33   S    
C27   C36   A    
C192  O33   A    
C110  C177  S    
O17   Zn4   S    
C46   C116  A    
C153  C162  A    
C136  C144  A    
C78   H18   S    
O16   Zn3   S    
C156  C165  A    
C16   C19   T    
C55   C77   S    
C89   O51   D    
O11   Zn7   S    
C179  O48   A    
C119  H36   S    
C30   C37   A    
C60   H80   S    
C144  H78   S    
C148  C156  A    
C175  C184  A    
C95   O57   D    
C44   C49   S    
C105  H71   S    
C106  H72   S    
O40   Zn16  S    
C105  C172  S    
O47   Zn7   S    
C68   C86   A    
C91   O52   D    
C78   C190  A    
C115  C169  S    
C109  C176  S    
C82   H21   S    
C29   C36   A    
C38   C42   S    
C102  C198  S    
O25   Zn1   S    
C14   C186  S    
C112  O41   A    
C118  C170  S    
C56   C65   A    
O75   Zn9   S    
C1    O40   A    
C24   C82   A    
C83   H22   S    
C58   C66   A    
C129  C138  A    
C79   C190  A    
C111  C178  S    
C116  C167  S    
C125  H41   S    
C43   C48   S    
C25   C195  S    
C24   C113  A    
C102  H68   S    
C18   C193  S    
C95   H35   S    
C181  C198  A    
C26   C34   A    
C63   C67   A    
O27   Zn14  S    
C149  C170  A    
C154  C163  A    
C36   C40   S    
O76   Zn14  S    
O1    Zn16  S    
C31   H16   S    
C15   C187  S    
C94   O55   D    
O19   Zn6   S    
C128  C137  A    
C193  O35   A    
C72   C77   T    
C194  O36   A    
O45   Zn10  S    
C152  H60   S    
C106  O68   D    
O33   Zn10  S    
C109  O71   D    
C196  O38   A    
C108  O70   D    
C27   H11   S    
C2    C88   S    
C109  H75   S    
C146  O76   A    
C148  H55   S    
C30   H17   S    
C110  H76   S    
C93   O54   D    
C151  C163  A    
C177  C198  A    
C86   H26   S    
O44   Zn5   S    
C13   C101  A    
C24   C91   S    
O12   Zn9   S    
C153  H61   S    
C123  H40   S    
C55   O28   A    
O20   Zn7   S    
C125  C133  A    
C99   H65   S    
C30   C33   A    
C13   C89   S    
C31   C38   A    
C56   H4    S    
C155  C164  A    
C147  H54   S    
O23   Zn7   S    
C6    C99   S    
C150  H58   S    
C46   C93   S    
O56   Zn11  S    
C143  H67   S    
C59   H2    S    
C2    C80   A    
O4    Zn13  S    
C100  C199  S    
C26   C29   A    
C12   C18   T    
C27   C28   A    
C191  O6    A    
C89   H29   S    
C133  H50   S    
C1    O45   A    
C194  O9    A    
