data_mof_unit_46564.cif
_audit_creation_date              2012-12-10T17:31:05-0500
_audit_creation_method            fapswitch 2.2
_symmetry_space_group_name_H-M    P1
_symmetry_Int_Tables_number       1
_space_group_crystal_system       triclinic
_cell_length_a                    11.994362
_cell_length_b                    12.81882
_cell_length_c                    15.449965
_cell_angle_alpha                 86.7737
_cell_angle_beta                  115.389356
_cell_angle_gamma                 94.565328
_cell_volume                      2138.59449192

loop_
_atom_site_label
_atom_site_type_symbol
_atom_type_description
_atom_site_fract_x
_atom_site_fract_y
_atom_site_fract_z
_atom_type_partial_charge
C1    C     C_R   0.474951 0.299504 0.496305 0.950228
C2    C     C_R   0.661221 0.968745 0.587939 0.143534
C3    C     C_R   0.345190 0.138968 0.424232 0.344689
C4    C     C_R   0.654606 0.860726 0.576641 0.344929
C5    C     C_R   0.557605 0.131262 0.545714 -0.266022
C6    C     C_R   0.442593 0.868676 0.454547 -0.267256
C7    C     C_R   0.555274 0.025151 0.534031 0.028598
C8    C     C_R   0.444777 0.974685 0.466535 0.028496
C9    C     C_R   0.002740 0.595143 0.406274 -0.300788
C10   C     C_R   0.997148 0.404744 0.593532 -0.297930
C11   C     C_R   0.123809 0.586571 0.416141 0.052027
C12   C     C_R   0.525073 0.700463 0.503776 0.945177
C13   C     C_R   0.876131 0.413325 0.583734 0.049795
C14   C     C_R   0.161162 0.459602 0.541507 -0.008675
C15   C     C_R   0.838793 0.540421 0.458457 -0.004558
C16   C     C_R   0.576390 0.497404 0.680482 0.880982
C17   C     C_R   0.424454 0.507745 0.319616 0.890631
C18   C     C_R   0.040056 0.465609 0.534251 0.079077
C19   C     C_R   0.959873 0.534391 0.465647 0.083738
C20   C     C_R   0.624716 0.513916 0.783345 -0.057483
C21   C     C_R   0.381773 0.529402 0.216937 -0.055571
C22   C     C_R   0.791954 0.548922 0.939119 -0.172246
C23   C     C_R   0.658446 0.589962 0.109241 -0.209646
C24   C     C_R   0.222922 0.568179 0.059210 -0.179663
C25   C     C_R   0.751665 0.524389 0.843008 -0.145833
C26   C     C_R   0.257503 0.543976 0.156142 -0.168083
C27   C     C_R   0.539494 0.529779 0.819754 -0.247726
C28   C     C_R   0.470898 0.542671 0.181165 -0.252054
C29   C     C_R   0.577479 0.560415 0.913667 0.095684
C30   C     C_R   0.439298 0.570290 0.085453 0.094398
C31   C     C_R   0.705545 0.565456 0.975219 0.169073
C32   C     C_R   0.312617 0.578971 0.023035 0.168734
C33   C     C_R   0.490066 0.578558 0.949138 0.068829
C34   C     C_R   0.364100 0.592921 0.888178 -0.214908
C35   C     C_R   0.529868 0.580505 0.049174 0.072387
C36   C     C_R   0.744895 0.584717 0.072088 -0.203918
C37   C     C_R   0.277200 0.595273 0.925159 -0.207134
C38   C     C_R   0.544159 0.812056 0.510197 -0.189595
C39   C     C_R   0.455920 0.187834 0.490156 -0.193030
C40   C     C_R   0.338660 0.030965 0.412911 0.143187
Cl1   Cl    Cl    0.780930 0.786130 0.650574 -0.560261
Cl2   Cl    Cl    0.218216 0.213233 0.351014 -0.546053
H1    H     H_    0.842565 0.591274 0.120034 0.150031
H2    H     H_    0.819197 0.513830 0.815553 0.165349
H3    H     H_    0.890228 0.554442 0.985239 0.134493
H4    H     H_    0.126117 0.576497 0.012273 0.138314
H5    H     H_    0.694519 0.603703 0.185033 0.141840
H6    H     H_    0.330907 0.604468 0.811594 0.158652
H7    H     H_    0.360704 0.827428 0.403370 0.192104
H8    H     H_    0.639671 0.172590 0.596594 0.192348
H9    H     H_    0.776270 0.593312 0.406318 0.122094
H10   H     H_    0.223667 0.406715 0.593648 0.129115
H11   H     H_    0.181223 0.604824 0.876511 0.164667
H12   H     H_    0.843706 0.366487 0.629807 0.137175
H13   H     H_    0.156207 0.633306 0.369994 0.133448
H14   H     H_    0.943239 0.648634 0.352588 0.154049
H15   H     H_    0.056569 0.351103 0.647069 0.162380
H16   H     H_    0.565036 0.526981 0.228408 0.160765
H17   H     H_    0.442473 0.515150 0.774222 0.157813
H18   H     H_    0.187450 0.535747 0.183161 0.162933
I1    I     I_    0.167940 0.956430 0.313525 -0.272715
I2    I     I_    0.831665 0.042991 0.687916 -0.269928
N1    N     N_R   0.799120 0.480200 0.517090 -0.097870
N2    N     N_R   0.200880 0.519800 0.482910 -0.097890
O1    O     O_R   0.580150 0.341050 0.504560 -0.625110
O2    O     O_R   0.419850 0.658950 0.495440 -0.628465
O3    O     O_R   0.388090 0.353760 0.493600 -0.569074
O4    O     O_R   0.611910 0.646240 0.506400 -0.572135
O5    O     O_R   0.650890 0.490020 0.640860 -0.610390
O6    O     O_R   0.349110 0.509980 0.359140 -0.608661
O7    O     O_R   0.458830 0.502730 0.629890 -0.631561
O8    O     O_R   0.541170 0.497270 0.370110 -0.630295
Zn1   Zn    Zn3+2 0.628240 0.491510 0.507320 0.985557
Zn2   Zn    Zn3+2 0.371760 0.508490 0.492680 0.985208

loop_
_geom_bond_atom_site_label_1
_geom_bond_atom_site_label_2
_ccdc_geom_bond_type
C21   C26   A    
C3    Cl2   S    
C27   C29   A    
C34   C37   A    
C14   C18   A    
C2    C7    A    
C7    C8    A    
C15   C19   A    
C12   O4    A    
C30   C35   A    
C24   C26   A    
C20   C25   A    
O2    Zn2   S    
C29   C33   A    
O1    Zn1   S    
C18   C19   A    
C1    O3    A    
C9    C19   A    
C14   H10   S    
C22   C25   A    
O6    Zn2   S    
C1    O1    A    
C6    C38   A    
O5    Zn1   S    
C15   H9    S    
C37   H11   S    
C3    C39   A    
C17   O6    A    
C16   O7    A    
C25   H2    S    
C23   H5    S    
C22   C31   A    
C10   H15   S    
C11   N2    A    
O3    Zn2   S    
C6    C8    A    
N1    Zn1   S    
O4    Zn1   S    
C12   O2    A    
C17   C21   S    
C40   I1    S    
C2    C4    A    
C24   C32   A    
C13   N1    A    
C16   C20   S    
C14   N2    A    
C33   C34   A    
C9    H14   S    
C32   C37   A    
C9    C11   A    
C21   C28   A    
C4    C38   A    
C3    C40   A    
C23   C35   A    
C5    C39   A    
C5    H8    S    
C34   H6    S    
C11   H13   S    
C5    C7    A    
C13   H12   S    
N2    Zn2   S    
C16   O5    A    
O8    Zn1   S    
C10   C13   A    
O7    Zn2   S    
C20   C27   A    
C28   H16   S    
C24   H4    S    
C28   C30   A    
C29   C31   A    
C27   H17   S    
C30   C32   A    
C10   C18   A    
C33   C35   A    
C6    H7    S    
C12   C38   S    
C1    C39   S    
C22   H3    S    
C17   O8    A    
C23   C36   A    
C4    Cl1   S    
C15   N1    A    
C31   C36   A    
C36   H1    S    
C8    C40   A    
C26   H18   S    
C2    I2    S    
