data_mof_unit_22460.cif
_audit_creation_date              2012-12-11T14:57:51-0500
_audit_creation_method            fapswitch 2.2
_symmetry_space_group_name_H-M    P1
_symmetry_Int_Tables_number       1
_space_group_crystal_system       triclinic
_cell_length_a                    6.943563
_cell_length_b                    16.422074
_cell_length_c                    17.451819
_cell_angle_alpha                 100.204229
_cell_angle_beta                  90.317064
_cell_angle_gamma                 90.000213
_cell_volume                      1958.48329729

loop_
_atom_site_label
_atom_site_type_symbol
_atom_type_description
_atom_site_fract_x
_atom_site_fract_y
_atom_site_fract_z
_atom_type_partial_charge
O1    O     O_R   0.506180 0.438940 0.579430 -0.538149
O2    O     O_R   0.170520 0.406230 0.413590 -0.539158
O3    O     O_R   0.005180 0.561060 0.420570 -0.548403
C1    C     C_R   0.340043 0.380966 0.387539 0.677639
O4    O     O_R   0.176140 0.429310 0.578370 -0.518713
O5    O     O_R   0.010830 0.584300 0.586530 -0.530208
C2    C     C_R   0.345690 0.412564 0.603565 0.700480
O6    O     O_R   0.500520 0.415700 0.413470 -0.539801
O7    O     O_3   0.340830 0.550820 0.502480 -0.374336
V1    V     V_3+5 0.064040 0.490570 0.499540 1.479525
O8    O     O_R   0.681400 0.593770 0.586410 -0.549792
C3    C     C_R   0.849877 0.615768 0.615444 0.685154
O9    O     O_R   0.675790 0.570690 0.421630 -0.538795
C4    C     C_R   0.842748 0.586218 0.394868 0.706421
V2    V     V_3+5 0.564650 0.509430 0.500460 1.447073
O10   O     O_3   0.837730 0.449180 0.497520 -0.358316
C5    C     C_R   0.924995 0.863688 0.168180 -0.048566
C6    C     C_R   0.840414 0.637471 0.332447 -0.057595
C7    C     C_R   0.659174 0.683446 0.226444 -0.023626
C8    C     C_R   0.684176 0.629821 0.280161 -0.241917
C9    C     C_R   0.978184 0.699074 0.329195 -0.168793
C10   C     C_R   0.957019 0.754082 0.276048 0.139156
C11   C     C_R   0.797903 0.746650 0.223416 0.147253
C12   C     C_R   0.786687 0.801300 0.168805 -0.105071
C13   C     C_R   0.077274 0.871042 0.222236 -0.061774
C14   C     C_R   0.093149 0.817059 0.275419 -0.075283
H1    H     H_    0.676827 0.794512 0.124247 0.163535
H2    H     H_    0.186648 0.918171 0.222526 0.132652
H3    H     H_    0.214112 0.823972 0.315586 0.135070
H4    H     H_    0.576533 0.582508 0.282797 0.116423
H5    H     H_    0.097842 0.706248 0.370028 0.123259
H6    H     H_    0.024142 0.596893 0.959732 0.152675
C15   C     C_R   0.874862 0.912981 0.732400 -0.150687
C16   C     C_R   0.855817 0.932720 0.658390 -0.216942
C17   C     C_R   0.836796 0.870484 0.593273 0.053525
C18   C     C_R   0.836480 0.787606 0.603031 -0.135658
C19   C     C_R   0.856482 0.765732 0.677724 0.040884
C20   C     C_R   0.876495 0.829660 0.743848 0.086044
C21   C     C_R   0.857485 0.681588 0.686489 -0.178245
C22   C     C_R   0.879010 0.660673 0.762223 -0.001356
C23   C     C_R   0.915594 0.724823 0.828481 0.001810
C24   C     C_R   0.903587 0.810281 0.819407 -0.171024
C25   C     C_R   0.868620 0.576584 0.774202 -0.032909
C26   C     C_R   0.931648 0.555569 0.843796 -0.169846
C27   C     C_R   0.984838 0.615855 0.905260 -0.146090
C28   C     C_R   0.965760 0.699419 0.900700 -0.005584
H7    H     H_    0.891035 0.964257 0.780313 0.120492
H8    H     H_    0.821372 0.740479 0.551505 0.131149
C29   C     C_R   0.430347 0.209556 0.401033 -0.127094
C30   C     C_R   0.472999 0.128101 0.409603 -0.012751
C31   C     C_R   0.521126 0.068811 0.343725 -0.055186
C32   C     C_R   0.514934 0.091465 0.269908 -0.149241
C33   C     C_R   0.451916 0.170592 0.259695 0.037320
C34   C     C_R   0.416395 0.232002 0.326910 0.039974
C35   C     C_R   0.404045 0.186012 0.184307 -0.168831
C36   C     C_R   0.300310 0.260172 0.179629 0.064765
C37   C     C_R   0.292079 0.325901 0.244887 0.078131
C38   C     C_R   0.352519 0.312339 0.318884 -0.166008
C39   C     C_R   0.194578 0.269413 0.112579 -0.152371
C40   C     C_R   0.106917 0.344398 0.105905 -0.076002
C41   C     C_R   0.121890 0.411795 0.166008 -0.131155
C42   C     C_R   0.212105 0.402828 0.235303 -0.151348
H9    H     H_    0.396318 0.254088 0.452754 0.110318
H10   H     H_    0.545973 0.044434 0.219832 0.155081
H11   H     H_    0.170987 0.217828 0.066201 0.131110
H12   H     H_    0.026171 0.350424 0.054091 0.171172
H13   H     H_    0.212886 0.456043 0.281766 0.108352
C43   C     C_R   0.419143 0.138445 0.832951 -0.117797
C44   C     C_R   0.356514 0.364218 0.667127 -0.034266
C45   C     C_R   0.321628 0.358946 0.804818 0.018758
C46   C     C_R   0.302250 0.401250 0.742097 -0.195315
C47   C     C_R   0.437031 0.284676 0.655296 -0.132624
C48   C     C_R   0.438564 0.237802 0.715675 0.121870
C49   C     C_R   0.367439 0.272705 0.790262 0.104190
C50   C     C_R   0.346268 0.220133 0.846711 -0.026794
C51   C     C_R   0.505773 0.108560 0.761208 -0.171906
C52   C     C_R   0.511838 0.156809 0.702762 -0.100180
H14   H     H_    0.565534 0.046743 0.749842 0.122767
H15   H     H_    0.576064 0.130795 0.647521 0.128143
H16   H     H_    0.259768 0.465821 0.752593 0.110774
H17   H     H_    0.494630 0.259024 0.598677 0.128934
O11   O     O_R   0.265840 0.084300 0.086750 -0.547648
O12   O     O_R   0.589750 0.070740 0.921690 -0.533393
O13   O     O_R   0.755020 0.915730 0.913400 -0.540436
C53   C     C_R   0.421674 0.085933 0.894783 0.677030
O14   O     O_R   0.595830 0.093740 0.086480 -0.536979
O15   O     O_R   0.761150 0.938890 0.079360 -0.543082
C54   C     C_R   0.425069 0.118498 0.113820 0.666698
O16   O     O_R   0.259710 0.061140 0.920790 -0.538193
O17   O     O_3   0.425260 0.949200 0.997610 -0.356284
V3    V     V_3+5 0.702060 0.009430 0.000450 1.473384
O18   O     O_R   0.090530 0.929220 0.078150 -0.519780
C55   C     C_R   0.924053 0.916476 0.107042 0.698752
O19   O     O_R   0.084440 0.906220 0.913360 -0.531172
C56   C     C_R   0.915186 0.880814 0.887014 0.667198
V4    V     V_3+5 0.201450 0.990520 0.999290 1.507033
O20   O     O_3   0.928380 0.050800 0.002390 -0.370275
C57   C     C_2   0.818670 0.893171 0.515245 0.342110
H18   H     H_    0.826975 0.957644 0.508908 0.040427
O21   O     O_2   0.794170 0.840494 0.457217 -0.534927
C58   C     C_2   0.762477 0.510962 0.722338 0.381461
H19   H     H_    0.624778 0.525658 0.699157 0.051298
O22   O     O_2   0.823049 0.440070 0.708378 -0.521070
H20   H     H_    0.924957 0.492020 0.852857 0.165721
C59   C     C_2   0.985106 0.755302 0.975484 0.392240
H21   H     H_    0.866668 0.795734 0.995607 -0.000171
O23   O     O_2   0.127175 0.752690 0.016553 -0.502333
H22   H     H_    0.056723 0.470294 0.160119 0.122590
C60   C     C_2   0.454135 0.105133 0.487324 0.301478
H23   H     H_    0.557285 0.063974 0.507428 0.019839
O24   O     O_2   0.318225 0.130420 0.528894 -0.534611
C61   C     C_2   0.561074 0.981155 0.349897 0.353372
H24   H     H_    0.552644 0.960183 0.405136 0.069745
O25   O     O_2   0.600972 0.930183 0.292466 -0.528178
C62   C     C_2   0.242825 0.248022 0.919025 0.386976
H25   H     H_    0.324434 0.256243 0.972486 0.049504
O26   O     O_2   0.070671 0.262908 0.918273 -0.536309
C63   C     C_2   0.324382 0.410989 0.883447 0.383683
H26   H     H_    0.233112 0.464971 0.896262 0.046960
O27   O     O_2   0.440786 0.398225 0.932654 -0.534683
C64   C     C_2   0.482299 0.670749 0.177406 0.363296
H27   H     H_    0.417846 0.609584 0.164138 0.055346
O28   O     O_2   0.399698 0.728015 0.155367 -0.505815
H28   H     H_    0.856660 0.997178 0.652021 0.122826

loop_
_geom_bond_atom_site_label_1
_geom_bond_atom_site_label_2
_ccdc_geom_bond_type
C35   C36   A    
C31   C61   S    
C29   H9    S    
O15   V3    S    
C6    C9    A    
C23   C24   A    
C4    C6    S    
O2    C1    A    
C7    C8    A    
C12   H1    S    
C1    O6    A    
C61   O25   D    
C26   H20   S    
C37   C42   A    
C8    H4    S    
C33   C34   A    
C26   C27   A    
C13   H2    S    
C9    H5    S    
C58   H19   S    
C42   H13   S    
C18   C19   A    
C51   H14   S    
C20   C24   A    
O14   V3    S    
C60   O24   D    
O5    C3    A    
O14   C54   A    
C62   H25   S    
C28   C59   S    
O18   V4    S    
C36   C37   A    
C16   C17   A    
C48   C49   A    
C35   C54   S    
C44   C46   A    
C41   H22   S    
C63   H26   S    
C46   H16   S    
O8    V2    S    
C22   C25   A    
C17   C18   A    
C62   O26   D    
C45   C49   A    
C23   C28   A    
C45   C46   A    
O1    V2    S    
O13   V3    S    
C17   C57   S    
O7    V1    S    
C47   H17   S    
C52   H15   S    
C40   H12   S    
C39   C40   A    
C58   O22   D    
C29   C34   A    
O9    C4    A    
C43   C53   S    
C41   C42   A    
C61   H24   S    
C30   C31   A    
C33   C35   A    
C5    C12   A    
O11   V4    S    
C49   C50   A    
C24   C56   S    
C51   C52   A    
C32   H10   S    
C21   C22   A    
O4    C2    A    
C53   O16   A    
C13   C14   A    
C27   C28   A    
C30   C60   S    
C31   C32   A    
C40   C41   A    
C43   C50   A    
O13   C56   A    
C44   C47   A    
C7    C11   A    
C25   C26   A    
C25   C58   S    
C2    C44   S    
C19   C20   A    
C59   O23   D    
C11   C12   A    
V4    O20   S    
C15   C16   A    
H6    C27   S    
V3    O20   S    
O19   V4    S    
C64   H27   S    
O3    C4    A    
C22   C23   A    
O12   C53   A    
C57   H18   S    
O6    V2    S    
C57   O21   D    
O9    V2    S    
C15   H7    S    
C50   C62   S    
O17   V3    S    
O2    V1    S    
C32   C33   A    
C34   C38   A    
C7    C64   S    
C16   H28   S    
O1    C2    A    
C47   C48   A    
O5    V1    S    
O8    C3    A    
O17   V4    S    
C43   C51   A    
O12   V3    S    
C59   H21   S    
C15   C20   A    
C36   C39   A    
C5    C13   A    
C3    C21   S    
O7    V2    S    
O4    V1    S    
C19   C21   A    
O3    V1    S    
V1    O10   S    
C60   H23   S    
C39   H11   S    
C37   C38   A    
O16   V4    S    
O11   C54   A    
O15   C55   A    
O18   C55   A    
C18   H8    S    
C6    C8    A    
O19   C56   A    
C63   O27   D    
C64   O28   D    
C45   C63   S    
C5    C55   S    
C14   H3    S    
C29   C30   A    
C10   C14   A    
C1    C38   S    
C48   C52   A    
C10   C11   A    
C9    C10   A    
V2    O10   S    
