data_mof_unit_8002.cif
_audit_creation_date              2012-12-10T20:42:37-0500
_audit_creation_method            fapswitch 2.2
_symmetry_space_group_name_H-M    P1
_symmetry_Int_Tables_number       1
_space_group_crystal_system       triclinic
_cell_length_a                    8.880023
_cell_length_b                    10.687058
_cell_length_c                    9.925312
_cell_angle_alpha                 89.777502
_cell_angle_beta                  89.833925
_cell_angle_gamma                 90.685452
_cell_volume                      941.846627172

loop_
_atom_site_label
_atom_site_type_symbol
_atom_type_description
_atom_site_fract_x
_atom_site_fract_y
_atom_site_fract_z
_atom_type_partial_charge
C1    C     C_R   0.505088 0.260219 0.500382 0.864022
C2    C     C_R   0.566307 0.936182 0.383318 -0.224415
C3    C     C_R   0.522161 0.871511 0.500445 -0.090765
C4    C     C_R   0.506838 0.935573 0.621225 0.109178
C5    C     C_3   0.389173 0.928983 0.730047 -0.013662
C6    C     C_3   0.398616 0.071153 0.733032 -0.503725
C7    C     C_R   0.371329 0.471441 0.070928 0.165376
C8    C     C_R   0.624036 0.535998 0.071232 -0.145047
C9    C     C_R   0.624497 0.534907 0.927859 -0.138052
C10   C     C_R   0.369151 0.477873 0.928823 0.129045
C11   C     C_3   0.267402 0.365676 0.916949 -0.074219
C12   C     C_R   0.218995 0.500929 0.500038 0.923822
C13   C     C_3   0.277437 0.351852 0.071390 0.296830
C14   C     C_R   0.503142 0.739762 0.499721 0.874141
C15   C     C_R   0.781063 0.500465 0.499867 0.934768
C16   C     C_1   0.065530 0.501563 0.499857 -0.236646
C17   C     C_1   0.934525 0.501261 0.499646 -0.205399
C18   C     C_R   0.513259 0.062916 0.622891 0.088321
C19   C     C_R   0.528031 0.128880 0.502269 -0.086704
C20   C     C_R   0.569329 0.065830 0.384270 -0.239717
H1    H     H_    0.595173 0.115693 0.291740 0.173619
H2    H     H_    0.449781 0.106635 0.827688 0.176831
N1    N     N_R   0.499010 0.499140 0.142800 -0.107977
N2    N     N_R   0.499010 0.499180 0.857150 -0.112799
O1    O     O_R   0.500020 0.316790 0.614690 -0.617000
O2    O     O_R   0.500000 0.316760 0.385350 -0.624724
O3    O     O_R   0.285350 0.500020 0.614650 -0.616148
O4    O     O_R   0.285340 0.499980 0.385310 -0.611644
O5    O     O_R   0.500000 0.683240 0.614650 -0.618882
O6    O     O_R   0.499980 0.683210 0.385310 -0.620712
O7    O     O_R   0.714660 0.500020 0.614690 -0.621585
O8    O     O_R   0.714650 0.499980 0.385350 -0.621969
Zn1   Zn    Zn3+2 0.500010 0.500020 0.653130 0.935840
Zn2   Zn    Zn3+2 0.499990 0.499980 0.346870 0.939120
H3    H     H_    0.322356 0.290249 0.859606 0.173408
C21   C     C_3   0.127843 0.362482 0.149936 -0.788311
H4    H     H_    0.145922 0.346574 0.258778 0.247116
H5    H     H_    0.076080 0.455739 0.135794 0.222706
H6    H     H_    0.047330 0.288343 0.117730 0.223648
C22   C     C_3   0.363203 0.232476 0.109407 -0.883464
H7    H     H_    0.484072 0.239882 0.080733 0.221579
H8    H     H_    0.353042 0.212461 0.218315 0.270074
H9    H     H_    0.312671 0.150670 0.056750 0.223299
H10   H     H_    0.590195 0.887645 0.290191 0.170692
C23   C     C_3   0.234897 0.879135 0.684300 -0.866560
H11   H     H_    0.202638 0.919633 0.585307 0.244298
H12   H     H_    0.236900 0.775711 0.675889 0.255487
H13   H     H_    0.148236 0.903925 0.760175 0.239682
H14   H     H_    0.431028 0.884320 0.823943 0.169707
H15   H     H_    0.294520 0.119600 0.700428 0.208502
H16   H     H_    0.725226 0.563593 0.124276 0.153616
H17   H     H_    0.726275 0.561109 0.874177 0.155849
C24   C     C_3   0.110367 0.395093 0.860468 -0.858670
H18   H     H_    0.110583 0.387639 0.749855 0.261464
H19   H     H_    0.026726 0.323899 0.894587 0.236300
H20   H     H_    0.072297 0.489729 0.890347 0.240457

loop_
_geom_bond_atom_site_label_1
_geom_bond_atom_site_label_2
_ccdc_geom_bond_type
C7    C10   A    
O7    Zn1   S    
C9    N2    A    
C15   O7    A    
N2    Zn1   S    
C3    C14   S    
C19   C20   A    
C11   C24   S    
N1    Zn2   S    
C4    C18   A    
C22   H8    S    
C2    C3    A    
O4    Zn2   S    
C15   O8    A    
C24   H18   S    
O3    Zn1   S    
C1    O1    A    
C11   C13   S    
C8    H16   S    
C5    H14   S    
C1    O2    A    
C9    H17   S    
C14   O6    A    
C7    N1    A    
C4    C5    S    
C21   H5    S    
C22   H7    S    
C12   O4    A    
C24   H19   S    
C5    C6    S    
C6    C18   S    
C24   H20   S    
C1    C19   S    
C10   C11   S    
O6    Zn2   S    
C12   O3    A    
C2    C20   A    
C3    C4    A    
C6    H2    S    
O5    Zn1   S    
C7    C13   S    
C8    N1    A    
C20   H1    S    
C13   C21   S    
C10   N2    A    
C18   C19   A    
C23   H12   S    
C2    H10   S    
C15   C17   S    
C21   H6    S    
C21   H4    S    
C13   C22   S    
C23   H13   S    
C14   O5    A    
C23   H11   S    
C5    C23   S    
C11   H3    S    
O2    Zn2   S    
C22   H9    S    
C6    H15   S    
C12   C16   S    
C16   C17   T    
O1    Zn1   S    
C8    C9    A    
O8    Zn2   S    
