data_mof_unit_49682.cif
_audit_creation_date              2012-12-11T16:29:34-0500
_audit_creation_method            fapswitch 2.2
_symmetry_space_group_name_H-M    P1
_symmetry_Int_Tables_number       1
_space_group_crystal_system       triclinic
_cell_length_a                    6.945186
_cell_length_b                    17.28037
_cell_length_c                    18.931178
_cell_angle_alpha                 105.507549
_cell_angle_beta                  89.626641
_cell_angle_gamma                 90.328173
_cell_volume                      2189.2545721

loop_
_atom_site_label
_atom_site_type_symbol
_atom_type_description
_atom_site_fract_x
_atom_site_fract_y
_atom_site_fract_z
_atom_type_partial_charge
O1    O     O_R   0.494360 0.415680 0.413760 -0.505659
O2    O     O_R   0.818810 0.432910 0.557230 -0.499118
O3    O     O_R   0.994290 0.584320 0.586240 -0.473177
C1    C     C_R   0.650016 0.417535 0.581951 0.772392
O4    O     O_R   0.823740 0.406440 0.412520 -0.554670
O5    O     O_R   0.999250 0.557660 0.440500 -0.509153
C2    C     C_R   0.655599 0.384928 0.383515 0.832818
O6    O     O_R   0.489400 0.442340 0.559500 -0.522431
O7    O     O_3   0.662500 0.549650 0.509350 -0.311021
V1    V     V_3+5 0.935340 0.490790 0.498270 1.744980
O8    O     O_R   0.329270 0.567090 0.442770 -0.493573
C3    C     C_R   0.160911 0.584977 0.420208 0.785590
O9    O     O_R   0.324340 0.593560 0.587480 -0.544647
C4    C     C_R   0.153318 0.617836 0.613564 0.763746
V2    V     V_3+5 0.435970 0.509210 0.501730 1.753580
O10   O     O_3   0.158940 0.450350 0.490650 -0.367529
C5    C     C_R   0.236996 0.591711 0.754289 0.368140
C6    C     C_R   0.377247 0.584645 0.804547 0.080959
C7    C     C_R   0.414571 0.651447 0.863667 0.082769
C8    C     C_R   0.286194 0.716526 0.876644 0.437885
C9    C     C_R   0.192219 0.734506 0.816014 -0.135675
C10   C     C_R   0.184907 0.669868 0.750477 -0.165036
C11   C     C_R   0.127382 0.813973 0.815252 -0.084067
C12   C     C_R   0.104184 0.828916 0.744346 -0.085867
C13   C     C_R   0.091995 0.762808 0.680489 -0.059137
C14   C     C_R   0.134720 0.683791 0.682950 -0.042671
C15   C     C_R   0.115351 0.907121 0.731582 0.253263
C16   C     C_R   0.174411 0.912679 0.661384 0.392488
C17   C     C_R   0.127579 0.849030 0.600763 0.017161
C18   C     C_R   0.048542 0.779147 0.613280 0.244936
C19   C     C_1   0.107259 0.868754 0.136890 0.048329
C20   C     C_1   0.113567 0.826014 0.180369 0.071496
C21   C     C_1   0.123495 0.775152 0.231671 0.041299
C22   C     C_1   0.132674 0.732161 0.274867 0.068311
C23   C     C_1   0.143699 0.681076 0.325947 0.079119
C24   C     C_1   0.152428 0.637744 0.368843 -0.047594
C25   C     C_1   0.641349 0.366115 0.634441 -0.056595
C26   C     C_1   0.636706 0.323676 0.678143 0.144226
C27   C     C_1   0.632555 0.273443 0.729995 0.109678
C28   C     C_1   0.629441 0.230966 0.773691 0.074433
C29   C     C_1   0.625757 0.180286 0.825174 0.064493
C30   C     C_1   0.622156 0.136783 0.867979 -0.085608
C31   C     C_R   0.675055 0.408573 0.235764 0.292962
C32   C     C_R   0.780748 0.421147 0.176696 0.186786
C33   C     C_R   0.807586 0.356842 0.114694 0.116307
C34   C     C_R   0.731926 0.280475 0.113636 0.105922
C35   C     C_R   0.668194 0.263531 0.180283 -0.000234
C36   C     C_R   0.656215 0.329493 0.244695 -0.162837
C37   C     C_R   0.624296 0.183725 0.185277 -0.098528
C38   C     C_R   0.629179 0.168641 0.256462 -0.080166
C39   C     C_R   0.660435 0.233891 0.320855 -0.008130
C40   C     C_R   0.646920 0.315178 0.315771 -0.078567
C41   C     C_R   0.622340 0.089289 0.266121 0.343319
C42   C     C_R   0.705622 0.073534 0.327275 -0.239847
C43   C     C_R   0.750284 0.135001 0.388197 0.396825
C44   C     C_R   0.709326 0.214715 0.387993 0.067718
H1    H     H_    0.717977 0.012119 0.330241 0.183932
O11   O     O_R   0.775690 0.057750 0.940570 -0.493634
O12   O     O_R   0.441200 0.093570 0.087490 -0.517999
O13   O     O_R   0.265840 0.942320 0.059480 -0.471275
C45   C     C_R   0.610236 0.114959 0.116747 0.851693
O14   O     O_R   0.446270 0.067110 0.942790 -0.535584
O15   O     O_R   0.270950 0.915660 0.913750 -0.545075
C46   C     C_R   0.614701 0.083811 0.919152 0.794961
O16   O     O_R   0.770580 0.084400 0.086300 -0.550012
O17   O     O_3   0.602640 0.950400 0.990690 -0.336735
V3    V     V_3+5 0.329740 0.009200 0.001730 1.710957
O18   O     O_R   0.940900 0.906360 0.912450 -0.484114
C47   C     C_R   0.112011 0.882298 0.884829 0.875227
O19   O     O_R   0.935830 0.932820 0.057160 -0.525958
C48   C     C_R   0.102542 0.919470 0.083495 0.883737
V4    V     V_3+5 0.829130 0.990680 0.998180 1.737808
O20   O     O_3   0.106100 0.049590 0.009310 -0.384491
N1    N     N_3   0.143568 0.858504 0.527962 -0.506393
H2    H     H_    0.220792 0.809695 0.496009 0.213390
H3    H     H_    0.006080 0.857184 0.505649 0.311904
S1    S     S_3+6 0.517497 0.486974 0.279488 -0.016181
O21   O     O_2   0.616270 0.539887 0.345323 -0.327808
O22   O     O_2   0.467058 0.537193 0.228523 -0.314757
O23   O     O_3   0.312501 0.447896 0.303283 -0.533528
H4    H     H_    0.253450 0.418143 0.256303 0.314745
N2    N     N_3   0.845188 0.501236 0.178952 -0.536724
H5    H     H_    0.917430 0.503622 0.131077 0.275791
H6    H     H_    0.945405 0.518264 0.221336 0.233050
N3    N     N_3   0.901790 0.370445 0.051284 -0.655229
H7    H     H_    0.806516 0.357235 0.007145 0.248370
H8    H     H_    0.021232 0.332678 0.038267 0.236149
N4    N     N_3   0.724241 0.221121 0.044823 -0.699867
H9    H     H_    0.862962 0.211187 0.022619 0.232934
H10   H     H_    0.636834 0.242713 0.009654 0.202462
S2    S     S_3+6 0.465886 0.012867 0.218601 -0.040793
O24   O     O_2   0.286346 0.050111 0.198715 -0.360668
O25   O     O_2   0.565081 0.962551 0.151287 -0.370862
O26   O     O_3   0.402003 0.953616 0.272583 -0.489120
H11   H     H_    0.491175 0.907365 0.259482 0.345147
N5    N     N_3   0.716174 0.275086 0.456108 -0.680036
H12   H     H_    0.854198 0.277292 0.478141 0.276829
H13   H     H_    0.615722 0.260371 0.491764 0.257594
S3    S     S_3+6 0.080463 0.508705 0.720410 0.008676
O27   O     O_2   0.160989 0.455286 0.650707 -0.324549
O28   O     O_2   0.060207 0.460709 0.775609 -0.318622
O29   O     O_3   0.861120 0.541330 0.704931 -0.516763
H14   H     H_    0.832918 0.586753 0.748174 0.317011
N6    N     N_3   0.460405 0.507720 0.800419 -0.583140
H15   H     H_    0.416615 0.489626 0.846493 0.266372
H16   H     H_    0.610082 0.513359 0.801783 0.247915
N7    N     N_3   0.554515 0.647802 0.918176 -0.533147
H17   H     H_    0.521816 0.599591 0.939782 0.270373
H18   H     H_    0.689566 0.637758 0.892748 0.249420
S4    S     S_3+6 0.184098 0.736722 0.964433 -0.038906
O30   O     O_2   0.330059 0.784250 0.016629 -0.349301
O31   O     O_2   0.994698 0.779062 0.969445 -0.382325
O32   O     O_3   0.146323 0.649187 0.985477 -0.489338
H19   H     H_    0.108674 0.664565 0.037932 0.368183
S5    S     S_3+6 0.968875 0.986310 0.781247 0.019380
O33   O     O_2   0.788688 0.951051 0.804332 -0.343697
O34   O     O_2   0.076858 0.034992 0.846839 -0.370599
O35   O     O_3   0.901411 0.046378 0.729081 -0.455887
H20   H     H_    0.960447 0.099407 0.751893 0.382264
S6    S     S_3+6 0.280804 0.001302 0.647738 0.149982
O36   O     O_2   0.140267 0.042465 0.609982 -0.199290
O37   O     O_2   0.337591 0.057800 0.719796 -0.331198
O38   O     O_3   0.476747 0.977462 0.593792 -0.441728
H21   H     H_    0.587974 0.988995 0.627534 0.410532
S7    S     S_3+6 0.820260 0.749039 0.574186 -0.005976
O39   O     O_2   0.841694 0.704236 0.494982 -0.361130
O40   O     O_2   0.716400 0.698060 0.615444 -0.329742
O41   O     O_3   0.688375 0.831547 0.579512 -0.483856
H22   H     H_    0.560521 0.810983 0.560066 0.364904
S8    S     S_3+6 0.840676 0.109539 0.466701 0.106407
O42   O     O_2   0.027969 0.152787 0.489234 -0.269479
O43   O     O_2   0.699660 0.134313 0.529191 -0.297813
O44   O     O_3   0.879962 0.010114 0.448862 -0.447021
H23   H     H_    0.753926 0.986446 0.456639 0.371851

loop_
_geom_bond_atom_site_label_1
_geom_bond_atom_site_label_2
_ccdc_geom_bond_type
C43   C44   A    
C29   C30   T    
C11   C47   S    
O2    C1    A    
C7    C8    A    
C12   C15   A    
C1    O6    A    
O41   H22   S    
N6    H16   S    
O38   H21   S    
C35   C37   A    
S1    O21   D    
C32   C33   A    
C17   C18   A    
N1    H3    S    
O14   V3    S    
C16   C17   A    
C2    C40   S    
C22   C23   S    
C32   N2    S    
O5    C3    A    
C26   C27   S    
S5    O33   D    
C6    C7    A    
O35   H20   S    
O14   C46   A    
O12   V3    S    
S4    O30   D    
O8    V2    S    
O17   V4    S    
O15   C47   A    
O13   V3    S    
O18   C47   A    
S5    O34   D    
N5    H13   S    
C41   S2    S    
S7    O41   S    
N7    H17   S    
O19   C48   A    
O1    V2    S    
C3    C24   S    
C31   C36   A    
S6    O38   S    
S5    O35   S    
N3    H8    S    
O17   V3    S    
C18   S7    S    
O9    C4    A    
N7    H18   S    
O26   H11   S    
N6    H15   S    
S6    O37   D    
C38   C39   A    
C34   N4    S    
S1    O22   D    
O11   C46   A    
O15   V3    S    
O12   C45   A    
C38   C41   A    
C37   C45   S    
N1    H2    S    
C39   C40   A    
C12   C13   A    
C16   S6    S    
S2    O24   D    
O4    C2    A    
V4    O20   S    
C17   N1    S    
O13   C48   A    
C13   C14   A    
N3    H7    S    
C4    C14   S    
C23   C24   T    
C33   N3    S    
C31   C32   A    
C25   C26   T    
C45   O16   A    
S2    O25   D    
C35   C36   A    
O18   V4    S    
C43   S8    S    
N5    H12   S    
C8    C9    A    
C5    C6    A    
C6    N6    S    
C1    C25   S    
C5    S3    S    
S4    O32   S    
O3    C4    A    
V3    O20   S    
C28   C29   S    
S3    O28   D    
N4    H10   S    
N2    H5    S    
O6    V2    S    
N2    H6    S    
C9    C11   A    
S7    O39   D    
C8    S4    S    
S8    O44   S    
O2    V1    S    
C30   C46   S    
C27   C28   T    
S6    O36   D    
O32   H19   S    
O7    V1    S    
S1    O23   S    
C13   C18   A    
C44   N5    S    
C34   C35   A    
O1    C2    A    
C19   C20   T    
C39   C44   A    
O23   H4    S    
O5    V1    S    
C42   C43   A    
O8    C3    A    
C41   C42   A    
C31   S1    S    
O16   V4    S    
C5    C10   A    
S3    O27   D    
S8    O43   D    
C20   C21   S    
O9    V2    S    
S8    O42   D    
O7    V2    S    
O4    V1    S    
O3    V1    S    
V1    O10   S    
S2    O26   S    
O11   V4    S    
O44   H23   S    
C19   C48   S    
C21   C22   T    
O29   H14   S    
S4    O31   D    
C11   C12   A    
C33   C34   A    
C36   C40   A    
S3    O29   S    
N4    H9    S    
C37   C38   A    
C10   C14   A    
C15   C16   A    
S7    O40   D    
O19   V4    S    
C9    C10   A    
V2    O10   S    
C7    N7    S    
C42   H1    S    
C15   S5    S    
