data_mof_unit_33834.cif
_audit_creation_date              2012-12-11T17:07:30-0500
_audit_creation_method            fapswitch 2.2
_symmetry_space_group_name_H-M    P1
_symmetry_Int_Tables_number       1
_space_group_crystal_system       triclinic
_cell_length_a                    6.955386
_cell_length_b                    14.662628
_cell_length_c                    15.951896
_cell_angle_alpha                 90.029769
_cell_angle_beta                  90.173289
_cell_angle_gamma                 89.885086
_cell_volume                      1626.83102331

loop_
_atom_site_label
_atom_site_type_symbol
_atom_type_description
_atom_site_fract_x
_atom_site_fract_y
_atom_site_fract_z
_atom_type_partial_charge
O1    O     O_R   0.505720 0.583900 0.413310 -0.539111
O2    O     O_R   0.175940 0.594920 0.586080 -0.541328
O3    O     O_R   0.005640 0.416100 0.586690 -0.532013
C1    C     C_R   0.345190 0.618648 0.613402 0.700967
O4    O     O_R   0.176000 0.594930 0.413930 -0.545536
O5    O     O_R   0.005700 0.416110 0.413310 -0.538988
C2    C     C_R   0.344624 0.616886 0.385084 0.685941
O6    O     O_R   0.505660 0.583890 0.586690 -0.540841
O7    O     O_3   0.339200 0.441330 0.500000 -0.363915
V1    V     V_3+5 0.064350 0.510880 0.500000 1.402118
O8    O     O_R   0.675980 0.405080 0.413920 -0.540968
C3    C     C_R   0.845048 0.383187 0.385038 0.688793
O9    O     O_R   0.675920 0.405070 0.586070 -0.535662
C4    C     C_R   0.845104 0.384961 0.616315 0.700326
V2    V     V_3+5 0.564340 0.489120 0.500000 1.411747
O10   O     O_3   0.839360 0.558670 0.500000 -0.376965
H1    H     H_    0.703048 0.080785 0.504084 0.109801
C5    C     C_R   0.947633 0.433873 0.789184 -0.205766
C6    C     C_R   0.985356 0.459779 0.872608 0.047857
C7    C     C_R   0.981990 0.394103 0.935759 -0.167826
C8    C     C_R   0.947071 0.303567 0.916604 -0.162291
C9    C     C_R   0.911164 0.275542 0.833323 0.082020
C10   C     C_R   0.906029 0.342043 0.768281 0.049011
C11   C     C_R   0.877339 0.182701 0.815119 -0.175763
C12   C     C_R   0.829823 0.156066 0.732246 0.065066
C13   C     C_R   0.818971 0.222515 0.667157 0.071450
C14   C     C_R   0.857127 0.315740 0.684849 -0.173713
C15   C     C_R   0.794120 0.063535 0.712511 -0.144415
C16   C     C_R   0.748179 0.037084 0.630996 -0.122662
C17   C     C_R   0.737890 0.101738 0.567415 -0.122329
C18   C     C_R   0.773317 0.193353 0.584853 -0.132258
H2    H     H_    0.949254 0.485859 0.741155 0.126370
H3    H     H_    0.010177 0.412458 0.000445 0.150019
H4    H     H_    0.947503 0.256019 0.968425 0.109480
H5    H     H_    0.801768 0.010677 0.759713 0.088591
H6    H     H_    0.721137 0.965961 0.617081 0.107738
H7    H     H_    0.765633 0.240675 0.532950 0.100528
C19   C     C_R   0.729256 0.182515 0.242513 0.096982
C20   C     C_R   0.882017 0.182627 0.185410 -0.108291
C21   C     C_R   0.032505 0.244823 0.200071 -0.179739
H8    H     H_    0.153972 0.247216 0.158059 0.133096
C22   C     C_R   0.021367 0.308961 0.265691 -0.168926
H9    H     H_    0.135154 0.358611 0.272391 0.128039
C23   C     C_R   0.859087 0.313041 0.318384 -0.107408
C24   C     C_R   0.717854 0.246182 0.307228 0.092885
C25   C     C_3   0.506141 0.256785 0.296474 -0.405189
C26   C     C_3   0.518449 0.187072 0.226176 -0.396031
H10   H     H_    0.466568 0.326196 0.274356 0.170066
H11   H     H_    0.425065 0.231943 0.351868 0.175029
H12   H     H_    0.485356 0.215815 0.163294 0.175023
H13   H     H_    0.445045 0.121800 0.241051 0.164155
C27   C     C_R   0.509396 0.688374 0.737965 0.123654
C28   C     C_R   0.355125 0.687453 0.681392 -0.085489
C29   C     C_R   0.206827 0.751719 0.693904 -0.137992
H14   H     H_    0.085072 0.753753 0.651669 0.123901
C30   C     C_R   0.218338 0.816522 0.759184 -0.192642
H15   H     H_    0.104571 0.866439 0.765654 0.127774
C31   C     C_R   0.378087 0.818451 0.813947 -0.130618
C32   C     C_R   0.520580 0.752233 0.802551 0.117329
C33   C     C_3   0.730661 0.765578 0.789981 -0.397349
C34   C     C_3   0.718661 0.696050 0.719719 -0.400466
H16   H     H_    0.815118 0.741964 0.844996 0.197643
H17   H     H_    0.765169 0.835438 0.767713 0.155472
H18   H     H_    0.796621 0.631752 0.733479 0.194340
H19   H     H_    0.746314 0.725454 0.656678 0.160885
C35   C     C_R   0.506451 0.682590 0.257820 0.109630
C36   C     C_R   0.352454 0.682302 0.314313 -0.112205
C37   C     C_R   0.201302 0.744229 0.299112 -0.177510
H20   H     H_    0.079013 0.746404 0.340660 0.130742
C38   C     C_R   0.212833 0.808501 0.233675 -0.171961
H21   H     H_    0.098362 0.857939 0.226610 0.124839
C39   C     C_R   0.376167 0.813008 0.181644 -0.110241
C40   C     C_R   0.518258 0.746400 0.193281 0.123475
C41   C     C_3   0.729477 0.757446 0.205061 -0.408217
C42   C     C_3   0.716760 0.687524 0.275079 -0.402963
H22   H     H_    0.767141 0.826894 0.227591 0.160572
H23   H     H_    0.812440 0.732940 0.149992 0.198707
H24   H     H_    0.747888 0.716165 0.338195 0.167497
H25   H     H_    0.791628 0.622434 0.260326 0.177020
O11   O     O_R   0.229140 0.916090 0.913340 -0.539874
O12   O     O_R   0.558860 0.905090 0.086080 -0.539973
O13   O     O_R   0.729100 0.083920 0.086690 -0.537343
C43   C     C_R   0.389984 0.883165 0.114997 0.699974
O14   O     O_R   0.558860 0.905090 0.913930 -0.540814
O15   O     O_R   0.729100 0.083920 0.913310 -0.535966
C44   C     C_R   0.390074 0.885297 0.883419 0.710776
O16   O     O_R   0.229140 0.916080 0.086720 -0.538093
O17   O     O_3   0.395570 0.058660 0.000020 -0.369193
V3    V     V_3+5 0.670450 0.989140 0.000000 1.413626
O18   O     O_R   0.058810 0.094980 0.913910 -0.538680
C45   C     C_R   0.889724 0.113950 0.883305 0.696073
O19   O     O_R   0.058810 0.094980 0.086060 -0.546058
C46   C     C_R   0.890004 0.117012 0.114805 0.682619
V4    V     V_3+5 0.170450 0.010950 0.999970 1.411074
O20   O     O_3   0.895460 0.941370 0.999990 -0.368988
C47   C     C_2   0.031380 0.555106 0.894637 0.716925
O21   O     O_2   0.012978 0.581888 0.966849 -0.568154
O22   O     O_R   0.101010 0.614160 0.833660 -0.677749
H26   H     H_    0.133868 0.675710 0.858435 0.298825

loop_
_geom_bond_atom_site_label_1
_geom_bond_atom_site_label_2
_ccdc_geom_bond_type
C43   O16   A    
C1    C28   S    
C40   C41   S    
C6    C7    A    
C1    O6    A    
O15   C45   A    
C28   C29   A    
C23   C24   A    
C12   C15   A    
C16   H6    S    
C13   C14   A    
O13   V3    S    
C41   H22   S    
C33   H17   S    
C15   C16   A    
O14   C44   A    
C27   C34   S    
O5    C3    A    
C17   C18   A    
V2    O10   S    
O16   V4    S    
C30   H15   S    
C33   H16   S    
C5    C6    A    
C20   C46   S    
C19   C24   A    
O11   C44   A    
C29   H14   S    
O8    V2    S    
C15   H5    S    
C37   H20   S    
C41   H23   S    
C47   O22   S    
C38   H21   S    
O1    V2    S    
C10   C14   A    
C4    C14   S    
O7    V1    S    
O12   V3    S    
C21   C22   A    
C35   C36   A    
C32   C33   S    
O13   C46   A    
C8    C9    A    
H1    C17   S    
C22   C23   A    
C31   C44   S    
O12   C43   A    
O18   V4    S    
C26   H12   S    
C29   C30   A    
O17   V4    S    
C41   C42   S    
C36   C37   A    
C11   C12   A    
C20   C21   A    
O4    C2    A    
O15   V3    S    
C26   H13   S    
C8    H4    S    
C12   C13   A    
C24   C25   S    
C35   C40   A    
C5    C10   A    
C18   H7    S    
C33   C34   S    
V3    O20   S    
C34   H18   S    
O2    C1    A    
C16   C17   A    
C27   C32   A    
C25   H11   S    
C47   O21   D    
O19   V4    S    
C7    C8    A    
C19   C26   S    
O3    C4    A    
C7    H3    S    
C21   H8    S    
O6    V2    S    
O9    V2    S    
C9    C11   A    
C5    H2    S    
O14   V3    S    
O11   V4    S    
O2    V1    S    
C11   C45   S    
C27   C28   A    
C25   C26   S    
O1    C2    A    
C39   C40   A    
O5    V1    S    
O8    C3    A    
C31   C32   A    
O4    V1    S    
C3    C23   S    
O3    V1    S    
V1    O10   S    
O18   C45   A    
C19   C20   A    
C35   C42   S    
O19   C46   A    
C30   C31   A    
O7    V2    S    
V4    O20   S    
C42   H24   S    
C39   C43   S    
C2    C36   S    
C25   H10   S    
C34   H19   S    
C13   C18   A    
O17   V3    S    
C37   C38   A    
O22   H26   S    
C22   H9    S    
C9    C10   A    
C38   C39   A    
O9    C4    A    
C42   H25   S    
C6    C47   S    
