data_mof_unit_51892.cif
_audit_creation_date              2012-10-26T18:59:35-0400
_audit_creation_method            fapswitch 2.2
_symmetry_space_group_name_H-M    P1
_symmetry_Int_Tables_number       1
_space_group_crystal_system       triclinic
_cell_length_a                    23.461451
_cell_length_b                    10.790117
_cell_length_c                    9.607041
_cell_angle_alpha                 90.518904
_cell_angle_beta                  88.684005
_cell_angle_gamma                 91.307382
_cell_volume                      2430.67672751

loop_
_atom_site_label
_atom_site_type_symbol
_atom_type_description
_atom_site_fract_x
_atom_site_fract_y
_atom_site_fract_z
_atom_type_partial_charge
C1    C     C_R   0.500096 0.262664 0.499444 0.558326
C2    C     C_R   0.119072 0.573600 0.628710 0.402895
C3    C     C_R   0.241716 0.617028 0.480257 0.278685
C4    C     C_R   0.391267 0.499451 0.501268 0.565816
C5    C     C_R   0.301701 0.609936 0.469884 -0.217562
C6    C     C_R   0.328969 0.500766 0.504235 -0.078106
C7    C     C_R   0.296604 0.394758 0.543087 0.252317
C8    C     C_R   0.237848 0.404296 0.567343 0.269818
C9    C     C_R   0.210072 0.512722 0.527588 0.204015
C10   C     C_R   0.758743 0.382017 0.540850 -0.036712
C11   C     C_R   0.698963 0.383510 0.541452 0.248984
C12   C     C_R   0.973380 0.375504 0.312906 -0.125836
C13   C     C_R   0.671406 0.493347 0.504930 0.033670
C14   C     C_R   0.703764 0.603714 0.495396 -0.206242
C15   C     C_R   0.762909 0.603000 0.501377 -0.085696
C16   C     C_R   0.498881 0.737218 0.499695 0.528791
C17   C     C_R   0.790790 0.491724 0.521028 0.195630
C18   C     C_R   0.454423 0.062286 0.559340 -0.005632
C19   C     C_R   0.499197 0.129294 0.496214 0.017340
C20   C     C_R   0.538964 0.065533 0.412958 -0.160103
C21   C     C_R   0.538080 0.935839 0.411856 -0.178339
C22   C     C_R   0.497470 0.870394 0.494308 0.016159
C23   C     C_R   0.032867 0.380337 0.312743 -0.128469
C24   C     C_R   0.452386 0.934984 0.554486 -0.001052
C25   C     C_3   0.423294 0.925878 0.693233 -0.291115
C26   C     C_3   0.427798 0.067012 0.701618 -0.283169
C27   C     C_R   0.547761 0.536623 0.070216 0.130523
C28   C     C_R   0.608889 0.497748 0.499944 0.567928
C29   C     C_R   0.456211 0.447037 0.076129 -0.023316
C30   C     C_R   0.456696 0.445221 0.927497 -0.032461
C31   C     C_R   0.544941 0.547061 0.925484 0.218930
C32   C     C_3   0.570078 0.675151 0.922460 0.524981
C33   C     C_3   0.582102 0.655392 0.078364 0.143574
C34   C     C_R   0.061874 0.444917 0.418289 0.028080
C35   C     C_R   0.879203 0.553445 0.629905 0.399051
C36   C     C_R   0.881802 0.432069 0.420570 0.400716
C37   C     C_R   0.941660 0.434927 0.418770 0.029163
C38   C     C_R   0.970345 0.499941 0.525075 -0.028656
C39   C     C_R   0.938989 0.559623 0.631860 0.028744
C40   C     C_3   0.654853 0.277091 0.720925 0.005410
C41   C     C_3   0.706466 0.248131 0.810348 -0.289652
C42   C     C_3   0.687625 0.206865 0.956290 -0.464226
C43   C     C_3   0.643582 0.790310 0.806784 0.055233
C44   C     C_3   0.621309 0.851066 0.676207 -0.257313
C45   C     C_R   0.030531 0.505290 0.524589 -0.032867
C46   C     C_3   0.664009 0.947801 0.620911 -0.495891
C47   C     C_3   0.525462 0.870328 0.968132 -0.047033
C48   C     C_3   0.471459 0.871270 0.061648 -0.270497
C49   C     C_3   0.457696 0.002203 0.111709 -0.471355
C50   C     C_3   0.666264 0.701253 0.198200 0.018029
C51   C     C_3   0.690081 0.824636 0.141923 -0.286768
C52   C     C_3   0.729261 0.889206 0.245532 -0.473043
C53   C     C_3   0.237105 0.834900 0.469867 0.015083
C54   C     C_3   0.242013 0.855609 0.627803 -0.279859
C55   C     C_3   0.263232 0.986729 0.660455 -0.484617
C56   C     C_R   0.059226 0.570663 0.630629 0.022453
C57   C     C_3   0.335395 0.228357 0.426994 -0.004868
C58   C     C_3   0.282580 0.191634 0.342451 -0.263315
C59   C     C_3   0.299026 0.113836 0.214868 -0.498773
C60   C     C_3   0.184183 0.331987 0.754052 0.027284
C61   C     C_3   0.189924 0.221772 0.851030 -0.285671
C62   C     C_3   0.165177 0.249789 0.995997 -0.455294
C63   C     C_R   0.027525 0.629836 0.736651 -0.130504
C64   C     C_R   0.968032 0.624240 0.737364 -0.126193
C65   C     C_R   0.121618 0.450236 0.420889 0.443639
Cu1   Cu    Cu3+1 0.500000 0.499980 0.640670 0.999863
Cu2   Cu    Cu3+1 0.500000 0.500020 0.359330 0.931089
H1    H     H_    0.683710 0.691233 0.482728 0.087550
H2    H     H_    0.421310 0.402033 0.873845 0.128577
H3    H     H_    0.563012 0.720302 0.155371 0.081778
H4    H     H_    0.048551 0.680392 0.819553 0.164743
H5    H     H_    0.944913 0.670888 0.820658 0.166321
H6    H     H_    0.327842 0.687163 0.433186 0.117331
H7    H     H_    0.780224 0.296496 0.561159 0.133586
H8    H     H_    0.952374 0.325058 0.229894 0.164260
H9    H     H_    0.620765 0.205429 0.738697 0.152733
H10   H     H_    0.636769 0.366026 0.757891 0.176282
H11   H     H_    0.732448 0.174743 0.760312 0.167654
H12   H     H_    0.787156 0.689061 0.490025 0.135898
H13   H     H_    0.734040 0.332724 0.820246 0.180666
H14   H     H_    0.662063 0.279962 0.008598 0.176253
H15   H     H_    0.725727 0.189962 0.019287 0.170969
H16   H     H_    0.661683 0.119560 0.950893 0.123083
H17   H     H_    0.571928 0.115503 0.354189 0.138196
H18   H     H_    0.690020 0.774687 0.792680 0.164873
H19   H     H_    0.638884 0.854661 0.895828 0.092414
H20   H     H_    0.580649 0.897342 0.701142 0.180400
H21   H     H_    0.612797 0.780459 0.594622 0.177604
H22   H     H_    0.704487 0.903634 0.588182 0.144423
H23   H     H_    0.570743 0.887310 0.353187 0.101454
H24   H     H_    0.646341 0.996750 0.531203 0.179956
H25   H     H_    0.673077 0.015862 0.704233 0.163642
H26   H     H_    0.524369 0.949439 0.895362 0.142296
H27   H     H_    0.563571 0.888993 0.031515 0.084599
H28   H     H_    0.434378 0.832600 0.004496 0.176154
H29   H     H_    0.477193 0.811757 0.153423 0.176336
H30   H     H_    0.496501 0.050784 0.150022 0.163174
H31   H     H_    0.425249 0.997697 0.197580 0.150317
H32   H     H_    0.440410 0.056432 0.025315 0.137737
H33   H     H_    0.702900 0.647656 0.233139 0.186318
H34   H     H_    0.378917 0.889195 0.685238 0.129699
H35   H     H_    0.637192 0.717173 0.289278 0.113694
H36   H     H_    0.714955 0.807833 0.044127 0.186695
H37   H     H_    0.654447 0.887256 0.122025 0.123757
H38   H     H_    0.705122 0.910290 0.342788 0.145287
H39   H     H_    0.746043 0.977654 0.200777 0.164700
H40   H     H_    0.765789 0.829805 0.269218 0.156923
H41   H     H_    0.208930 0.907169 0.429732 0.162730
H42   H     H_    0.278523 0.850166 0.413970 0.111972
H43   H     H_    0.199562 0.840994 0.679109 0.225629
H44   H     H_    0.272158 0.789250 0.671732 0.162051
H45   H     H_    0.448905 0.877009 0.768644 0.197407
H46   H     H_    0.303342 0.007646 0.601403 0.163549
H47   H     H_    0.271282 0.996096 0.773518 0.146803
H48   H     H_    0.230730 0.054156 0.631415 0.199322
H49   H     H_    0.359514 0.143287 0.445248 0.146225
H50   H     H_    0.364297 0.289888 0.364235 0.140433
H51   H     H_    0.251726 0.137668 0.408208 0.197195
H52   H     H_    0.261360 0.276252 0.306648 0.194007
H53   H     H_    0.329682 0.166324 0.146607 0.144466
H54   H     H_    0.260389 0.090254 0.154709 0.155815
H55   H     H_    0.318606 0.026222 0.247275 0.139530
H56   H     H_    0.385800 0.112348 0.703652 0.172694
H57   H     H_    0.138070 0.349914 0.743482 0.157198
H58   H     H_    0.204984 0.414610 0.804568 0.150007
H59   H     H_    0.166926 0.139696 0.807165 0.172589
H60   H     H_    0.235749 0.199945 0.860021 0.175411
H61   H     H_    0.189334 0.327820 0.044871 0.193596
H62   H     H_    0.168261 0.166824 0.062636 0.157451
H63   H     H_    0.119570 0.274227 0.989801 0.158184
H64   H     H_    0.458180 0.101980 0.780668 0.135331
H65   H     H_    0.420244 0.405871 0.132511 0.119653
H66   H     H_    0.056004 0.333263 0.229776 0.154182
N1    N     N_R   0.851917 0.491231 0.524737 -0.395884
N2    N     N_R   0.148878 0.513215 0.525405 -0.354299
N3    N     N_R   0.500360 0.500930 0.147930 -0.262885
N4    N     N_R   0.500360 0.500890 0.852020 -0.243877
O1    O     O_R   0.500000 0.319640 0.618810 -0.507454
O2    O     O_R   0.582120 0.500020 0.618760 -0.478089
O3    O     O_R   0.582120 0.500060 0.381180 -0.489028
O4    O     O_2   0.848523 0.608858 0.732396 -0.504148
O5    O     O_3   0.668343 0.276639 0.575927 -0.591133
O6    O     O_3   0.617432 0.672952 0.828123 -0.522326
O7    O     O_3   0.526737 0.759370 0.887211 -0.577889
O8    O     O_3   0.640431 0.628287 0.093746 -0.560828
O9    O     O_3   0.211373 0.718663 0.436319 -0.532092
O10   O     O_3   0.321428 0.280706 0.559429 -0.564230
O11   O     O_3   0.207688 0.302714 0.620702 -0.554171
O12   O     O_2   0.853673 0.372131 0.318129 -0.502619
O13   O     O_2   0.152329 0.392817 0.319971 -0.528150
O14   O     O_2   0.147255 0.633311 0.731056 -0.542395
O15   O     O_R   0.500010 0.319680 0.381230 -0.507064
O16   O     O_R   0.417880 0.499940 0.618820 -0.488431
O17   O     O_R   0.417880 0.499980 0.381240 -0.518062
O18   O     O_R   0.499990 0.680320 0.618770 -0.446516
O19   O     O_R   0.500000 0.680360 0.381190 -0.532212

loop_
_geom_bond_atom_site_label_1
_geom_bond_atom_site_label_2
_ccdc_geom_bond_type
C59   H54   S    
C4    O17   A    
C40   C41   S    
C59   H53   S    
C48   H28   S    
C40   O5    S    
C11   C13   A    
C41   C42   S    
C62   H63   S    
C43   O6    S    
C19   C20   A    
C28   O3    A    
C41   H13   S    
C7    C8    A    
C46   H22   S    
C53   C54   S    
C27   C33   S    
C39   C64   A    
C28   O2    A    
C12   C23   A    
C29   C30   A    
Cu2   O17   S    
C18   C24   A    
C27   N3    A    
C36   C37   A    
C5    C6    A    
C36   O12   S    
C29   H65   S    
C46   H25   S    
C10   C17   A    
C51   H36   S    
C58   H51   S    
C54   H43   S    
C1    O15   A    
C18   C19   A    
C65   O13   S    
C60   H57   S    
C58   H52   S    
C38   C45   A    
C25   H45   S    
C49   H31   S    
C15   H12   S    
Cu1   O2    S    
C31   C32   S    
C45   C56   A    
C8    C9    A    
C32   O6    S    
C18   C26   S    
C16   O19   A    
C13   C28   S    
C61   H59   S    
C31   N4    A    
C44   H20   S    
C59   H55   S    
Cu1   Cu2   S    
C52   H39   S    
C30   N4    A    
C13   C14   A    
C62   H62   S    
C8    O11   S    
C42   H14   S    
C34   C65   A    
C25   C26   S    
C44   C46   S    
C57   H49   S    
C7    O10   S    
C21   H23   S    
C1    C19   S    
C23   H66   S    
C27   C31   A    
C51   C52   S    
C43   H18   S    
C24   C25   S    
C52   H40   S    
C4    C6    S    
C41   H11   S    
C46   H24   S    
C55   H46   S    
C51   H37   S    
C47   O7    S    
C40   H9    S    
Cu2   O19   S    
C35   C39   A    
C43   C44   S    
C37   C38   A    
C3    C9    A    
C49   H32   S    
C47   C48   S    
Cu1   O1    S    
C35   N1    A    
C23   C34   A    
C16   O18   A    
C50   C51   S    
C47   H26   S    
C56   C63   A    
C61   H60   S    
C34   C45   A    
Cu2   O3    S    
C65   N2    A    
C33   O8    S    
C33   H3    S    
C35   O4    S    
C9    N2    S    
C50   O8    S    
C48   C49   S    
C63   H4    S    
C52   H38   S    
C50   H35   S    
C20   H17   S    
C22   C24   A    
C26   H56   S    
C30   H2    S    
C57   H50   S    
C53   H42   S    
C2    O14   S    
C15   C17   A    
C54   C55   S    
C60   H58   S    
C16   C22   S    
C48   H29   S    
Cu2   O15   S    
C14   C15   A    
C43   H19   S    
C42   H16   S    
C3    C5    A    
C36   N1    A    
Cu1   O16   S    
C6    C7    A    
C55   H47   S    
C50   H33   S    
C2    N2    A    
C32   C33   S    
C57   O10   S    
Cu2   N3    S    
C58   C59   S    
C2    C56   A    
C62   H61   S    
C10   H7    S    
C53   H41   S    
C25   H34   S    
C57   C58   S    
C38   C39   A    
Cu1   N4    S    
C55   H48   S    
C53   O9    S    
C47   H27   S    
C54   H44   S    
C4    O16   A    
C44   H21   S    
C64   H5    S    
Cu1   O18   S    
C5    H6    S    
C61   C62   S    
C11   O5    S    
C32   O7    S    
C10   C11   A    
C1    O1    A    
C49   H30   S    
C63   C64   A    
C29   N3    A    
C20   C21   A    
C3    O9    S    
C12   C37   A    
C12   H8    S    
C17   N1    S    
C14   H1    S    
C40   H10   S    
C60   C61   S    
C60   O11   S    
C21   C22   A    
C26   H64   S    
C42   H15   S    
