data_mof_unit_6103.cif
_audit_creation_date              2012-12-11T14:13:31-0500
_audit_creation_method            fapswitch 2.2
_symmetry_space_group_name_H-M    P1
_symmetry_Int_Tables_number       1
_space_group_crystal_system       triclinic
_cell_length_a                    17.224079
_cell_length_b                    17.480452
_cell_length_c                    17.435709
_cell_angle_alpha                 90.118377
_cell_angle_beta                  89.9698
_cell_angle_gamma                 89.642689
_cell_volume                      5249.51092264

loop_
_atom_site_label
_atom_site_type_symbol
_atom_type_description
_atom_site_fract_x
_atom_site_fract_y
_atom_site_fract_z
_atom_type_partial_charge
C1    C     C_R   0.597605 0.308566 0.115285 -0.138734
C2    C     C_R   0.162305 0.072829 0.646600 -0.107939
C3    C     C_R   0.896038 0.194282 0.607091 -0.082000
C4    C     C_R   0.831088 0.922632 0.643224 -0.102891
C5    C     C_R   0.106669 0.195979 0.401721 -0.098035
C6    C     C_R   0.162069 0.925572 0.352944 -0.083807
C7    C     C_R   0.902409 0.811104 0.380118 -0.142180
C8    C     C_R   0.835541 0.076325 0.354045 -0.108807
C9    C     C_R   0.607441 0.696702 0.099214 0.489829
C10   C     C_R   0.311615 0.599772 0.122875 0.459831
C11   C     C_R   0.409313 0.320454 0.133852 0.499409
C12   C     C_R   0.696417 0.605726 0.100456 -0.075796
C13   C     C_R   0.688668 0.397419 0.122386 0.535594
C14   C     C_R   0.580798 0.328672 0.857827 0.496282
C15   C     C_R   0.303533 0.394714 0.895250 0.465197
C16   C     C_R   0.419430 0.668153 0.854775 0.426469
C17   C     C_R   0.698434 0.606376 0.901609 0.451470
C18   C     C_R   0.082683 0.172905 0.641171 0.497221
C19   C     C_R   0.804848 0.105469 0.608292 0.346922
C20   C     C_R   0.913592 0.824370 0.638269 0.508154
C21   C     C_R   0.195263 0.892830 0.607352 0.449592
C22   C     C_R   0.085106 0.824285 0.361731 0.478632
C23   C     C_R   0.410437 0.680479 0.132552 -0.105709
C24   C     C_R   0.809274 0.899528 0.381712 0.429503
C25   C     C_R   0.916657 0.174579 0.360952 0.500904
C26   C     C_R   0.198093 0.106903 0.401037 0.470796
C27   C     C_R   0.667409 0.324812 0.146771 -0.102908
C28   C     C_R   0.684903 0.681547 0.115355 -0.071476
C29   C     C_R   0.338092 0.664659 0.160201 -0.090939
C30   C     C_R   0.350049 0.353684 0.176237 -0.089226
C31   C     C_R   0.684879 0.683668 0.887771 -0.051411
C32   C     C_R   0.631357 0.367641 0.810284 -0.098960
C33   C     C_R   0.319916 0.320341 0.873720 -0.081408
C34   C     C_R   0.325485 0.417801 0.139074 -0.129857
C35   C     C_R   0.367214 0.628615 0.809123 -0.097511
C36   C     C_R   0.179171 0.817592 0.625982 -0.060927
C37   C     C_R   0.135137 0.133624 0.687904 -0.079403
C38   C     C_R   0.821278 0.179840 0.629525 -0.057474
C39   C     C_R   0.857106 0.860263 0.682709 -0.105627
C40   C     C_R   0.183908 0.184295 0.387812 -0.041816
C41   C     C_R   0.136806 0.861656 0.314163 -0.094937
C42   C     C_R   0.831760 0.830290 0.350753 -0.042726
C43   C     C_R   0.863356 0.138503 0.314213 -0.092628
C44   C     C_2   0.813007 0.743706 0.858001 -0.025257
C45   C     C_R   0.607406 0.695547 0.901234 -0.080133
C46   C     C_2   0.263448 0.636065 0.713687 -0.071360
C47   C     C_2   0.198517 0.247482 0.859635 -0.032547
C48   C     C_2   0.730074 0.361530 0.709532 -0.102662
C49   C     C_2   0.719119 0.196319 0.166953 -0.113219
C50   C     C_2   0.349288 0.293821 0.300443 -0.106248
C51   C     C_2   0.293546 0.794939 0.183472 -0.105819
C52   C     C_2   0.741991 0.803793 0.158637 -0.017803
C53   C     C_2   0.310918 0.244763 0.356230 -0.001626
C54   C     C_2   0.766365 0.143463 0.212140 -0.131725
C55   C     C_2   0.786491 0.835278 0.221626 -0.121179
C56   C     C_R   0.659822 0.428259 0.851826 -0.084427
C57   C     C_2   0.243906 0.849596 0.223913 -0.103779
C58   C     C_2   0.217798 0.686068 0.662639 -0.112188
C59   C     C_2   0.854170 0.794974 0.805613 -0.099790
C60   C     C_2   0.776075 0.310738 0.659584 -0.091475
C61   C     C_2   0.145170 0.206972 0.808264 -0.054580
C62   C     C_2   0.735954 0.747722 0.867746 -0.087646
C63   C     C_2   0.337163 0.651296 0.733514 -0.095534
C64   C     C_2   0.269817 0.266102 0.834857 -0.050647
C65   C     C_2   0.659721 0.341407 0.735516 -0.072403
C66   C     C_2   0.713647 0.269759 0.189023 -0.016370
C67   C     C_R   0.395646 0.306008 0.892832 -0.099104
C68   C     C_2   0.309823 0.321557 0.240672 -0.049061
C69   C     C_2   0.290134 0.720118 0.200421 -0.032934
C70   C     C_2   0.748923 0.729912 0.140955 -0.124682
C71   C     C_2   0.234165 0.248530 0.367175 -0.118494
C72   C     C_2   0.833463 0.167931 0.241796 -0.081668
C73   C     C_2   0.797592 0.793830 0.285226 -0.035154
C74   C     C_2   0.172280 0.829436 0.245362 -0.073257
C75   C     C_2   0.234851 0.760541 0.654710 -0.025394
C76   C     C_2   0.816540 0.830406 0.748728 -0.065935
C77   C     C_2   0.765837 0.234713 0.661549 -0.043429
C78   C     C_R   0.338930 0.570327 0.852607 -0.075472
C79   C     C_2   0.173651 0.156065 0.758686 -0.122977
C80   C     C_R   0.104017 0.804747 0.604497 -0.095132
H1    H     H_    0.571828 0.253148 0.112395 0.230209
H2    H     H_    0.200038 0.030042 0.669990 0.184561
H3    H     H_    0.920953 0.249972 0.600952 0.220615
H4    H     H_    0.788556 0.962289 0.664488 0.153659
H5    H     H_    0.081515 0.251585 0.410802 0.231282
H6    H     H_    0.198540 0.968952 0.328925 0.170736
H7    H     H_    0.930859 0.757000 0.373210 0.229061
H8    H     H_    0.796434 0.035294 0.330747 0.155457
H9    H     H_    0.847579 0.697812 0.879827 0.229425
H10   H     H_    0.230194 0.593848 0.744969 0.172151
H11   H     H_    0.176256 0.268476 0.913604 0.195145
H12   H     H_    0.752724 0.581585 0.092539 0.240308
H13   H     H_    0.760804 0.409597 0.734234 0.173160
H14   H     H_    0.685681 0.174299 0.119065 0.171899
H15   H     H_    0.412289 0.296965 0.301560 0.174380
H16   H     H_    0.336358 0.816880 0.143553 0.181782
H17   H     H_    0.696986 0.840384 0.137643 0.237508
H18   H     H_    0.346930 0.200573 0.379013 0.224795
H19   H     H_    0.739869 0.090177 0.229585 0.166227
H20   H     H_    0.799676 0.896044 0.220797 0.136260
H21   H     H_    0.271093 0.901414 0.244728 0.176639
H22   H     H_    0.162526 0.664071 0.643140 0.167366
H23   H     H_    0.445026 0.728228 0.149990 0.208117
H24   H     H_    0.917220 0.792765 0.805391 0.181767
H25   H     H_    0.825697 0.335185 0.630471 0.167939
H26   H     H_    0.084881 0.224916 0.806084 0.198888
H27   H     H_    0.705709 0.800337 0.853155 0.160094
H28   H     H_    0.371402 0.690682 0.699790 0.160874
H29   H     H_    0.292022 0.244823 0.780538 0.163297
H30   H     H_    0.627657 0.295802 0.707858 0.195203
H31   H     H_    0.743495 0.290017 0.239796 0.210651
H32   H     H_    0.247175 0.318056 0.235916 0.157576
H33   H     H_    0.249052 0.698497 0.241938 0.218014
H34   H     H_    0.279676 0.454412 0.158651 0.196360
H35   H     H_    0.800734 0.699405 0.159915 0.154334
H36   H     H_    0.203487 0.300545 0.351009 0.146218
H37   H     H_    0.859947 0.219457 0.219214 0.216825
H38   H     H_    0.783289 0.733511 0.288746 0.152605
H39   H     H_    0.145623 0.778850 0.220737 0.205956
H40   H     H_    0.288731 0.782528 0.676789 0.214974
H41   H     H_    0.753772 0.833306 0.745822 0.160951
H42   H     H_    0.718390 0.210282 0.693537 0.202691
H43   H     H_    0.231603 0.132649 0.767705 0.159535
H44   H     H_    0.535316 0.888385 0.141948 0.391194
H45   H     H_    0.582142 0.751167 0.908719 0.260252
H46   H     H_    0.109823 0.583268 0.182012 0.397603
H47   H     H_    0.480783 0.133446 0.194430 0.390328
H48   H     H_    0.822618 0.526007 0.219702 0.381894
H49   H     H_    0.504252 0.148172 0.786709 0.407357
H50   H     H_    0.101234 0.420544 0.842569 0.387779
H51   H     H_    0.505669 0.737198 0.730292 0.341796
H52   H     H_    0.891996 0.547745 0.840569 0.391754
H53   H     H_    0.002590 0.356317 0.704411 0.388736
H54   H     H_    0.689753 0.053843 0.713692 0.334241
H55   H     H_    0.002595 0.644995 0.699997 0.386458
H56   H     H_    0.696031 0.472246 0.828526 0.173949
H57   H     H_    0.385303 0.934472 0.686586 0.414493
H58   H     H_    0.026256 0.634139 0.300491 0.391210
H59   H     H_    0.604473 0.911015 0.328744 0.399018
H60   H     H_    0.006469 0.352865 0.301274 0.396236
H61   H     H_    0.391153 0.052962 0.334934 0.390928
H62   H     H_    0.420587 0.249750 0.896509 0.237369
H63   H     H_    0.303051 0.525924 0.829988 0.159149
H64   H     H_    0.078910 0.749511 0.595792 0.223596
N1    N     N_R   0.574080 0.369570 0.076720 -0.094117
N2    N     N_R   0.130430 0.074080 0.576720 -0.068909
N3    N     N_R   0.925920 0.130430 0.576720 -0.098779
N4    N     N_R   0.869570 0.925920 0.576720 -0.063337
N5    N     N_R   0.074080 0.130430 0.423280 -0.103711
N6    N     N_R   0.130430 0.925920 0.423280 -0.062509
N7    N     N_R   0.925920 0.869570 0.423280 -0.091939
N8    N     N_R   0.869570 0.074080 0.423280 -0.065950
N9    N     N_R   0.574050 0.630410 0.076720 -0.121255
N10   N     N_R   0.369590 0.574050 0.076720 -0.112537
N11   N     N_R   0.425950 0.369590 0.076720 -0.113036
N12   N     N_R   0.630430 0.574080 0.076720 -0.094050
N13   N     N_R   0.630410 0.425950 0.076720 -0.112620
N14   N     N_R   0.574050 0.369590 0.923280 -0.108505
N15   N     N_R   0.369590 0.425950 0.923280 -0.128978
N16   N     N_R   0.425950 0.630410 0.923280 -0.090895
N17   N     N_R   0.630410 0.574050 0.923280 -0.132886
N18   N     N_R   0.074050 0.130410 0.576720 -0.113269
N19   N     N_R   0.869590 0.074050 0.576720 -0.109091
N20   N     N_R   0.925950 0.869590 0.576720 -0.109010
N21   N     N_R   0.130410 0.925950 0.576720 -0.123185
N22   N     N_R   0.074050 0.869590 0.423280 -0.110440
N23   N     N_R   0.425920 0.630430 0.076720 -0.066921
N24   N     N_R   0.869590 0.925950 0.423280 -0.116301
N25   N     N_R   0.925950 0.130410 0.423280 -0.111125
N26   N     N_R   0.130410 0.074050 0.423280 -0.128065
N27   N     N_R   0.369570 0.425920 0.076720 -0.077804
N28   N     N_R   0.574080 0.630430 0.923280 -0.110652
N29   N     N_R   0.630430 0.425920 0.923280 -0.060422
N30   N     N_R   0.425920 0.369570 0.923280 -0.102610
N31   N     N_R   0.369570 0.574080 0.923280 -0.059097
N32   N     N_R   0.074080 0.869570 0.576720 -0.103076
Ni1   Ni    Ni4+2 0.500000 0.370760 0.000000 0.288785
Ni2   Ni    Ni4+2 0.629240 0.500000 0.000000 0.304175
Ni3   Ni    Ni4+2 0.500000 0.629240 0.000000 0.306407
Ni4   Ni    Ni4+2 0.370760 0.500000 0.000000 0.330605
Ni5   Ni    Ni4+2 1.000000 0.870760 0.500000 0.293358
Ni6   Ni    Ni4+2 0.129240 0.000000 0.500000 0.324394
Ni7   Ni    Ni4+2 1.000000 0.129240 0.500000 0.281841
Ni8   Ni    Ni4+2 0.870760 0.000000 0.500000 0.328608
O1    O     O_2   0.623198 0.830263 0.024671 -0.316169
O2    O     O_2   0.834464 0.376498 0.176763 -0.251266
O3    O     O_2   0.820045 0.468390 0.074970 -0.210169
O4    O     O_3   0.769919 0.505108 0.211572 -0.552396
O5    O     O_2   0.648602 0.193748 0.830562 -0.281503
O6    O     O_2   0.549178 0.197018 0.930057 -0.252813
O7    O     O_3   0.505327 0.204819 0.786668 -0.545701
O8    O     O_2   0.170572 0.390719 0.974253 -0.257963
O9    O     O_2   0.204881 0.515507 0.922750 -0.231532
O10   O     O_3   0.156239 0.412768 0.827714 -0.520183
O11   O     O_2   0.374775 0.801855 0.793637 -0.258515
O12   O     O_2   0.492463 0.780374 0.037480 -0.286320
O13   O     O_2   0.457282 0.811695 0.904091 -0.166218
O14   O     O_3   0.519796 0.768779 0.775327 -0.524872
O15   O     O_2   0.836079 0.603049 0.974303 -0.300575
O16   O     O_2   0.784531 0.479753 0.934851 -0.257136
O17   O     O_3   0.839095 0.567118 0.829148 -0.534009
O18   O     O_2   0.148616 0.308723 0.665419 -0.239851
O19   O     O_2   0.050772 0.301999 0.564467 -0.267452
O20   O     O_3   0.004395 0.299730 0.706905 -0.584459
O21   O     O_2   0.670852 0.127378 0.535234 -0.182938
O22   O     O_2   0.704097 0.994434 0.563636 -0.205641
O23   O     O_3   0.555802 0.838012 0.158566 -0.554588
O24   O     O_3   0.657484 0.080800 0.675165 -0.471860
O25   O     O_2   0.853738 0.685658 0.662192 -0.230835
O26   O     O_2   0.950696 0.696500 0.560992 -0.248806
O27   O     O_3   0.997081 0.701325 0.703605 -0.581731
O28   O     O_2   0.339083 0.876714 0.551635 -0.222640
O29   O     O_2   0.297014 0.008267 0.577831 -0.210678
O30   O     O_3   0.329598 0.922212 0.692947 -0.512474
O31   O     O_2   0.162859 0.691897 0.363484 -0.261865
O32   O     O_2   0.044229 0.698472 0.439599 -0.260343
O33   O     O_3   0.031651 0.689635 0.290637 -0.568584
O34   O     O_2   0.179395 0.648081 0.059930 -0.235048
O35   O     O_2   0.678884 0.872853 0.458421 -0.201462
O36   O     O_2   0.696757 0.005035 0.416106 -0.225261
O37   O     O_3   0.659752 0.903732 0.314667 -0.537043
O38   O     O_2   0.856706 0.314004 0.338121 -0.248316
O39   O     O_2   0.953229 0.301305 0.439386 -0.271903
O40   O     O_3   0.000283 0.296744 0.296706 -0.545796
O41   O     O_2   0.337334 0.105750 0.469926 -0.237633
O42   O     O_2   0.287969 0.981202 0.431798 -0.232235
O43   O     O_3   0.337214 0.070089 0.324752 -0.550429
O44   O     O_2   0.194903 0.509551 0.070709 -0.206878
O45   O     O_3   0.165859 0.586173 0.194319 -0.535847
O46   O     O_2   0.342829 0.183067 0.137015 -0.241029
O47   O     O_2   0.454708 0.197584 0.052380 -0.267110
O48   O     O_3   0.478656 0.189811 0.200106 -0.567062
S1    S     S_3+6 0.568905 0.788019 0.076957 -0.082857
S2    S     S_3+6 0.708105 0.074923 0.592818 0.025584
S3    S     S_3+6 0.927996 0.724208 0.639333 -0.030956
S4    S     S_3+6 0.292001 0.927109 0.604174 0.003208
S5    S     S_3+6 0.081571 0.723447 0.366197 -0.043993
S6    S     S_3+6 0.709649 0.922630 0.395290 0.009829
S7    S     S_3+6 0.930926 0.274472 0.360649 -0.030255
S8    S     S_3+6 0.291519 0.063911 0.409825 -0.023226
S9    S     S_3+6 0.211054 0.584440 0.108839 -0.004897
S10   S     S_3+6 0.420879 0.220127 0.128447 -0.038121
S11   S     S_3+6 0.781172 0.436636 0.144501 -0.013571
S12   S     S_3+6 0.571770 0.228223 0.853211 -0.035133
S13   S     S_3+6 0.207556 0.431017 0.907677 -0.019687
S14   S     S_3+6 0.442274 0.765073 0.833884 -0.003987
S15   S     S_3+6 0.790959 0.562261 0.912988 -0.056988
S16   S     S_3+6 0.072566 0.273544 0.642743 -0.043300

loop_
_geom_bond_atom_site_label_1
_geom_bond_atom_site_label_2
_ccdc_geom_bond_type
H61   O43   S    
H55   O27   S    
N9    Ni3   S    
C3    N3    A    
C43   C72   S    
O17   S15   S    
C40   C71   S    
N10   Ni4   S    
H57   O30   S    
C16   N16   A    
C24   C42   A    
C52   H17   S    
O1    S1    D    
C10   C29   A    
C8    C43   A    
N15   Ni4   S    
C10   S9    S    
C10   N10   A    
C5    N5    A    
N6    Ni6   S    
C21   C36   A    
N21   N32   A    
O6    S12   D    
C74   H39   S    
C37   C79   S    
C69   H33   S    
H52   O17   S    
C12   C28   A    
N11   N27   A    
O48   S10   S    
C59   H24   S    
C23   C29   A    
O35   S6    D    
O21   S2    D    
C24   N24   A    
C18   C37   A    
C61   C79   D    
C16   C35   A    
O2    S11   D    
C53   H18   S    
C50   H15   S    
C7    C42   A    
C22   C41   A    
O12   S1    D    
C25   S7    S    
C67   N30   A    
C1    H1    S    
N7    N24   A    
N6    N22   A    
O38   S7    D    
C21   N21   A    
C20   N20   A    
C68   H32   S    
O34   S9    D    
N25   Ni7   S    
N20   Ni5   S    
C56   H56   S    
C41   C74   S    
N17   N28   A    
C1    N1    A    
C7    H7    S    
O19   S16   D    
C15   S13   S    
C3    C38   A    
C45   H45   S    
N24   Ni8   S    
C6    C41   A    
C55   H20   S    
C23   N23   A    
N7    Ni5   S    
O31   S5    D    
C49   H14   S    
N8    Ni8   S    
O29   S4    D    
C49   C54   S    
C28   C70   S    
C52   C55   S    
O15   S15   D    
C51   H16   S    
C22   S5    S    
C5    H5    S    
H59   O37   S    
H53   O20   S    
C9    N9    A    
C57   H21   S    
H48   O4    S    
N26   Ni6   S    
C32   C56   A    
N2    N18   A    
C31   C62   S    
O36   S6    D    
N22   Ni5   S    
N12   Ni2   S    
C12   N12   A    
O16   S15   D    
C13   N13   A    
O28   S4    D    
C11   N11   A    
C58   C75   D    
C48   C60   S    
C29   C69   S    
N32   Ni5   S    
C65   H30   S    
O11   S14   D    
C23   H23   S    
C60   C77   D    
C50   C53   S    
O42   S8    D    
C49   C66   D    
C30   C34   A    
C9    S1    S    
N5    N26   A    
N4    N20   A    
C44   H9    S    
O47   S10   D    
C80   N32   A    
O3    S11   D    
C36   C80   A    
C47   C64   D    
C20   C39   A    
N2    Ni6   S    
H60   O40   S    
C62   H27   S    
C80   H64   S    
C39   C76   S    
C79   H43   S    
C19   S2    S    
N15   N30   A    
O8    S13   D    
O44   S9    D    
C8    H8    S    
C55   C73   D    
C57   C74   D    
C72   H37   S    
O25   S3    D    
N16   Ni3   S    
C15   N15   A    
O13   S14   D    
O46   S10   D    
C36   C75   S    
C26   S8    S    
O45   S9    S    
N21   Ni6   S    
N14   N29   A    
H54   O24   S    
C4    H4    S    
C4    C39   A    
N4    Ni8   S    
C20   S3    S    
H51   O14   S    
O5    S12   D    
C19   N19   A    
O26   S3    D    
N9    N12   A    
N17   Ni2   S    
C61   H26   S    
N30   Ni1   S    
O20   S16   S    
C17   N17   A    
H58   O33   S    
C14   S12   S    
N28   Ni3   S    
N14   Ni1   S    
C21   S4    S    
C59   C76   D    
C14   N14   A    
N23   Ni3   S    
C16   S14   S    
H44   O23   S    
C76   H41   S    
C78   N31   A    
C48   C65   D    
N16   N31   A    
C7    N7    A    
N27   Ni4   S    
C2    H2    S    
C2    N2    A    
O7    S12   S    
C66   H31   S    
N1    Ni1   S    
C53   C71   D    
C45   N28   A    
O33   S5    S    
C24   S6    S    
C33   C67   A    
C1    C27   A    
N3    Ni7   S    
O41   S8    D    
C42   C73   S    
O9    S13   D    
C73   H38   S    
C8    N8    A    
N19   Ni8   S    
C77   H42   S    
C47   H11   S    
C12   H12   S    
O30   S4    S    
C75   H40   S    
N10   N23   A    
C14   C32   A    
H50   O10   S    
C47   C61   S    
C35   C63   S    
N31   Ni4   S    
C46   H10   S    
C38   C77   S    
C25   C43   A    
C70   H35   S    
C34   H34   S    
O18   S16   D    
N1    N13   A    
C56   N29   A    
C35   C78   A    
C6    N6    A    
C6    H6    S    
O37   S6    S    
O22   S2    D    
C44   C62   D    
C67   H62   S    
C25   N25   A    
N18   Ni7   S    
C44   C59   S    
C27   C66   S    
O39   S7    D    
C78   H63   S    
C11   C30   A    
C3    H3    S    
N8    N25   A    
C18   N18   A    
C2    C37   A    
C26   C40   A    
C64   H29   S    
C13   S11   S    
C46   C63   D    
N29   Ni2   S    
O14   S14   S    
C33   C64   S    
C17   C31   A    
C58   H22   S    
H49   O7    S    
H47   O48   S    
O10   S13   S    
O27   S3    S    
C71   H36   S    
N13   Ni2   S    
O23   S1    S    
C54   H19   S    
O40   S7    S    
C48   H13   S    
C52   C70   D    
C34   N27   A    
C22   N22   A    
C18   S16   S    
C51   C57   S    
C19   C38   A    
C54   C72   D    
C26   N26   A    
C31   C45   A    
C46   C58   S    
O43   S8    S    
N5    Ni7   S    
C11   S10   S    
C17   S15   S    
H46   O45   S    
C13   C27   A    
O4    S11   S    
N3    N19   A    
C51   C69   D    
C63   H28   S    
C5    C40   A    
O24   S2    S    
C50   C68   D    
O32   S5    D    
C15   C33   A    
C30   C68   S    
C60   H25   S    
N11   Ni1   S    
C9    C28   A    
C32   C65   S    
C4    N4    A    
