data_mof_unit_57393.cif
_audit_creation_date              2012-10-26T21:12:34-0400
_audit_creation_method            fapswitch 2.2
_symmetry_space_group_name_H-M    P1
_symmetry_Int_Tables_number       1
_space_group_crystal_system       triclinic
_cell_length_a                    23.505974
_cell_length_b                    10.774225
_cell_length_c                    9.601451
_cell_angle_alpha                 90.029425
_cell_angle_beta                  90.09622
_cell_angle_gamma                 92.69058
_cell_volume                      2428.96605574

loop_
_atom_site_label
_atom_site_type_symbol
_atom_type_description
_atom_site_fract_x
_atom_site_fract_y
_atom_site_fract_z
_atom_type_partial_charge
C1    C     C_R   0.498081 0.262578 0.500003 0.549520
C2    C     C_R   0.121982 0.611340 0.524160 0.400699
C3    C     C_R   0.238577 0.487758 0.373885 -0.055775
C4    C     C_R   0.391004 0.499825 0.499929 0.534564
C5    C     C_R   0.297873 0.487123 0.374071 -0.139550
C6    C     C_R   0.328381 0.500649 0.499655 0.000915
C7    C     C_R   0.298479 0.515281 0.624852 -0.156767
C8    C     C_R   0.239176 0.516367 0.624272 -0.059732
C9    C     C_R   0.209055 0.502398 0.498879 0.243245
C10   C     C_R   0.760616 0.442275 0.606271 -0.046391
C11   C     C_R   0.700931 0.441587 0.609887 0.243033
C12   C     C_R   0.965450 0.282217 0.443482 -0.124063
C13   C     C_R   0.671435 0.499017 0.501025 0.015742
C14   C     C_R   0.702162 0.558836 0.393039 -0.209938
C15   C     C_R   0.761451 0.561283 0.392296 -0.081414
C16   C     C_R   0.498340 0.737099 0.500037 0.524374
C17   C     C_R   0.790827 0.502766 0.498581 0.197857
C18   C     C_R   0.407214 0.119954 0.645056 -0.107634
C19   C     C_R   0.364841 0.050636 0.715726 -0.112236
C20   C     C_R   0.364909 0.921556 0.715835 -0.107220
C21   C     C_R   0.407371 0.860985 0.645354 -0.096042
C22   C     C_R   0.451378 0.929354 0.574850 0.029946
C23   C     C_R   0.024802 0.282096 0.443913 -0.123827
C24   C     C_R   0.451292 0.060631 0.574721 0.024086
C25   C     C_R   0.494254 0.128388 0.499862 0.005940
C26   C     C_R   0.534577 0.067617 0.421983 -0.137184
C27   C     C_R   0.534666 0.939595 0.422086 -0.148917
C28   C     C_R   0.608889 0.499104 0.500218 0.565819
C29   C     C_R   0.494426 0.870480 0.500057 0.008263
C30   C     C_R   0.575546 0.665838 0.144241 -0.094989
C31   C     C_R   0.612497 0.746860 0.072275 -0.180450
C32   C     C_R   0.612344 0.747249 0.928775 -0.172527
C33   C     C_R   0.575241 0.666605 0.856350 -0.095078
C34   C     C_R   0.057499 0.392095 0.470523 0.029001
C35   C     C_R   0.536866 0.582094 0.925370 0.145681
C36   C     C_R   0.537000 0.581751 0.074913 0.155481
C37   C     C_R   0.464785 0.422160 0.073686 -0.002406
C38   C     C_R   0.464837 0.422109 0.925812 -0.000574
C39   C     C_R   0.882651 0.611925 0.521920 0.401330
C40   C     C_R   0.877933 0.394654 0.470097 0.400124
C41   C     C_R   0.937557 0.392343 0.469630 0.028639
C42   C     C_R   0.969925 0.503221 0.496169 -0.028559
C43   C     C_R   0.942387 0.614209 0.522287 0.028669
C44   C     C_3   0.680031 0.426013 0.844191 0.015230
C45   C     C_R   0.029972 0.503063 0.496793 -0.028342
C46   C     C_3   0.702328 0.328395 0.943240 -0.266280
C47   C     C_3   0.707440 0.378463 0.091698 -0.468131
C48   C     C_R   0.062348 0.613835 0.523845 0.028977
C49   C     C_R   0.034450 0.724043 0.549558 -0.122994
C50   C     C_R   0.975090 0.724236 0.548745 -0.124465
C51   C     C_R   0.117220 0.394151 0.471923 0.399836
Cu1   Cu    Cu3+1 0.500000 0.499990 0.640660 0.931314
Cu2   Cu    Cu3+1 0.500000 0.500010 0.359340 0.924158
H1    H     H_    0.941541 0.195770 0.422771 0.169533
H2    H     H_    0.435899 0.358354 0.128678 0.117987
H3    H     H_    0.044935 0.195566 0.423473 0.168402
H4    H     H_    0.579281 0.673269 0.253997 0.175972
H5    H     H_    0.641535 0.809766 0.128635 0.122333
H6    H     H_    0.641351 0.810277 0.872811 0.133917
H7    H     H_    0.579172 0.673647 0.746585 0.183772
H8    H     H_    0.436001 0.358226 0.870468 0.110745
H9    H     H_    0.058360 0.810453 0.570453 0.170388
H10   H     H_    0.954955 0.810780 0.569090 0.167698
H11   H     H_    0.215490 0.477133 0.276594 0.129163
H12   H     H_    0.680326 0.604546 0.309526 0.119368
H13   H     H_    0.319735 0.475558 0.276054 0.128710
H14   H     H_    0.320842 0.526318 0.723109 0.124893
H15   H     H_    0.216543 0.527556 0.721271 0.129112
H16   H     H_    0.783579 0.394963 0.686683 0.130097
H17   H     H_    0.638192 0.453948 0.883436 0.171937
H18   H     H_    0.709259 0.510927 0.846597 0.113352
H19   H     H_    0.672721 0.244819 0.942637 0.186294
H20   H     H_    0.744805 0.300475 0.907479 0.170350
H21   H     H_    0.737432 0.461210 0.095062 0.152649
H22   H     H_    0.723850 0.305984 0.161280 0.179152
H23   H     H_    0.784633 0.607696 0.308376 0.140095
H24   H     H_    0.665114 0.404511 0.130568 0.162727
H25   H     H_    0.566986 0.119823 0.363308 0.135428
H26   H     H_    0.404227 0.219749 0.644030 0.126649
H27   H     H_    0.331367 0.097273 0.769048 0.124379
H28   H     H_    0.331481 0.868002 0.769210 0.128711
H29   H     H_    0.404505 0.760623 0.644726 0.144315
H30   H     H_    0.567149 0.894187 0.363495 0.112868
N1    N     N_R   0.851825 0.503228 0.496384 -0.396570
N2    N     N_R   0.148064 0.502637 0.498443 -0.399669
N3    N     N_R   0.500540 0.501210 0.147910 -0.242315
N4    N     N_R   0.500560 0.501290 0.852040 -0.243261
O1    O     O_R   0.500000 0.319640 0.618810 -0.490227
O2    O     O_R   0.582120 0.500020 0.618760 -0.482447
O3    O     O_R   0.582120 0.500050 0.381190 -0.531782
O4    O     O_2   0.855536 0.717083 0.548103 -0.496776
O5    O     O_3   0.671163 0.373030 0.710329 -0.548992
O6    O     O_2   0.846246 0.289524 0.443811 -0.496806
O7    O     O_2   0.144306 0.288541 0.447971 -0.492187
O8    O     O_2   0.153699 0.716718 0.548942 -0.492379
O9    O     O_R   0.500000 0.319660 0.381240 -0.499528
O10   O     O_R   0.417880 0.499950 0.618810 -0.520110
O11   O     O_R   0.417880 0.499980 0.381240 -0.497760
O12   O     O_R   0.500000 0.680340 0.618760 -0.528621
O13   O     O_R   0.500000 0.680360 0.381190 -0.512525

loop_
_geom_bond_atom_site_label_1
_geom_bond_atom_site_label_2
_ccdc_geom_bond_type
C8    C9    A    
C22   C29   A    
C4    O11   A    
C27   C29   A    
C41   C42   A    
C40   N1    A    
C19   C20   A    
C40   O6    S    
C51   N2    A    
C7    C8    A    
C3    H11   S    
C12   C23   A    
C34   C51   A    
C26   H25   S    
C2    N2    A    
C18   C24   A    
C31   H5    S    
C21   C22   A    
C2    O8    S    
C39   N1    A    
C30   C31   A    
C10   C17   A    
C30   H4    S    
Cu1   O10   S    
C44   H18   S    
C18   C19   A    
C20   H28   S    
C9    N2    S    
C35   N4    A    
C11   O5    S    
C35   C36   A    
C18   H26   S    
C13   C28   S    
C44   H17   S    
Cu2   N3    S    
C46   H19   S    
C44   O5    S    
C38   H8    S    
C1    O1    A    
C15   H23   S    
C4    O10   A    
Cu2   O9    S    
C1    C25   S    
C50   H10   S    
Cu1   O2    S    
C39   O4    S    
C44   C46   S    
Cu2   O13   S    
C37   N3    A    
Cu1   O1    S    
C24   C25   A    
C4    C6    S    
C16   O13   A    
C39   C43   A    
C2    C48   A    
C25   C26   A    
C42   C45   A    
C37   C38   A    
C3    C9    A    
C31   C32   A    
C23   C34   A    
C26   C27   A    
C16   O12   A    
C34   C45   A    
C21   H29   S    
C23   H3    S    
C28   O2    A    
C48   C49   A    
C8    H15   S    
C33   H7    S    
C22   C24   A    
C42   C43   A    
C47   H24   S    
Cu1   Cu2   S    
C12   C41   A    
C45   C48   A    
C15   C17   A    
C46   C47   S    
C40   C41   A    
C49   H9    S    
Cu1   N4    S    
C47   H21   S    
C5    H13   S    
C3    C5    A    
C43   C50   A    
C6    C7    A    
Cu2   O11   S    
Cu1   O12   S    
C30   C36   A    
C38   N4    A    
C17   N1    S    
C36   N3    A    
C32   C33   A    
C27   H30   S    
C16   C29   S    
C47   H22   S    
C11   C13   A    
C5    C6    A    
C1    O9    A    
C33   C35   A    
C14   H12   S    
C19   H27   S    
C10   C11   A    
C51   O7    S    
C7    H14   S    
C37   H2    S    
C10   H16   S    
C20   C21   A    
C49   C50   A    
Cu2   O3    S    
C14   C15   A    
C28   O3    A    
C32   H6    S    
C13   C14   A    
C46   H20   S    
C12   H1    S    
