data_mof_unit_15446.cif
_audit_creation_date              2012-12-11T14:17:41-0500
_audit_creation_method            fapswitch 2.2
_symmetry_space_group_name_H-M    P1
_symmetry_Int_Tables_number       1
_space_group_crystal_system       triclinic
_cell_length_a                    6.951347
_cell_length_b                    13.63538
_cell_length_c                    20.422287
_cell_angle_alpha                 102.054022
_cell_angle_beta                  89.789027
_cell_angle_gamma                 90.774229
_cell_volume                      1892.85751677

loop_
_atom_site_label
_atom_site_type_symbol
_atom_type_description
_atom_site_fract_x
_atom_site_fract_y
_atom_site_fract_z
_atom_type_partial_charge
O1    O     O_R   0.506860 0.599390 0.449240 -0.532853
O2    O     O_R   0.180220 0.594600 0.586780 -0.543823
O3    O     O_R   0.004500 0.400610 0.550760 -0.542138
C1    C     C_R   0.348986 0.616102 0.613424 0.738479
O4    O     O_R   0.177490 0.611290 0.451970 -0.536123
O5    O     O_R   0.001750 0.417420 0.414990 -0.543253
C2    C     C_R   0.347477 0.637802 0.435152 0.723297
O6    O     O_R   0.509610 0.582580 0.585010 -0.544678
O7    O     O_3   0.337420 0.436370 0.488020 -0.372770
V1    V     V_3+5 0.064680 0.511800 0.502220 1.472213
O8    O     O_R   0.671710 0.405400 0.413220 -0.530318
C3    C     C_R   0.839782 0.387217 0.386014 0.721406
O9    O     O_R   0.674440 0.388710 0.548030 -0.544179
C4    C     C_R   0.842363 0.362005 0.564748 0.697013
V2    V     V_3+5 0.564010 0.488200 0.497780 1.479176
O10   O     O_3   0.841140 0.563630 0.511980 -0.369536
C5    C     C_R   0.854178 0.109475 0.610875 0.165286
H1    H     H_    0.846504 0.162393 0.518914 0.130672
H2    H     H_    0.862141 0.983973 0.697148 0.161467
C6    C     C_R   0.848587 0.284543 0.604503 -0.070273
C7    C     C_R   0.864494 0.314971 0.927921 -0.247270
C8    C     C_R   0.861034 0.390861 0.891989 0.680269
C9    C     C_R   0.857900 0.367660 0.822203 -0.252118
C10   C     C_R   0.858328 0.266702 0.786172 0.006263
C11   C     C_R   0.861670 0.189398 0.823535 0.063862
C12   C     C_R   0.855888 0.240032 0.714525 0.084213
C13   C     C_R   0.857061 0.136739 0.681720 0.096319
C14   C     C_R   0.860917 0.062881 0.720147 -0.165860
C15   C     C_R   0.863106 0.088561 0.789527 -0.173696
C16   C     C_R   0.852168 0.312660 0.674212 -0.212961
C17   C     C_R   0.849349 0.183578 0.573083 -0.183933
C18   C     C_R   0.864464 0.214603 0.894491 -0.166302
H3    H     H_    0.851053 0.391989 0.695091 0.103643
H4    H     H_    0.867351 0.334470 0.982155 0.147492
H5    H     H_    0.855539 0.430798 0.798237 0.141452
H6    H     H_    0.866099 0.028013 0.816385 0.108651
C19   C     C_2   0.972275 0.259818 0.295735 -0.197512
C20   C     C_2   0.846145 0.334554 0.315488 0.015752
H7    H     H_    0.064599 0.239087 0.333373 0.134662
C21   C     C_2   0.006238 0.206620 0.225594 0.221632
C22   C     C_2   0.858946 0.173476 0.183457 -0.310002
H8    H     H_    0.714753 0.187014 0.202682 0.180148
C23   C     C_2   0.205164 0.791269 0.782227 -0.121714
C24   C     C_2   0.363897 0.815951 0.819872 -0.287613
H9    H     H_    0.067687 0.821604 0.801565 0.132260
H10   H     H_    0.502224 0.786058 0.801787 0.131799
C25   C     C_2   0.203302 0.722899 0.714715 -0.112780
C26   C     C_2   0.361026 0.684385 0.680132 -0.291720
H11   H     H_    0.062193 0.704374 0.692563 0.139404
H12   H     H_    0.503991 0.702554 0.700262 0.128639
C27   C     C_R   0.460835 0.881036 0.384699 -0.124119
H13   H     H_    0.453540 0.831489 0.477663 0.145449
H14   H     H_    0.523548 0.000593 0.299757 0.142123
H15   H     H_    0.511013 0.955559 0.408437 0.136741
C28   C     C_R   0.362826 0.714459 0.394969 -0.050231
C29   C     C_R   0.287960 0.688778 0.072835 -0.135357
C30   C     C_R   0.256785 0.614644 0.109253 -0.067117
C31   C     C_R   0.283856 0.635339 0.178366 -0.135979
C32   C     C_R   0.345201 0.731724 0.213050 0.073773
C33   C     C_R   0.382891 0.806499 0.174960 0.061298
C34   C     C_R   0.369205 0.756637 0.284147 0.076499
C35   C     C_R   0.433773 0.854802 0.315114 0.119837
C36   C     C_R   0.473058 0.925894 0.276505 -0.179251
C37   C     C_R   0.448297 0.902233 0.207620 -0.174786
C38   C     C_R   0.332580 0.687556 0.325819 -0.187415
C39   C     C_R   0.427231 0.810937 0.424261 -0.126100
C40   C     C_R   0.351227 0.784417 0.104857 -0.094343
H16   H     H_    0.285334 0.611538 0.306219 0.121456
H17   H     H_    0.261412 0.671728 0.019369 0.137503
H18   H     H_    0.254945 0.574153 0.202974 0.141042
H19   H     H_    0.208617 0.540672 0.083817 0.152009
H20   H     H_    0.481834 0.959884 0.180032 0.146607
O11   O     O_R   0.203230 0.917310 0.915020 -0.543630
O12   O     O_R   0.535500 0.888690 0.048040 -0.541214
O13   O     O_R   0.711080 0.082610 0.085000 -0.536403
C41   C     C_R   0.365679 0.862188 0.064991 0.702105
O14   O     O_R   0.532630 0.905370 0.913230 -0.549259
O15   O     O_R   0.708190 0.099410 0.949230 -0.539783
C42   C     C_R   0.364472 0.884302 0.886506 0.735950
O16   O     O_R   0.206120 0.900510 0.050790 -0.535844
O17   O     O_3   0.375360 0.063570 0.011990 -0.358046
V3    V     V_3+5 0.648170 0.988200 0.997780 1.471259
O18   O     O_R   0.038240 0.111390 0.951940 -0.542173
C43   C     C_R   0.870390 0.137517 0.934837 0.720838
O19   O     O_R   0.041120 0.094710 0.086750 -0.520235
C44   C     C_R   0.873074 0.113014 0.114356 0.777883
V4    V     V_3+5 0.148810 0.011930 0.002180 1.494206
O20   O     O_3   0.871750 0.936430 0.988010 -0.378567
I1    I     I_    0.683859 0.402519 0.248876 -0.398653
I2    I     I_    0.298024 0.171849 0.203852 -0.418427
I3    I     I_    0.856899 0.958500 0.555819 -0.487270
F1    F     F_    0.861107 0.488092 0.925066 -0.684422

loop_
_geom_bond_atom_site_label_1
_geom_bond_atom_site_label_2
_ccdc_geom_bond_type
O18   V4    S    
V4    O20   S    
C22   H8    S    
C5    I3    S    
C2    C28   S    
C1    O6    A    
O17   V3    S    
C25   H11   S    
C6    C16   A    
O19   C44   A    
C22   C44   S    
C15   H6    S    
C12   C13   A    
C35   C36   A    
O12   C41   A    
C14   C15   A    
C10   C12   A    
O16   V4    S    
O5    C3    A    
V2    O10   S    
C29   C30   A    
O11   V4    S    
O8    V2    S    
O18   C43   A    
C33   C40   A    
C9    C10   A    
O1    V2    S    
O7    V1    S    
C11   C18   A    
C26   H12   S    
C32   C33   A    
O9    C4    A    
C27   C35   A    
O12   V3    S    
C28   C38   A    
C24   H10   S    
O14   C42   A    
C11   C15   A    
C18   C43   S    
C7    C18   A    
C32   C34   A    
O19   V4    S    
C5    C13   A    
C4    C6    S    
C10   C11   A    
O4    C2    A    
C31   H18   S    
C7    H4    S    
C31   C32   A    
C27   C39   A    
O2    C1    A    
C23   C24   D    
C19   C20   D    
C34   C38   A    
O15   V3    S    
O13   C44   A    
C25   C26   D    
C20   I1    S    
C38   H16   S    
O11   C42   A    
C30   H19   S    
H2    C14   S    
C23   H9    S    
O17   V4    S    
O3    C4    A    
C21   C22   D    
C12   C16   A    
O6    V2    S    
C9    H5    S    
O9    V2    S    
C5    C17   A    
O2    V1    S    
C28   C39   A    
H13   C39   S    
C1    C26   S    
C16   H3    S    
O1    C2    A    
C24   C42   S    
C41   O16   A    
O5    V1    S    
O8    C3    A    
O13   V3    S    
H1    C17   S    
C19   C21   S    
C29   C40   A    
C33   C37   A    
C27   H15   S    
O7    V2    S    
O4    V1    S    
C19   H7    S    
O3    V1    S    
V1    O10   S    
H14   C36   S    
C30   C31   A    
O14   V3    S    
V3    O20   S    
C37   H20   S    
C3    C20   S    
C34   C35   A    
C36   C37   A    
O15   C43   A    
C29   H17   S    
C13   C14   A    
C8    F1    S    
C8    C9    A    
C40   C41   S    
C21   I2    S    
C7    C8    A    
C23   C25   S    
C6    C17   A    
