data_mof_unit_30846.cif
_audit_creation_date              2012-12-10T19:05:56-0500
_audit_creation_method            fapswitch 2.2
_symmetry_space_group_name_H-M    P1
_symmetry_Int_Tables_number       1
_space_group_crystal_system       triclinic
_cell_length_a                    19.306816
_cell_length_b                    10.858226
_cell_length_c                    9.578749
_cell_angle_alpha                 89.560277
_cell_angle_beta                  89.15402
_cell_angle_gamma                 91.133622
_cell_volume                      2007.39197836

loop_
_atom_site_label
_atom_site_type_symbol
_atom_type_description
_atom_site_fract_x
_atom_site_fract_y
_atom_site_fract_z
_atom_type_partial_charge
C1    C     C_R   0.499736 0.262839 0.500204 0.832138
C2    C     C_R   0.292112 0.489025 0.500588 -0.104857
C3    C     C_R   0.930945 0.500983 0.495633 0.404560
C4    C     C_R   0.070993 0.489157 0.495558 0.410300
C5    C     C_R   0.817201 0.505021 0.622858 -0.159736
C6    C     C_R   0.745057 0.504382 0.623646 -0.189404
C7    C     C_R   0.708829 0.502376 0.497621 -0.028685
C8    C     C_R   0.746104 0.501962 0.370679 -0.192755
C9    C     C_R   0.818338 0.502446 0.369889 -0.158627
C10   C     C_R   0.854606 0.503533 0.496029 0.060388
C11   C     C_R   0.479992 0.060767 0.614285 0.101992
C12   C     C_R   0.367761 0.497324 0.500654 0.852109
C13   C     C_R   0.501221 0.130322 0.499166 -0.070683
C14   C     C_R   0.524286 0.066532 0.379944 -0.194371
C15   C     C_R   0.524281 0.937193 0.379919 -0.205043
C16   C     C_R   0.501107 0.869943 0.498878 -0.106542
C17   C     C_R   0.479818 0.936543 0.614590 0.081893
C18   C     C_3   0.445963 0.927299 0.756035 -0.105611
C19   C     C_3   0.445199 0.069405 0.753202 -0.508528
C20   C     C_R   0.555597 0.545834 0.071010 0.245373
C21   C     C_R   0.449927 0.440027 0.079009 -0.085999
C22   C     C_R   0.449351 0.437864 0.930912 0.151466
C23   C     C_R   0.499837 0.737203 0.499680 0.793013
C24   C     C_R   0.555962 0.544736 0.924267 0.233317
C25   C     C_3   0.587993 0.670257 0.914836 -0.495501
C26   C     C_3   0.585908 0.673031 0.073582 -0.505707
C27   C     C_R   0.632595 0.500784 0.499117 0.780570
C28   C     C_R   0.254484 0.573407 0.578437 -0.269739
C29   C     C_R   0.182644 0.569946 0.577382 -0.176090
C30   C     C_R   0.146923 0.483452 0.496249 -0.014207
C31   C     C_R   0.184178 0.395154 0.418090 0.038905
C32   C     C_R   0.257404 0.398187 0.421963 0.313474
Cu1   Cu    Cu3+1 0.500000 0.499980 0.640670 0.928518
Cu2   Cu    Cu3+1 0.500000 0.500020 0.359330 0.960983
H1    H     H_    0.280900 0.643634 0.638269 0.150197
H2    H     H_    0.542500 0.890642 0.287518 0.151219
H3    H     H_    0.480709 0.890515 0.836688 0.154459
H4    H     H_    0.392684 0.108647 0.744688 0.199559
H5    H     H_    0.479298 0.112869 0.832099 0.186764
H6    H     H_    0.409922 0.391846 0.139175 0.201424
H7    H     H_    0.641497 0.668733 0.870518 0.192094
H8    H     H_    0.553785 0.737795 0.865449 0.209420
H9    H     H_    0.638178 0.675936 0.120681 0.193190
H10   H     H_    0.154705 0.637497 0.637590 0.162134
H11   H     H_    0.548858 0.740868 0.115350 0.206196
H12   H     H_    0.843545 0.505896 0.721868 0.151768
H13   H     H_    0.717744 0.505037 0.723207 0.146463
H14   H     H_    0.719542 0.500790 0.271869 0.146282
H15   H     H_    0.845649 0.501429 0.270373 0.151589
H16   H     H_    0.542246 0.115957 0.287222 0.159868
N1    N     N_R   0.036174 0.489469 0.373657 -0.241768
N2    N     N_R   0.967412 0.494837 0.373704 -0.246038
N3    N     N_R   0.966066 0.502854 0.617418 -0.244343
N4    N     N_R   0.034828 0.497494 0.617407 -0.236785
N5    N     N_R   0.500440 0.500930 0.147930 -0.203760
N6    N     N_R   0.500440 0.500890 0.852020 -0.198837
O1    O     O_R   0.500000 0.319640 0.618810 -0.603554
O2    O     O_R   0.500010 0.319680 0.381230 -0.565904
O3    O     O_R   0.400140 0.499970 0.618830 -0.603850
O4    O     O_R   0.400150 0.500010 0.381250 -0.546285
O5    O     O_R   0.499990 0.680320 0.618770 -0.590889
O6    O     O_R   0.500000 0.680360 0.381190 -0.580601
O7    O     O_R   0.599850 0.499990 0.618750 -0.580978
O8    O     O_R   0.599860 0.500030 0.381170 -0.585199
C33   C     C_3   0.373899 0.864663 0.754886 -0.365392
C34   C     C_3   0.337655 0.875743 0.897703 -0.336644
C35   C     C_3   0.267001 0.810243 0.899814 -0.850862
H17   H     H_    0.233745 0.847706 0.816562 0.254796
H18   H     H_    0.273102 0.709854 0.884369 0.243479
H19   H     H_    0.241036 0.824418 0.002478 0.253352
H20   H     H_    0.370257 0.834444 0.979860 0.223094
H21   H     H_    0.330316 0.974473 0.922735 0.232390
H22   H     H_    0.341460 0.906201 0.672487 0.210550
H23   H     H_    0.380252 0.765604 0.730579 0.207507
C36   C     C_3   0.392581 0.357366 0.870772 -0.369383
C37   C     C_3   0.321100 0.415448 0.888247 -0.352212
C38   C     C_3   0.264004 0.331040 0.831987 -0.825153
H24   H     H_    0.274535 0.308408 0.720982 0.265342
H25   H     H_    0.260599 0.244228 0.894069 0.257298
H26   H     H_    0.213479 0.377827 0.839528 0.250845
H27   H     H_    0.309714 0.432759 0.000362 0.220274
H28   H     H_    0.320467 0.505300 0.832733 0.236110
H29   H     H_    0.402184 0.332072 0.762037 0.252966
H30   H     H_    0.391676 0.268005 0.928427 0.168230
C39   C     C_3   0.147162 0.295515 0.335104 -0.356542
C40   C     C_3   0.147375 0.328169 0.178817 -0.309228
C41   C     C_3   0.111179 0.227856 0.094526 -0.823505
H31   H     H_    0.138362 0.139225 0.106182 0.259107
H32   H     H_    0.056457 0.215687 0.130261 0.261112
H33   H     H_    0.111824 0.254413 0.982329 0.244799
H34   H     H_    0.120541 0.416531 0.162184 0.234054
H35   H     H_    0.201409 0.339878 0.138913 0.251968
H36   H     H_    0.172363 0.205600 0.351745 0.234292
H37   H     H_    0.093104 0.280195 0.373084 0.196412
Cl1   Cl    Cl    0.305966 0.283406 0.336166 -0.719805

loop_
_geom_bond_atom_site_label_1
_geom_bond_atom_site_label_2
_ccdc_geom_bond_type
C41   H31   S    
C31   C39   S    
C11   C13   A    
C2    C12   S    
C7    C27   S    
C7    C8    A    
C14   H16   S    
N3    N4    A    
C18   C33   S    
C11   C19   S    
C19   H5    S    
C28   C29   A    
C18   H3    S    
C40   H34   S    
C39   C40   S    
C30   C31   A    
C36   H30   S    
C15   C16   A    
Cu2   O6    S    
C33   H22   S    
C2    C32   A    
C18   C19   S    
C26   H11   S    
C12   O3    A    
C39   H36   S    
C23   O6    A    
C34   H21   S    
C31   C32   A    
C28   H1    S    
C8    C9    A    
C9    C10   A    
Cu1   N6    S    
C34   C35   S    
Cu2   N5    S    
Cu1   O3    S    
C13   C14   A    
Cu2   O4    S    
C22   C36   S    
C20   N5    A    
C26   H9    S    
Cu1   Cu2   S    
C38   H25   S    
C6    H13   S    
C4    N1    A    
N1    N2    A    
C20   C24   A    
C9    H15   S    
C37   C38   S    
C37   H28   S    
C21   N5    A    
C40   C41   S    
C16   C17   A    
C22   N6    A    
C25   C26   S    
C38   H24   S    
C33   H23   S    
C35   H17   S    
C35   H18   S    
C37   H27   S    
C36   C37   S    
C8    H14   S    
C29   C30   A    
C19   H4    S    
C1    O1    A    
C39   H37   S    
C34   H20   S    
Cu1   O7    S    
Cu2   O8    S    
C17   C18   S    
C24   C25   S    
C27   O7    A    
C16   C23   S    
C41   H32   S    
C29   H10   S    
C1    C13   S    
C25   H7    S    
C15   H2    S    
C38   H26   S    
C11   C17   A    
Cu1   O1    S    
C4    N4    A    
C25   H8    S    
C3    N2    A    
C6    C7    A    
C24   N6    A    
C5    H12   S    
C35   H19   S    
C5    C10   A    
C3    C10   S    
C40   H35   S    
C1    O2    A    
C3    N3    A    
C36   H29   S    
C5    C6    A    
C21   H6    S    
C20   C26   S    
C27   O8    A    
C12   O4    A    
C23   O5    A    
C32   Cl1   S    
Cu1   O5    S    
C33   C34   S    
C41   H33   S    
Cu2   O2    S    
C14   C15   A    
C2    C28   A    
C21   C22   A    
C4    C30   S    
