data_mof_unit_22166.cif
_audit_creation_date              2012-12-10T17:06:11-0500
_audit_creation_method            fapswitch 2.2
_symmetry_space_group_name_H-M    P1
_symmetry_Int_Tables_number       1
_space_group_crystal_system       triclinic
_cell_length_a                    10.642608
_cell_length_b                    11.208488
_cell_length_c                    9.869648
_cell_angle_alpha                 110.666873
_cell_angle_beta                  99.50875
_cell_angle_gamma                 91.082792
_cell_volume                      1082.61935327

loop_
_atom_site_label
_atom_site_type_symbol
_atom_type_description
_atom_site_fract_x
_atom_site_fract_y
_atom_site_fract_z
_atom_type_partial_charge
C1    C     C_R   0.492355 0.255648 0.442230 0.850932
C2    C     C_R   0.510357 0.744478 0.557894 0.866387
C3    C     C_R   0.259351 0.499853 0.499385 0.796082
C4    C     C_R   0.740566 0.499626 0.500547 0.788679
C5    C     C_3   0.049359 0.408838 0.549999 -0.265296
C6    C     C_3   0.950450 0.589882 0.450136 -0.272654
C7    C     C_3   0.941456 0.382339 0.413050 -0.221534
C8    C     C_3   0.058275 0.616354 0.587050 -0.217109
C9    C     C_3   0.877149 0.499214 0.502099 -0.071626
C10   C     C_3   0.122644 0.499609 0.497974 -0.070657
C11   C     C_3   0.983540 0.524975 0.636009 0.356531
C12   C     C_3   0.016181 0.473724 0.364103 0.359128
C13   C     C_2   0.492066 0.119741 0.413290 -0.379131
C14   C     C_2   0.516162 0.880830 0.588241 -0.420059
C15   C     C_2   0.507978 0.071365 0.521978 0.242263
C16   C     C_2   0.503351 0.931505 0.481604 0.230923
C17   C     C_2   0.517488 0.501302 0.079459 -0.014153
C18   C     C_2   0.495707 0.484065 0.917143 0.008785
Cu1   Cu    Cu3+1 0.522260 0.521810 0.644920 0.965694
Cu2   Cu    Cu3+1 0.477740 0.478190 0.355080 0.931468
H1    H     H_    0.891380 0.287641 0.342015 0.136381
H2    H     H_    0.108132 0.711066 0.658455 0.136179
H3    H     H_    0.092183 0.336895 0.593253 0.141505
H4    H     H_    0.907610 0.661717 0.406695 0.136388
H5    H     H_    0.529723 0.940605 0.703754 0.137512
H6    H     H_    0.477734 0.058276 0.298083 0.160198
H7    H     H_    0.434923 0.401107 0.840255 0.169289
H8    H     H_    0.603047 0.558165 0.150058 0.122088
N1    N     N_2   0.444270 0.445410 0.137360 -0.080785
N2    N     N_2   0.555730 0.554590 0.862640 -0.077058
O1    O     O_R   0.511880 0.332340 0.577400 -0.546230
O2    O     O_R   0.488120 0.667660 0.422600 -0.577358
O3    O     O_R   0.474280 0.295500 0.332650 -0.588627
O4    O     O_R   0.525720 0.704500 0.667350 -0.556615
O5    O     O_R   0.335640 0.518390 0.622350 -0.583204
O6    O     O_R   0.664360 0.481610 0.377650 -0.591715
O7    O     O_R   0.298050 0.481550 0.377590 -0.583326
O8    O     O_R   0.701950 0.518450 0.622410 -0.584321
N3    N     N_2   0.962865 0.551634 0.784767 -0.429309
H9    H     H_    0.904883 0.480838 0.793209 0.254395
C19   C     C_3   0.077535 0.588859 0.896371 -0.734742
H10   H     H_    0.051468 0.612066 0.006605 0.221597
H11   H     H_    0.129085 0.675472 0.895312 0.241132
H12   H     H_    0.141337 0.509545 0.877434 0.233812
N4    N     N_2   0.037328 0.448452 0.215844 -0.419724
H13   H     H_    0.086498 0.525026 0.207883 0.239051
C20   C     C_3   0.924985 0.399811 0.101903 -0.728685
H14   H     H_    0.951235 0.383056 0.992780 0.227245
H15   H     H_    0.851041 0.469611 0.119679 0.222767
H16   H     H_    0.885331 0.307153 0.100952 0.237183
N5    N     N_2   0.491429 0.853827 0.329192 -0.428617
H17   H     H_    0.561762 0.793322 0.298542 0.252579
C21   C     C_3   0.363253 0.815660 0.243217 -0.686359
H18   H     H_    0.340017 0.711656 0.213949 0.243154
H19   H     H_    0.357866 0.835140 0.139800 0.214544
H20   H     H_    0.290609 0.869139 0.304297 0.221081
N6    N     N_2   0.527828 0.153534 0.673714 -0.408594
H21   H     H_    0.467851 0.132114 0.735452 0.232255
C22   C     C_3   0.660357 0.184600 0.746657 -0.664567
H22   H     H_    0.665938 0.255643 0.859788 0.221034
H23   H     H_    0.715051 0.227123 0.685732 0.235413
H24   H     H_    0.704759 0.097749 0.754066 0.206077
N7    N     N_2   0.599795 0.678257 0.954912 -0.314668
H25   H     H_    0.562024 0.715929 0.049315 0.228430
C23   C     C_3   0.735933 0.705540 0.974448 -0.578952
H26   H     H_    0.764173 0.804685 0.053678 0.180598
H27   H     H_    0.762829 0.698537 0.868368 0.270833
H28   H     H_    0.787818 0.637986 0.018202 0.194371
N8    N     N_2   0.325335 0.396285 0.053479 -0.361455
H29   H     H_    0.255377 0.456242 0.086812 0.256830
C24   C     C_3   0.291927 0.266282 0.038262 -0.552300
H30   H     H_    0.205142 0.227532 0.951837 0.182092
H31   H     H_    0.270506 0.262864 0.143134 0.248561
H32   H     H_    0.370952 0.205565 0.004647 0.207985

loop_
_geom_bond_atom_site_label_1
_geom_bond_atom_site_label_2
_ccdc_geom_bond_type
C15   N6    S    
C24   H32   S    
C8    H2    S    
C4    O6    A    
C18   N2    D    
Cu1   O8    S    
C1    O1    A    
N3    C19   S    
C17   N1    D    
C19   H10   S    
C21   H19   S    
C20   H14   S    
C5    H3    S    
C16   N5    S    
C3    O5    A    
C23   H28   S    
C6    H4    S    
C24   H30   S    
C2    O4    A    
C6    C9    S    
N7    C23   S    
C17   C18   S    
Cu1   O1    S    
C22   H22   S    
C20   H15   S    
C3    C10   S    
Cu1   O5    S    
C21   H18   S    
C21   H20   S    
C11   N3    S    
Cu2   O7    S    
C19   H11   S    
N6    H21   S    
N8    H29   S    
Cu1   N2    S    
C10   C12   S    
N5    H17   S    
C8    C11   S    
Cu2   O3    S    
C8    C10   S    
C4    O8    A    
C5    C11   S    
C20   H16   S    
N1    N8    S    
Cu2   N1    S    
C9    C11   S    
C13   C15   D    
C6    C12   S    
C7    C12   S    
C2    C14   S    
C19   H12   S    
C14   C16   D    
C13   H6    S    
C22   H23   S    
N6    C22   S    
C1    O3    A    
C15   C16   S    
Cu2   O6    S    
N4    H13   S    
N8    C24   S    
C5    C10   S    
C1    C13   S    
C14   H5    S    
C3    O7    A    
C2    O2    A    
C23   H26   S    
Cu2   O2    S    
N4    C20   S    
C24   H31   S    
N3    H9    S    
C7    C9    S    
C5    C7    S    
C12   N4    S    
C22   H24   S    
C6    C8    S    
C23   H27   S    
C4    C9    S    
C7    H1    S    
C17   H8    S    
N2    N7    S    
C18   H7    S    
Cu1   Cu2   S    
N7    H25   S    
N5    C21   S    
Cu1   O4    S    
