data_mof_unit_59318.cif
_audit_creation_date              2012-12-10T18:59:16-0500
_audit_creation_method            fapswitch 2.2
_symmetry_space_group_name_H-M    P1
_symmetry_Int_Tables_number       1
_space_group_crystal_system       triclinic
_cell_length_a                    10.758848
_cell_length_b                    10.802258
_cell_length_c                    9.529165
_cell_angle_alpha                 90.100703
_cell_angle_beta                  91.49191
_cell_angle_gamma                 89.758249
_cell_volume                      1107.09136328

loop_
_atom_site_label
_atom_site_type_symbol
_atom_type_description
_atom_site_fract_x
_atom_site_fract_y
_atom_site_fract_z
_atom_type_partial_charge
C1    C     C_R   0.506646 0.262254 0.499641 0.814217
C2    C     C_R   0.070327 0.377552 0.517079 0.085795
C3    C     C_R   0.128932 0.491511 0.492663 -0.045334
C4    C     C_R   0.059901 0.599141 0.469826 -0.200423
C5    C     C_R   0.931738 0.594944 0.473197 -0.190922
C6    C     C_R   0.871944 0.485804 0.511090 -0.054850
C7    C     C_R   0.507807 0.063855 0.624289 0.167317
C8    C     C_R   0.524699 0.129049 0.499822 -0.147760
C9    C     C_R   0.563598 0.061881 0.380245 0.137212
C10   C     C_R   0.558665 0.932586 0.381995 -0.265387
C11   C     C_R   0.519295 0.870189 0.501869 -0.151412
C12   C     C_R   0.262461 0.500887 0.497943 0.780126
C13   C     C_R   0.505635 0.936995 0.625481 0.134550
C14   C     C_3   0.406909 0.933038 0.732604 -0.454038
C15   C     C_3   0.410214 0.073727 0.732445 -0.459666
C16   C     C_R   0.556178 0.593509 0.075363 0.250085
C17   C     C_R   0.433511 0.415331 0.072353 -0.026609
C18   C     C_R   0.433727 0.415139 0.923346 -0.029415
C19   C     C_R   0.555821 0.593691 0.927951 0.242748
C20   C     C_3   0.689157 0.630199 0.925187 -0.468562
C21   C     C_3   0.689978 0.629214 0.084569 -0.480502
C22   C     C_R   0.503280 0.737620 0.500306 0.808818
C23   C     C_R   0.737393 0.489052 0.502689 0.813246
C24   C     C_R   0.137483 0.265252 0.515518 -0.264669
C25   C     C_R   0.078990 0.153787 0.543126 -0.263519
C26   C     C_R   0.955942 0.153081 0.586959 0.544577
C27   C     C_R   0.891334 0.265821 0.600017 0.049030
C28   C     C_R   0.941719 0.376478 0.543798 -0.032198
Cu1   Cu    Cu3+1 0.499990 0.499980 0.640670 0.965660
Cu2   Cu    Cu3+1 0.500010 0.500020 0.359330 0.966107
H1    H     H_    0.105389 0.686074 0.447804 0.129921
H2    H     H_    0.441332 0.891839 0.833221 0.210928
H3    H     H_    0.322917 0.117150 0.691504 0.190974
H4    H     H_    0.447488 0.113288 0.832688 0.228194
H5    H     H_    0.381693 0.345361 0.126649 0.151846
H6    H     H_    0.381993 0.345113 0.865767 0.139950
H7    H     H_    0.749601 0.557352 0.880257 0.240355
H8    H     H_    0.701162 0.724214 0.880367 0.203711
H9    H     H_    0.750601 0.555301 0.130355 0.237663
H10   H     H_    0.703415 0.722540 0.131710 0.191831
H11   H     H_    0.234768 0.262553 0.489618 0.147991
H12   H     H_    0.132201 0.068586 0.539987 0.153867
H13   H     H_    0.878646 0.677997 0.448677 0.123392
H14   H     H_    0.582301 0.881514 0.288428 0.181270
H15   H     H_    0.317862 0.894441 0.690241 0.194194
N1    N     N_R   0.500790 0.500930 0.147930 -0.181804
N2    N     N_R   0.500790 0.500890 0.852020 -0.179552
O1    O     O_R   0.500000 0.319640 0.618810 -0.568339
O2    O     O_R   0.500010 0.319680 0.381230 -0.560486
O3    O     O_R   0.319640 0.499980 0.618820 -0.578104
O4    O     O_R   0.319650 0.500020 0.381230 -0.581754
O5    O     O_R   0.499990 0.680320 0.618770 -0.580079
O6    O     O_R   0.500000 0.680360 0.381190 -0.585628
O7    O     O_R   0.680350 0.499980 0.618770 -0.566515
O8    O     O_R   0.680360 0.500020 0.381180 -0.573492
O9    O     O_3   0.904500 0.045384 0.637837 -0.551778
C29   C     C_3   0.883790 0.961850 0.525802 -0.302706
H16   H     H_    0.972556 0.919131 0.492722 0.150517
H17   H     H_    0.834888 0.006621 0.434545 0.177937
H18   H     H_    0.823123 0.886332 0.562542 0.189224
I1    I     I_    0.761733 0.266109 0.764948 -0.274405
I2    I     I_    0.631344 0.141362 0.192799 -0.383351

loop_
_geom_bond_atom_site_label_1
_geom_bond_atom_site_label_2
_ccdc_geom_bond_type
C25   H12   S    
C12   O3    A    
Cu2   O4    S    
C1    O1    A    
C23   O8    A    
Cu1   Cu2   S    
C20   H7    S    
C22   O6    A    
C1    C8    S    
C20   H8    S    
C9    C10   A    
C11   C22   S    
C19   C20   S    
C21   H9    S    
C18   N2    A    
C7    C15   S    
C17   C18   A    
C29   H16   S    
C17   N1    A    
C7    C8    A    
C13   C14   S    
C20   C21   S    
C2    C24   A    
C24   H11   S    
C11   C13   A    
C26   C27   A    
C16   C21   S    
C21   H10   S    
C18   H6    S    
Cu1   N2    S    
C16   C19   A    
C6    C23   S    
C26   O9    S    
Cu2   O2    S    
Cu2   N1    S    
C2    C3    A    
C14   H15   S    
Cu1   O3    S    
C5    H13   S    
C5    C6    A    
Cu2   O6    S    
C19   N2    A    
C29   H17   S    
C4    H1    S    
C10   C11   A    
Cu1   O1    S    
C10   H14   S    
C3    C4    A    
C15   H4    S    
C7    C13   A    
C12   O4    A    
C24   C25   A    
C23   O7    A    
C22   O5    A    
Cu1   O7    S    
C16   N1    A    
C27   C28   A    
O9    C29   S    
C14   C15   S    
C4    C5    A    
C29   H18   S    
C2    C28   A    
C3    C12   S    
C17   H5    S    
C25   C26   A    
C1    O2    A    
Cu2   O8    S    
C15   H3    S    
C6    C28   A    
C9    I2    S    
C14   H2    S    
C8    C9    A    
Cu1   O5    S    
C27   I1    S    
