data_mof_unit_36809.cif
_audit_creation_date              2012-12-10T17:29:24-0500
_audit_creation_method            fapswitch 2.2
_symmetry_space_group_name_H-M    P1
_symmetry_Int_Tables_number       1
_space_group_crystal_system       triclinic
_cell_length_a                    12.010387
_cell_length_b                    12.878888
_cell_length_c                    13.099102
_cell_angle_alpha                 87.103001
_cell_angle_beta                  113.555859
_cell_angle_gamma                 93.844106
_cell_volume                      1852.53187748

loop_
_atom_site_label
_atom_site_type_symbol
_atom_type_description
_atom_site_fract_x
_atom_site_fract_y
_atom_site_fract_z
_atom_type_partial_charge
C1    C     C_R   0.476912 0.299522 0.498077 0.860425
C2    C     C_R   0.605818 0.462935 0.829045 -0.342004
C3    C     C_R   0.538327 0.812540 0.502675 -0.162596
C4    C     C_R   0.565284 0.485764 0.708485 0.922526
C5    C     C_R   0.463463 0.188165 0.498727 -0.044081
C6    C     C_R   0.371041 0.028098 0.537419 -0.197658
C7    C     C_R   0.374128 0.135793 0.527958 -0.216893
C8    C     C_R   0.547459 0.133908 0.476343 -0.253906
C9    C     C_R   0.545909 0.027240 0.486769 0.112663
C10   C     C_R   0.457068 0.973795 0.517380 0.188951
C11   C     C_R   0.454552 0.866846 0.525850 -0.359152
C12   C     C_R   0.551442 0.470437 0.987336 0.063642
C13   C     C_R   0.630696 0.865719 0.477073 0.470323
C14   C     C_R   0.632382 0.973669 0.467346 -0.320384
C15   C     C_R   0.015359 0.610457 0.409999 -0.317688
C16   C     C_R   0.523269 0.700702 0.501866 0.913895
C17   C     C_R   0.134439 0.599128 0.418206 0.028970
C18   C     C_R   0.152581 0.448511 0.533855 -0.055100
C19   C     C_R   0.033816 0.457896 0.529647 0.086068
C20   C     C_R   0.964582 0.540493 0.467402 0.060194
C21   C     C_R   0.845801 0.549893 0.463323 -0.047844
C22   C     C_R   0.864055 0.398909 0.578609 0.010249
C23   C     C_R   0.518790 0.446526 0.875515 0.015008
C24   C     C_R   0.982176 0.386420 0.584990 -0.360907
C25   C     C_R   0.433847 0.508195 0.291397 0.942574
C26   C     C_R   0.240494 0.462497 0.991254 0.490629
C27   C     C_R   0.391659 0.510075 0.171101 -0.277045
C28   C     C_R   0.730435 0.463912 0.900254 0.437786
C29   C     C_R   0.766182 0.468054 0.015756 0.456603
C30   C     C_R   0.676629 0.475785 0.058343 -0.353572
C31   C     C_3   0.829795 0.822867 0.534128 0.078641
C32   C     C_3   0.916803 0.867451 0.482096 -0.347237
C33   C     C_3   0.049320 0.858024 0.562287 -0.981013
C34   C     C_R   0.456857 0.483103 0.023742 -0.031563
C35   C     C_3   0.079334 0.533503 0.849586 0.104202
C36   C     C_3   0.053596 0.622944 0.909027 -0.294961
C37   C     C_3   0.983187 0.706546 0.825882 -0.974464
C38   C     C_3   0.562129 0.693622 0.173808 0.097954
C39   C     C_3   0.564929 0.742440 0.065635 -0.374118
C40   C     C_3   0.553251 0.859976 0.061054 -0.946802
C41   C     C_3   0.835471 0.349782 0.853265 -0.224843
C42   C     C_3   0.918819 0.403641 0.174122 -0.318566
C43   C     C_R   0.334704 0.451862 0.954582 -0.033330
C44   C     C_R   0.309470 0.408092 0.852048 -0.212115
C45   C     C_R   0.400751 0.404705 0.813493 -0.143342
C46   C     C_R   0.478132 0.528672 0.125080 0.424000
C47   C     C_R   0.271072 0.482407 0.102966 -0.353761
H1    H     H_    0.201219 0.475783 0.135935 0.214921
H2    H     H_    0.172955 0.654058 0.374460 0.137161
H3    H     H_    0.219137 0.377091 0.801103 0.163839
H4    H     H_    0.205320 0.384056 0.579503 0.109108
H5    H     H_    0.706415 0.479676 0.147201 0.228450
H6    H     H_    0.379445 0.366640 0.735830 0.146598
H7    H     H_    0.385454 0.825869 0.548535 0.183442
H8    H     H_    0.857208 0.744007 0.569826 0.174116
H9    H     H_    0.838922 0.872149 0.605216 0.124424
H10   H     H_    0.900047 0.825290 0.405083 0.225464
H11   H     H_    0.899468 0.950767 0.458740 0.209385
H12   H     H_    0.302847 0.987596 0.561341 0.135432
H13   H     H_    0.068949 0.775117 0.586133 0.271219
H14   H     H_    0.109499 0.889497 0.520974 0.261489
H15   H     H_    0.069244 0.902823 0.638426 0.264315
H16   H     H_    0.993781 0.509167 0.779487 0.204347
H17   H     H_    0.143950 0.561428 0.811083 0.113570
H18   H     H_    0.000094 0.592504 0.957295 0.294706
H19   H     H_    0.140907 0.658813 0.968144 0.190435
H20   H     H_    0.035294 0.738266 0.776759 0.256868
H21   H     H_    0.968196 0.771085 0.871290 0.264467
H22   H     H_    0.893226 0.673563 0.768440 0.282354
H23   H     H_    0.699978 0.015146 0.443165 0.148176
H24   H     H_    0.636036 0.732104 0.245184 0.204490
H25   H     H_    0.475274 0.709046 0.180996 0.117687
H26   H     H_    0.651953 0.725898 0.060054 0.238862
H27   H     H_    0.488777 0.707848 0.992900 0.217770
H28   H     H_    0.465902 0.878118 0.064886 0.265909
H29   H     H_    0.555256 0.893038 0.981832 0.265314
H30   H     H_    0.629887 0.896885 0.131685 0.267224
H31   H     H_    0.750939 0.308390 0.795656 0.122813
H32   H     H_    0.867895 0.311451 0.937464 0.168758
H33   H     H_    0.906505 0.342003 0.820764 0.194540
H34   H     H_    0.309318 0.177941 0.546054 0.150182
H35   H     H_    0.869685 0.326355 0.150200 0.143077
H36   H     H_    0.901307 0.436160 0.242873 0.181682
H37   H     H_    0.017594 0.390910 0.206553 0.198643
H38   H     H_    0.615712 0.174769 0.452390 0.159057
H39   H     H_    0.790951 0.612230 0.414349 0.170458
H40   H     H_    0.824420 0.342609 0.620026 0.129359
H41   H     H_    0.963557 0.673268 0.358901 0.155659
H42   H     H_    0.032322 0.321098 0.632445 0.143423
N1    N     N_R   0.798200 0.480260 0.519790 -0.098928
N2    N     N_R   0.201820 0.519740 0.480210 -0.098699
O1    O     O_R   0.579910 0.341070 0.505280 -0.637226
O2    O     O_3   0.119336 0.445535 0.921914 -0.645756
O3    O     O_3   0.585019 0.586529 0.182215 -0.657314
O4    O     O_3   0.817988 0.456513 0.857985 -0.578417
O5    O     O_3   0.889782 0.474960 0.082849 -0.589062
O6    O     O_R   0.388440 0.353740 0.492580 -0.633863
O7    O     O_R   0.643280 0.490550 0.663120 -0.572524
O8    O     O_R   0.451810 0.503220 0.650420 -0.616293
O9    O     O_R   0.611560 0.646260 0.507420 -0.591597
O10   O     O_R   0.420090 0.658930 0.494720 -0.633152
O11   O     O_R   0.548190 0.496780 0.349580 -0.567884
O12   O     O_R   0.356720 0.509450 0.336880 -0.627279
O13   O     O_3   0.710769 0.812257 0.449982 -0.663899
Zn1   Zn    Zn3+2 0.627850 0.491540 0.508480 0.965041
Zn2   Zn    Zn3+2 0.372150 0.508460 0.491520 0.927295

loop_
_geom_bond_atom_site_label_1
_geom_bond_atom_site_label_2
_ccdc_geom_bond_type
C8    C9    A    
C23   C45   A    
C37   H22   S    
C19   C20   A    
C17   N2    A    
C32   H11   S    
C43   C44   A    
C24   H42   S    
C41   H33   S    
C12   C23   A    
O9    Zn1   S    
O7    Zn1   S    
C28   O4    S    
C42   O5    S    
C18   N2    A    
C28   C29   A    
C18   C19   A    
C4    O7    A    
C38   C39   S    
C36   H19   S    
C25   O11   A    
C44   H3    S    
C37   H21   S    
O11   Zn1   S    
C8    H38   S    
C39   H27   S    
C1    O1    A    
C38   H24   S    
C31   C32   S    
C33   H15   S    
C42   H35   S    
C18   H4    S    
C35   H17   S    
C34   C46   A    
C31   H9    S    
C9    C10   A    
C3    C13   A    
C26   O2    S    
C45   H6    S    
C13   C14   A    
C14   H23   S    
N2    Zn2   S    
C32   H10   S    
C26   C43   A    
C21   N1    A    
C35   O2    S    
C15   C20   A    
C38   H25   S    
C42   H36   S    
C42   H37   S    
C1    O6    A    
C39   C40   S    
C5    C7    A    
C36   H18   S    
C25   O12   A    
C40   H29   S    
C35   C36   S    
C2    C4    S    
C9    C14   A    
C6    C10   A    
C29   C30   A    
C5    C8    A    
C16   O10   A    
C47   H1    S    
C46   O3    S    
C38   O3    S    
C22   N1    A    
C22   H40   S    
C13   O13   S    
C11   H7    S    
C26   C47   A    
O6    Zn2   S    
C27   C46   A    
C7    H34   S    
C33   H13   S    
C1    C5    S    
C17   H2    S    
C41   H31   S    
C44   C45   A    
C27   C47   A    
O10   Zn2   S    
C15   C17   A    
O8    Zn2   S    
C30   H5    S    
C21   H39   S    
C36   C37   S    
C12   C30   A    
C6    H12   S    
C16   O9    A    
C34   C43   A    
N1    Zn1   S    
C41   H32   S    
C29   O5    S    
C35   H16   S    
C6    C7    A    
C25   C27   S    
C40   H28   S    
C32   C33   S    
C19   C24   A    
C31   O13   S    
C41   O4    S    
C37   H20   S    
O12   Zn2   S    
C22   C24   A    
C39   H26   S    
C3    C11   A    
C10   C11   A    
O1    Zn1   S    
C20   C21   A    
C33   H14   S    
C4    O8    A    
C2    C23   A    
C40   H30   S    
C2    C28   A    
C31   H8    S    
C12   C34   A    
C3    C16   S    
C15   H41   S    
