data_mof_unit_15958.cif
_audit_creation_date              2012-12-11T14:45:59-0500
_audit_creation_method            fapswitch 2.2
_symmetry_space_group_name_H-M    P1
_symmetry_Int_Tables_number       1
_space_group_crystal_system       triclinic
_cell_length_a                    10.954681
_cell_length_b                    10.951136
_cell_length_c                    18.825288
_cell_angle_alpha                 90.547419
_cell_angle_beta                  89.723275
_cell_angle_gamma                 119.911862
_cell_volume                      1957.47567181

loop_
_atom_site_label
_atom_site_type_symbol
_atom_type_description
_atom_site_fract_x
_atom_site_fract_y
_atom_site_fract_z
_atom_type_partial_charge
C1    C     C_R   0.863949 0.638514 0.603328 0.541325
C2    C     C_R   0.406136 0.610486 0.778730 -0.130710
C3    C     C_R   0.384237 0.603152 0.706866 -0.151331
C4    C     C_R   0.316948 0.670194 0.677289 0.015874
C5    C     C_R   0.844133 0.168112 0.823148 -0.034724
C6    C     C_R   0.091191 0.230154 0.826919 -0.081529
C7    C     C_R   0.213109 0.253321 0.792434 -0.112887
C8    C     C_R   0.212137 0.232060 0.719421 -0.103162
C9    C     C_R   0.090600 0.193782 0.680018 -0.067084
C10   C     C_R   0.968367 0.181134 0.712808 -0.009704
C11   C     C_R   0.967225 0.191014 0.788236 -0.010908
C12   C     C_R   0.265821 0.630746 0.605108 0.538514
C13   C     C_R   0.721715 0.120474 0.709856 0.025648
C14   C     C_R   0.732632 0.160350 0.781587 0.000728
C15   C     C_R   0.591087 0.070946 0.674232 0.189803
C16   C     C_R   0.497777 0.111869 0.701136 -0.099777
C17   C     C_R   0.518935 0.173683 0.768008 -0.174265
C18   C     C_R   0.633205 0.194827 0.808838 -0.090400
C19   C     C_R   0.846944 0.157085 0.673129 -0.041140
C20   C     C_R   0.861723 0.797156 0.697493 -0.117222
C21   C     C_R   0.847413 0.818269 0.769219 -0.129082
C22   C     C_R   0.778327 0.703359 0.814612 0.022749
C23   C     C_R   0.862838 0.225244 0.602756 0.552666
C24   C     C_R   0.715422 0.566005 0.786907 -0.145186
C25   C     C_R   0.732888 0.544623 0.715517 -0.146345
C26   C     C_R   0.812427 0.660474 0.671302 0.022511
C27   C     C_R   0.287141 0.545186 0.278251 -0.133551
C28   C     C_R   0.290191 0.553625 0.205662 -0.146323
C29   C     C_R   0.323892 0.680662 0.172406 0.018340
C30   C     C_R   0.324084 0.789904 0.212818 -0.029269
C31   C     C_R   0.313960 0.778316 0.286822 -0.141117
C32   C     C_R   0.301358 0.657857 0.319850 0.018613
C33   C     C_R   0.713207 0.110832 0.293780 -0.132958
C34   C     C_R   0.864304 0.637830 0.397634 0.540420
C35   C     C_R   0.704323 0.097890 0.221146 -0.137678
C36   C     C_R   0.823902 0.130347 0.180146 0.029121
C37   C     C_R   0.951931 0.168348 0.213425 -0.149260
C38   C     C_R   0.961946 0.185176 0.286909 -0.138700
C39   C     C_R   0.843668 0.163347 0.326699 0.025760
C40   C     C_R   0.893489 0.782717 0.295043 -0.158807
C41   C     C_R   0.887608 0.793511 0.222818 -0.156333
C42   C     C_R   0.806272 0.673519 0.180574 0.048432
C43   C     C_R   0.722067 0.541511 0.211985 0.100662
C44   C     C_R   0.722934 0.531466 0.286232 -0.012981
C45   C     C_R   0.266420 0.631101 0.394809 0.546925
C46   C     C_R   0.817775 0.651729 0.327206 -0.012272
C47   C     C_R   0.808672 0.106900 0.895753 0.522861
C48   C     C_R   0.400120 0.701735 0.895754 0.543446
C49   C     C_R   0.773162 0.729973 0.890311 0.558608
C50   C     C_R   0.802937 0.099543 0.104727 0.546081
C51   C     C_R   0.390782 0.703126 0.102481 0.546884
C52   C     C_R   0.796141 0.697234 0.105746 0.586944
C53   C     C_R   0.861722 0.226381 0.396686 0.543417
C54   C     C_R   0.279824 0.753452 0.721137 -0.014706
C55   C     C_R   0.305598 0.762431 0.793373 -0.131707
C56   C     C_R   0.363911 0.687439 0.822137 0.023820
Cr1   Cr    Cr6+3 0.791660 0.390250 0.499930 1.048944
Cr2   Cr    Cr6+3 0.098520 0.708290 0.500540 1.028086
Cr3   Cr    Cr6+3 0.109770 0.401430 0.499480 1.008295
Cr4   Cr    Cr6+3 0.874790 0.925890 0.000070 1.019387
Cr5   Cr    Cr6+3 0.574120 0.948670 0.999300 1.035711
Cr6   Cr    Cr6+3 0.551420 0.625320 0.000920 1.003147
H1    H     H_    0.410974 0.099463 0.669178 0.126845
H2    H     H_    0.446485 0.204439 0.788587 0.107802
H3    H     H_    0.919178 0.887531 0.663527 0.139910
H4    H     H_    0.893832 0.924006 0.790047 0.138684
H5    H     H_    0.658666 0.475673 0.820932 0.124015
H6    H     H_    0.692635 0.437913 0.696198 0.147055
H7    H     H_    0.269327 0.447602 0.301453 0.136782
H8    H     H_    0.276220 0.462547 0.175856 0.122239
H9    H     H_    0.278785 0.826204 0.827434 0.132679
H10   H     H_    0.313203 0.861359 0.318326 0.134815
H11   H     H_    0.619675 0.088873 0.323563 0.154783
H12   H     H_    0.602763 0.061907 0.197117 0.157021
H13   H     H_    0.043648 0.187389 0.182782 0.116840
H14   H     H_    0.063292 0.222552 0.311930 0.127286
H15   H     H_    0.963284 0.876559 0.325335 0.145949
H16   H     H_    0.948459 0.897422 0.200031 0.157158
H17   H     H_    0.457350 0.556330 0.800299 0.137773
H18   H     H_    0.415764 0.540809 0.674800 0.135106
H19   H     H_    0.308282 0.288423 0.822924 0.100023
H20   H     H_    0.306289 0.246752 0.692964 0.102382
H21   H     H_    0.096378 0.249195 0.883640 0.132016
H22   H     H_    0.093001 0.170544 0.624317 0.135799
H23   H     H_    0.647299 0.245686 0.860111 0.145530
O1    O     O_R   0.766500 0.250040 0.579790 -0.479608
O2    O     O_R   0.218690 0.701900 0.425960 -0.504029
O3    O     O_R   0.249490 0.516440 0.419420 -0.523761
O4    O     O_R   0.982880 0.281910 0.424890 -0.513902
O5    O     O_3   0.999980 0.499990 0.499980 -0.251376
O6    O     O_R   0.895110 0.806860 0.920430 -0.499056
O7    O     O_R   0.872260 0.046970 0.925000 -0.523098
O8    O     O_R   0.691430 0.085060 0.918550 -0.515923
O9    O     O_R   0.451490 0.822460 0.925250 -0.498182
O10   O     O_R   0.413330 0.603360 0.920440 -0.538192
O11   O     O_R   0.676110 0.626250 0.926750 -0.511749
O12   O     O_R   0.798570 0.516780 0.574780 -0.513070
O13   O     O_R   0.895350 0.809870 0.080950 -0.520560
O14   O     O_R   0.872490 0.049760 0.073800 -0.508648
O15   O     O_R   0.691680 0.088070 0.079070 -0.514239
O16   O     O_R   0.451720 0.825250 0.074050 -0.485967
O17   O     O_R   0.413580 0.606370 0.080960 -0.541994
O18   O     O_R   0.676340 0.629040 0.075550 -0.477252
O19   O     O_3   0.666780 0.833290 0.000090 -0.275964
O20   O     O_R   0.984000 0.732950 0.581090 -0.492731
O21   O     O_R   0.218600 0.700890 0.574760 -0.502690
O22   O     O_R   0.249390 0.515350 0.579940 -0.522319
O23   O     O_R   0.982790 0.280900 0.573700 -0.520348
O24   O     O_R   0.766600 0.251130 0.419260 -0.496902
O25   O     O_R   0.798660 0.517790 0.425980 -0.490317
O26   O     O_R   0.984100 0.734040 0.420570 -0.523418
C57   C     C_1   0.215637 0.831772 0.696103 0.224247
N1    N     N_1   0.167138 0.898850 0.677975 -0.316858
N2    N     N_2   0.559002 0.994089 0.608389 -0.493782
H24   H     H_    0.460814 0.962509 0.587361 0.255661
C58   C     C_3   0.609080 0.894857 0.597922 -0.293077
H25   H     H_    0.714293 0.947707 0.572480 0.142987
H26   H     H_    0.537546 0.808727 0.561437 0.138113
H27   H     H_    0.615062 0.848419 0.649095 0.144766
C59   C     C_1   0.326432 0.909397 0.179792 0.201355
N3    N     N_1   0.327585 0.004864 0.153296 -0.330198
N4    N     N_2   0.648234 0.418609 0.168450 -0.507586
H28   H     H_    0.671165 0.340360 0.179986 0.262753
C60   C     C_3   0.498635 0.365090 0.161111 -0.264905
H29   H     H_    0.440800 0.303166 0.208384 0.146650
H30   H     H_    0.459336 0.295765 0.113461 0.166807
H31   H     H_    0.477053 0.452619 0.154423 0.183706
C61   C     C_1   0.624799 0.398535 0.318752 0.228383
N5    N     N_1   0.545196 0.292662 0.344591 -0.314817

loop_
_geom_bond_atom_site_label_1
_geom_bond_atom_site_label_2
_ccdc_geom_bond_type
C55   C56   A    
C52   O18   A    
C48   O10   A    
Cr6   O11   S    
C21   H4    S    
C41   C42   A    
C14   C18   A    
Cr5   O16   S    
C35   C36   A    
Cr4   O14   S    
Cr2   O2    S    
N2    H24   S    
C7    C8    A    
C35   H12   S    
C38   H14   S    
C58   H25   S    
C51   O17   A    
C40   C46   A    
C5    C47   S    
C50   O14   A    
C29   C30   A    
C48   O9    A    
C8    H20   S    
C28   C29   A    
C45   O2    A    
C39   C53   S    
C5    C11   A    
Cr4   O13   S    
C17   H2    S    
Cr3   O4    S    
C30   C31   A    
Cr5   O8    S    
C1    O20   A    
C15   C16   A    
Cr1   O1    S    
C32   C45   S    
Cr3   O3    S    
C2    H17   S    
C24   H5    S    
Cr1   O24   S    
Cr1   O25   S    
Cr6   O10   S    
C8    C9    A    
C23   O1    A    
C31   H10   S    
C34   C46   S    
C16   H1    S    
C4    C12   S    
C9    C10   A    
C27   H7    S    
C37   H13   S    
C13   C14   A    
C61   N5    T    
C34   O26   A    
C25   H6    S    
C49   O6    A    
C47   O7    A    
C3    H18   S    
C57   N1    T    
C44   C46   A    
Cr6   O19   S    
Cr4   O7    S    
C30   C59   S    
C18   H23   S    
Cr1   O5    S    
C13   C19   A    
Cr2   O26   S    
C20   H3    S    
C45   O3    A    
C24   C25   A    
C1    O12   A    
C6    C11   A    
Cr5   O9    S    
C16   C17   A    
C25   C26   A    
Cr3   O22   S    
Cr2   O21   S    
Cr3   O5    S    
C19   C23   S    
C43   C44   A    
C37   C38   A    
C31   C32   A    
C10   C19   A    
Cr1   O12   S    
Cr5   O19   S    
C17   C18   A    
C47   O8    A    
C15   N2    S    
C54   C57   S    
C33   C39   A    
Cr2   O5    S    
C43   N4    S    
C5    C14   A    
C22   C49   S    
C33   H11   S    
C40   C41   A    
C7    H19   S    
C13   C15   A    
C53   O4    A    
C1    C26   S    
C34   O25   A    
C22   C24   A    
Cr5   O15   S    
C42   C43   A    
N4    C60   S    
C3    C4    A    
C41   H16   S    
C36   C50   S    
C59   N3    T    
C60   H30   S    
Cr6   O18   S    
C29   C51   S    
Cr4   O6    S    
C53   O24   A    
C48   C56   S    
C54   C55   A    
C44   C61   S    
C6    H21   S    
C4    C54   A    
C27   C32   A    
C28   H8    S    
C12   O22   A    
N2    C58   S    
C6    C7    A    
C51   O16   A    
C50   O15   A    
Cr3   O23   S    
C58   H27   S    
Cr2   O20   S    
C2    C3    A    
Cr4   O19   S    
C12   O21   A    
C38   C39   A    
C20   C26   A    
C23   O23   A    
C52   O13   A    
C33   C35   A    
C58   H26   S    
C49   O11   A    
C10   C11   A    
C9    H22   S    
C20   C21   A    
C36   C37   A    
C60   H31   S    
C27   C28   A    
C40   H15   S    
C2    C56   A    
N4    H28   S    
C21   C22   A    
C55   H9    S    
C42   C52   S    
C60   H29   S    
Cr6   O17   S    
