data_mof_unit_25909.cif
_audit_creation_date              2012-12-10T19:00:03-0500
_audit_creation_method            fapswitch 2.2
_symmetry_space_group_name_H-M    P1
_symmetry_Int_Tables_number       1
_space_group_crystal_system       triclinic
_cell_length_a                    10.736455
_cell_length_b                    10.660909
_cell_length_c                    9.819684
_cell_angle_alpha                 89.90214
_cell_angle_beta                  90.794964
_cell_angle_gamma                 90.601011
_cell_volume                      1123.79327503

loop_
_atom_site_label
_atom_site_type_symbol
_atom_type_description
_atom_site_fract_x
_atom_site_fract_y
_atom_site_fract_z
_atom_type_partial_charge
C1    C     C_R   0.500624 0.259938 0.500116 0.860319
C2    C     C_R   0.500996 0.740103 0.500106 0.862546
C3    C     C_R   0.872182 0.494543 0.502644 -0.095716
C4    C     C_R   0.127186 0.497364 0.495411 -0.094692
C5    C     C_R   0.939407 0.447068 0.615329 0.025955
C6    C     C_R   0.059180 0.538117 0.379893 0.014806
C7    C     C_R   0.558121 0.065198 0.393089 -0.185217
C8    C     C_R   0.449006 0.935064 0.609608 -0.201688
C9    C     C_R   0.559097 0.936610 0.393574 -0.216789
C10   C     C_R   0.448671 0.063515 0.609512 -0.201601
C11   C     C_R   0.503070 0.872484 0.500932 -0.004645
C12   C     C_R   0.502392 0.127649 0.500768 0.005379
C13   C     C_R   0.555778 0.595470 0.072652 -0.081694
C14   C     C_R   0.445205 0.403978 0.927348 -0.074485
C15   C     C_R   0.555562 0.595567 0.928658 -0.062622
C16   C     C_R   0.445379 0.403911 0.071357 -0.060101
C17   C     C_R   0.259805 0.500048 0.498581 0.865168
C18   C     C_R   0.739938 0.498119 0.501124 0.861439
C19   C     C_R   0.198224 0.732479 0.090930 0.247900
C20   C     C_R   0.764653 0.226287 0.856940 0.269518
C21   C     C_R   0.153359 0.700708 0.221700 0.232752
C22   C     C_R   0.822184 0.272792 0.737416 0.181828
C23   C     C_R   0.115034 0.575704 0.248422 0.036134
C24   C     C_R   0.880031 0.393059 0.738442 0.053455
C25   C     C_R   0.120540 0.485447 0.145040 -0.173385
C26   C     C_R   0.881978 0.464112 0.858304 -0.182493
C27   C     C_R   0.163728 0.517693 0.016479 -0.183288
C28   C     C_R   0.827582 0.417694 0.976169 -0.199737
C29   C     C_R   0.201967 0.640323 0.989147 -0.236845
C30   C     C_R   0.769682 0.300109 0.976162 -0.173306
C31   C     C_R   0.931824 0.538429 0.386406 -0.248992
C32   C     C_R   0.067361 0.451267 0.611046 -0.250416
H1    H     H_    0.235419 0.663527 0.888546 0.153997
H2    H     H_    0.728684 0.268210 0.070116 0.153869
H3    H     H_    0.600240 0.671812 0.874627 0.128646
H4    H     H_    0.401009 0.327476 0.125375 0.126611
H5    H     H_    0.089866 0.389914 0.163877 0.149940
H6    H     H_    0.925474 0.556260 0.860129 0.155154
H7    H     H_    0.167301 0.447184 0.937641 0.149327
H8    H     H_    0.829810 0.473496 0.068145 0.157597
H9    H     H_    0.879140 0.573418 0.299446 0.157076
H10   H     H_    0.120280 0.415418 0.697240 0.154492
H11   H     H_    0.601327 0.115660 0.309965 0.142215
H12   H     H_    0.405630 0.884877 0.692874 0.146169
H13   H     H_    0.602730 0.887467 0.310585 0.145815
H14   H     H_    0.405387 0.112474 0.692854 0.147802
H15   H     H_    0.600727 0.671545 0.127779 0.117421
H16   H     H_    0.400668 0.327672 0.872225 0.114509
N1    N     N_R   0.499970 0.499970 0.857200 -0.074429
N2    N     N_R   0.500030 0.500030 0.142800 -0.073117
O1    O     O_R   0.499990 0.316750 0.614620 -0.625595
O2    O     O_R   0.500010 0.683250 0.385380 -0.628043
O3    O     O_R   0.499990 0.316780 0.385290 -0.633197
O4    O     O_R   0.500010 0.683220 0.614710 -0.631348
O5    O     O_R   0.316760 0.500000 0.614660 -0.630524
O6    O     O_R   0.683240 0.500000 0.385340 -0.631391
O7    O     O_R   0.316760 0.500020 0.385330 -0.606160
O8    O     O_R   0.683240 0.499980 0.614670 -0.606833
Zn1   Zn    Zn3+2 0.500000 0.499980 0.653120 0.942241
Zn2   Zn    Zn3+2 0.500000 0.500020 0.346880 0.940734
N3    N     N_2   0.235539 0.857780 0.059798 -0.310681
H17   H     H_    0.229723 0.879978 0.957590 0.208032
C33   C     C_3   0.353204 0.896798 0.120112 -0.755570
H18   H     H_    0.430030 0.839949 0.078817 0.220356
H19   H     H_    0.351383 0.886686 0.232336 0.280362
H20   H     H_    0.371020 0.997134 0.096098 0.230344
N4    N     N_2   0.705667 0.104810 0.855466 -0.302266
H21   H     H_    0.683404 0.068634 0.760882 0.267931
C34   C     C_3   0.615856 0.072713 0.958828 -0.857842
H22   H     H_    0.573896 0.979353 0.935736 0.241294
H23   H     H_    0.540305 0.142959 0.960427 0.239689
H24   H     H_    0.662255 0.066015 0.060212 0.242976
N5    N     N_2   0.146750 0.794459 0.324441 -0.304188
H25   H     H_    0.160124 0.762569 0.422674 0.216217
C35   C     C_3   0.041523 0.877258 0.311282 -0.790000
H26   H     H_    0.052954 0.955223 0.385097 0.241132
H27   H     H_    0.953660 0.825350 0.332825 0.227605
H28   H     H_    0.035983 0.918503 0.207481 0.261323
N6    N     N_2   0.820977 0.197937 0.617304 -0.326410
H29   H     H_    0.811490 0.246331 0.527003 0.222252
C36   C     C_3   0.917955 0.105159 0.612923 -0.830507
H30   H     H_    0.010253 0.151721 0.600768 0.244045
H31   H     H_    0.899849 0.041845 0.525244 0.246571
H32   H     H_    0.918876 0.047375 0.707190 0.254870

loop_
_geom_bond_atom_site_label_1
_geom_bond_atom_site_label_2
_ccdc_geom_bond_type
C33   H19   S    
C9    H13   S    
O5    Zn1   S    
C27   C29   A    
N5    H25   S    
C20   N4    S    
C36   H30   S    
C20   C30   A    
C19   C21   A    
C24   C26   A    
C22   N6    S    
C14   N1    A    
C28   H8    S    
C21   N5    S    
C3    C18   S    
C34   H23   S    
N3    C33   S    
C1    O3    A    
O2    Zn2   S    
C25   H5    S    
C18   O8    A    
C29   H1    S    
C27   H7    S    
C10   H14   S    
C7    H11   S    
C17   O5    A    
C18   O6    A    
C9    C11   A    
C5    C32   A    
C15   N1    A    
C6    C31   A    
C33   H20   S    
N5    C35   S    
N3    H17   S    
C1    C12   S    
C2    C11   S    
C10   C12   A    
C15   H3    S    
C36   H31   S    
O3    Zn2   S    
O4    Zn1   S    
C7    C12   A    
C30   H2    S    
N4    H21   S    
C4    C6    A    
C2    O4    A    
N6    C36   S    
C26   H6    S    
O7    Zn2   S    
C14   H16   S    
O8    Zn1   S    
C33   H18   S    
N4    C34   S    
C34   H24   S    
C35   H26   S    
C1    O1    A    
C3    C31   A    
C35   H27   S    
C4    C32   A    
C2    O2    A    
C4    C17   S    
C20   C22   A    
C13   C15   A    
C22   C24   A    
O1    Zn1   S    
C19   C29   A    
C36   H32   S    
C13   H15   S    
C7    C9    A    
C31   H9    S    
C8    H12   S    
C16   N2    A    
C3    C5    A    
C25   C27   A    
C26   C28   A    
N1    Zn1   S    
N2    Zn2   S    
C21   C23   A    
C16   H4    S    
C5    C24   S    
C19   N3    S    
C8    C11   A    
C6    C23   S    
C28   C30   A    
C13   N2    A    
C14   C16   A    
C23   C25   A    
C34   H22   S    
C35   H28   S    
N6    H29   S    
O6    Zn2   S    
C8    C10   A    
C32   H10   S    
C17   O7    A    
