data_mof_unit_18423.cif
_audit_creation_date              2012-12-11T17:41:21-0500
_audit_creation_method            fapswitch 2.2
_symmetry_space_group_name_H-M    P1
_symmetry_Int_Tables_number       1
_space_group_crystal_system       triclinic
_cell_length_a                    15.755161
_cell_length_b                    15.303193
_cell_length_c                    14.988921
_cell_angle_alpha                 109.145817
_cell_angle_beta                  121.446148
_cell_angle_gamma                 59.423741
_cell_volume                      2644.76787824

loop_
_atom_site_label
_atom_site_type_symbol
_atom_type_description
_atom_site_fract_x
_atom_site_fract_y
_atom_site_fract_z
_atom_type_partial_charge
C1    C     C_R   0.803450 0.937412 0.772493 -0.140524
C2    C     C_R   0.246836 0.006943 0.208705 -0.123339
C3    C     C_R   0.144230 0.276802 0.488013 0.092556
C4    C     C_R   0.778102 0.700217 0.430871 0.126457
C5    C     C_R   0.507324 0.318898 0.537072 0.059510
C6    C     C_R   0.494383 0.695133 0.545604 0.093638
C7    C     C_R   0.509118 0.048338 0.827471 0.028855
C8    C     C_R   0.496863 0.071640 0.200790 0.059694
C9    C     C_R   0.803231 0.748783 0.975966 -0.239584
C10   C     C_R   0.226245 0.376798 0.151713 -0.264482
C11   C     C_R   0.705855 0.832236 0.974035 0.143258
C12   C     C_R   0.319998 0.315132 0.133270 0.167765
C13   C     C_R   0.706331 0.929861 0.012559 0.045872
C14   C     C_R   0.315839 0.236215 0.050934 0.079225
C15   C     C_R   0.803239 0.941314 0.053914 -0.205957
C16   C     C_R   0.217135 0.226643 0.983421 -0.254814
C17   C     C_R   0.897544 0.858329 0.051170 -0.197230
C18   C     C_R   0.124488 0.290134 0.000872 -0.192610
C19   C     C_R   0.898026 0.761633 0.010804 0.205676
C20   C     C_R   0.128738 0.363588 0.086439 0.218235
C21   C     C_R   0.602799 0.032436 0.110204 -0.244221
C22   C     C_R   0.422519 0.150280 0.947227 -0.291482
C23   C     C_R   0.204394 0.275832 0.445642 -0.167741
C24   C     C_R   0.748009 0.712912 0.506964 -0.175713
C25   C     C_R   0.504151 0.092885 0.117452 0.053771
C26   C     C_R   0.516386 0.076793 0.933606 0.066840
C27   C     C_R   0.415300 0.158347 0.038737 0.050671
C28   C     C_R   0.609006 0.019609 0.018736 0.048259
C29   C     C_2   0.037749 0.355800 0.482316 -0.226329
C30   C     C_2   0.830811 0.599941 0.382539 -0.226865
C31   C     C_2   0.972948 0.426853 0.414176 -0.107714
C32   C     C_2   0.883235 0.516285 0.432261 -0.107183
C33   C     C_2   0.979438 0.957853 0.842845 -0.226671
C34   C     C_2   0.161978 0.880631 0.100164 -0.232823
C35   C     C_R   0.174371 0.796300 0.612122 0.339962
C36   C     C_R   0.795314 0.194164 0.454138 0.343260
C37   C     C_R   0.277749 0.720612 0.623570 -0.240198
C38   C     C_R   0.700558 0.277344 0.457362 -0.233457
C39   C     C_R   0.301516 0.678792 0.536750 -0.034783
C40   C     C_R   0.700663 0.332032 0.552692 -0.043822
C41   C     C_R   0.217308 0.707411 0.434649 0.114321
C42   C     C_R   0.797684 0.303362 0.647541 0.095205
C43   C     C_R   0.120180 0.796549 0.426944 0.273699
C44   C     C_R   0.894993 0.223002 0.643110 0.298106
C45   C     C_R   0.595266 0.226115 0.555530 -0.121500
C46   C     C_R   0.406004 0.782708 0.503774 -0.186061
C47   C     C_R   0.098820 0.838368 0.515630 -0.244633
C48   C     C_R   0.892255 0.168341 0.546720 -0.246272
C49   C     C_R   0.424312 0.501373 0.562732 -0.288064
C50   C     C_R   0.584927 0.513135 0.544319 -0.231521
C51   C     C_R   0.514597 0.413868 0.557863 0.036735
C52   C     C_R   0.494035 0.601459 0.547899 0.057139
C53   C     C_R   0.598232 0.419780 0.552145 0.102748
C54   C     C_R   0.410013 0.595007 0.552769 0.072528
C55   C     C_2   0.041280 0.890953 0.915238 -0.101875
C56   C     C_2   0.135592 0.903304 0.007619 -0.100200
C57   C     C_R   0.414570 0.059088 0.733869 -0.106530
C58   C     C_R   0.586641 0.025843 0.288447 -0.178325
C59   C     C_R   0.411826 0.303486 0.472024 -0.131914
C60   C     C_R   0.587873 0.708154 0.578308 -0.149793
C61   C     C_R   0.595692 0.985123 0.803328 -0.127405
C62   C     C_R   0.407116 0.085160 0.207535 -0.131094
C63   C     C_R   0.199364 0.185268 0.532138 0.145431
C64   C     C_R   0.755031 0.797922 0.416423 0.161189
C65   C     C_R   0.802454 0.028979 0.683127 -0.174883
C66   C     C_R   0.243418 0.917958 0.298689 -0.171871
C67   C     C_R   0.865239 0.976184 0.771151 0.162571
C68   C     C_R   0.216652 0.932087 0.198567 0.171168
H1    H     H_    0.832685 0.880781 0.821763 0.094256
H2    H     H_    0.236208 0.038633 0.147273 0.088233
H3    H     H_    0.132345 0.832265 0.103281 0.119980
H4    H     H_    0.009341 0.008285 0.843155 0.134322
H5    H     H_    0.806241 0.673184 0.951347 0.140184
H6    H     H_    0.229238 0.434532 0.217131 0.119965
H7    H     H_    0.804994 0.015221 0.086576 0.147907
H8    H     H_    0.213495 0.166705 0.919999 0.154629
H9    H     H_    0.970144 0.870004 0.082067 0.123816
H10   H     H_    0.049762 0.280006 0.949743 0.132722
H11   H     H_    0.672923 0.982275 0.170357 0.138873
H12   H     H_    0.352848 0.198439 0.885239 0.133856
H13   H     H_    0.874710 0.518672 0.500353 0.126872
H14   H     H_    0.993633 0.425219 0.354881 0.143241
H15   H     H_    0.839046 0.595377 0.313993 0.158083
H16   H     H_    0.014823 0.358768 0.540638 0.133454
H17   H     H_    0.022151 0.903270 0.509154 0.131285
H18   H     H_    0.965553 0.104816 0.543346 0.157192
H19   H     H_    0.179089 0.329456 0.395106 0.096177
H20   H     H_    0.753448 0.655165 0.538016 0.105190
H21   H     H_    0.339236 0.692389 0.699858 0.149319
H22   H     H_    0.625641 0.298804 0.386371 0.154685
H23   H     H_    0.359888 0.495875 0.565875 0.145843
H24   H     H_    0.646768 0.515897 0.534112 0.126560
H25   H     H_    0.680196 0.208830 0.605981 0.110500
H26   H     H_    0.321763 0.807508 0.483688 0.115821
H27   H     H_    0.333423 0.112151 0.723743 0.122519
H28   H     H_    0.663285 0.030765 0.321080 0.113882
H29   H     H_    0.328450 0.360086 0.438551 0.095769
H30   H     H_    0.671103 0.661015 0.628421 0.087614
H31   H     H_    0.680517 0.967731 0.852730 0.126881
H32   H     H_    0.322178 0.129771 0.160083 0.113607
H33   H     H_    0.832190 0.054845 0.650455 0.106534
H34   H     H_    0.225832 0.870915 0.319593 0.089535
H35   H     H_    0.167198 0.949527 0.003164 0.127253
H36   H     H_    0.012439 0.840448 0.916335 0.129043
N1    N     N_R   0.705410 0.966550 0.689210 -0.043882
N2    N     N_R   0.294590 0.033450 0.310790 -0.045327
N3    N     N_R   0.294590 0.188320 0.465660 -0.052553
N4    N     N_R   0.705410 0.811680 0.534340 -0.054379
N5    N     N_R   0.556610 0.157790 0.497330 -0.039922
N6    N     N_R   0.443390 0.842210 0.502670 -0.039612
N7    N     N_R   0.443390 0.997080 0.657540 -0.038758
N8    N     N_R   0.556610 0.002920 0.342460 -0.038415
N9    N     N_R   0.443390 0.203250 0.451380 -0.037503
N10   N     N_R   0.556610 0.796750 0.548620 -0.032987
N11   N     N_R   0.556610 0.951620 0.703500 -0.043603
N12   N     N_R   0.443390 0.048380 0.296500 -0.038468
N13   N     N_R   0.294590 0.131500 0.522480 -0.060088
N14   N     N_R   0.705410 0.868500 0.477520 -0.067295
N15   N     N_R   0.705410 0.023370 0.632390 -0.040489
N16   N     N_R   0.294590 0.976630 0.367610 -0.049106
Ni1   Ni    Ni4+2 0.629830 0.882720 0.617850 0.204142
Ni2   Ni    Ni4+2 0.370170 0.117280 0.382150 0.207777
Ni3   Ni    Ni4+2 0.629830 0.013030 0.487540 0.204931
Ni4   Ni    Ni4+2 0.370170 0.986970 0.512460 0.211383
C69   C     C_3   0.999892 0.671610 0.007457 -0.467259
C70   C     C_3   0.982395 0.626739 0.894568 -0.249937
C71   C     C_3   0.085622 0.534169 0.892740 -0.926739
H37   H     H_    0.155069 0.555891 0.928991 0.265737
H38   H     H_    0.107682 0.473710 0.936196 0.272246
H39   H     H_    0.070812 0.503262 0.810303 0.246887
H40   H     H_    0.914158 0.602976 0.855652 0.192988
H41   H     H_    0.960768 0.685349 0.848975 0.193507
H42   H     H_    0.067537 0.695392 0.042926 0.202286
H43   H     H_    0.024206 0.612754 0.054382 0.197619
C72   C     C_3   0.028085 0.427941 0.105693 -0.470280
C73   C     C_3   0.995113 0.362275 0.129512 -0.220029
C74   C     C_3   0.880352 0.421987 0.123832 -0.942635
H44   H     H_    0.874854 0.492816 0.176554 0.257916
H45   H     H_    0.818658 0.441690 0.042295 0.264151
H46   H     H_    0.861771 0.375226 0.148464 0.258545
H47   H     H_    0.995715 0.293938 0.072659 0.193373
H48   H     H_    0.054836 0.335550 0.209090 0.185203
H49   H     H_    0.042897 0.485874 0.172750 0.175839
H50   H     H_    0.960255 0.469180 0.034920 0.198770
C75   C     C_3   0.603372 0.815314 0.928873 -0.422424
C76   C     C_3   0.611125 0.758388 0.001767 -0.251362
C77   C     C_3   0.508976 0.739376 0.954460 -0.905206
H51   H     H_    0.434724 0.812704 0.940630 0.261122
H52   H     H_    0.500093 0.691278 0.879013 0.259648
H53   H     H_    0.516312 0.699079 0.009392 0.253464
H54   H     H_    0.683702 0.683871 0.015598 0.199328
H55   H     H_    0.619937 0.804343 0.078324 0.205137
H56   H     H_    0.528877 0.888056 0.914752 0.202389
H57   H     H_    0.590827 0.772022 0.850797 0.193134
C78   C     C_3   0.423353 0.333101 0.202212 -0.449232
C79   C     C_3   0.454155 0.364346 0.138739 -0.248890
C80   C     C_3   0.552205 0.391650 0.208326 -0.925835
H58   H     H_    0.544308 0.443015 0.278363 0.261582
H59   H     H_    0.628942 0.321658 0.234687 0.268978
H60   H     H_    0.558766 0.430255 0.162536 0.257807
H61   H     H_    0.476089 0.301735 0.080818 0.214366
H62   H     H_    0.382872 0.429730 0.093447 0.211364
H63   H     H_    0.412666 0.392647 0.266870 0.191809
H64   H     H_    0.491699 0.263113 0.240598 0.189731
C81   C     C_3   0.147850 0.835457 0.704509 -1.026404
H65   H     H_    0.063967 0.897529 0.684044 0.250858
H66   H     H_    0.152883 0.772573 0.731118 0.263861
H67   H     H_    0.207274 0.865422 0.770047 0.254664
C82   C     C_3   0.794344 0.132120 0.352943 -1.075863
H68   H     H_    0.821343 0.051525 0.361084 0.240675
H69   H     H_    0.711152 0.158298 0.286911 0.260994
H70   H     H_    0.851139 0.137085 0.334114 0.262987
C83   C     C_3   0.226861 0.638048 0.337054 -0.407850
C84   C     C_3   0.243550 0.681225 0.271573 -0.266612
C85   C     C_3   0.279500 0.602274 0.191391 -0.995703
H71   H     H_    0.365615 0.550334 0.233783 0.289781
H72   H     H_    0.227998 0.559286 0.146808 0.282990
H73   H     H_    0.274958 0.639597 0.135828 0.263183
H74   H     H_    0.166641 0.744535 0.229131 0.204451
H75   H     H_    0.309558 0.706877 0.322839 0.220877
H76   H     H_    0.295199 0.561888 0.358770 0.195256
H77   H     H_    0.151983 0.623740 0.287493 0.171205
C86   C     C_3   0.794699 0.355862 0.751965 -0.379013
C87   C     C_3   0.801174 0.458618 0.776331 -0.221399
C88   C     C_3   0.712225 0.543871 0.808419 -0.948730
H78   H     H_    0.632132 0.539119 0.758850 0.278830
H79   H     H_    0.736099 0.540323 0.891494 0.256130
H80   H     H_    0.700915 0.617835 0.797706 0.239357
H81   H     H_    0.882835 0.452236 0.840707 0.180269
H82   H     H_    0.793553 0.480187 0.707740 0.186779
H83   H     H_    0.719530 0.364318 0.750307 0.188903
H84   H     H_    0.861757 0.307927 0.817814 0.169823
C89   C     C_3   0.037587 0.847627 0.326089 -1.075345
H85   H     H_    0.961133 0.907799 0.331177 0.258731
H86   H     H_    0.071059 0.885346 0.309170 0.245570
H87   H     H_    0.015123 0.791963 0.259776 0.278134
C90   C     C_3   0.002312 0.197186 0.739456 -1.114512
H88   H     H_    0.071664 0.141813 0.720987 0.269181
H89   H     H_    0.016593 0.267158 0.776261 0.266496
H90   H     H_    0.002101 0.163918 0.794862 0.248290
C91   C     C_3   0.144015 0.146835 0.559369 -0.471147
C92   C     C_3   0.183817 0.030481 0.549149 -0.220157
C93   C     C_3   0.218147 0.989520 0.648827 -0.925080
H91   H     H_    0.281805 0.910123 0.653801 0.264103
H92   H     H_    0.146241 0.991186 0.646483 0.265037
H93   H     H_    0.251632 0.033886 0.722268 0.248670
H94   H     H_    0.117413 0.009109 0.483204 0.191099
H95   H     H_    0.251809 0.989923 0.527786 0.207958
H96   H     H_    0.148358 0.181822 0.638429 0.190448
H97   H     H_    0.055128 0.178062 0.505254 0.182078
C94   C     C_3   0.783622 0.822433 0.349454 -0.452193
C95   C     C_3   0.893399 0.746044 0.345939 -0.240309
C96   C     C_3   0.880232 0.707329 0.233814 -0.968478
H98   H     H_    0.825017 0.668249 0.193420 0.256235
H99   H     H_    0.844902 0.772419 0.189349 0.281837
H100  H     H_    0.961267 0.653673 0.234793 0.247284
H101  H     H_    0.945071 0.786486 0.379779 0.220565
H102  H     H_    0.941469 0.682730 0.396445 0.198984
H103  H     H_    0.715049 0.832618 0.269359 0.206276
H104  H     H_    0.792284 0.894800 0.385415 0.158540

loop_
_geom_bond_atom_site_label_1
_geom_bond_atom_site_label_2
_ccdc_geom_bond_type
C69   H43   S    
C33   C55   D    
C15   H7    S    
C55   C56   S    
C34   C56   D    
C80   H58   S    
N11   Ni1   S    
C41   C43   A    
C82   H68   S    
C66   H34   S    
C3    C23   A    
C77   H51   S    
C65   H33   S    
N4    Ni1   S    
C93   H91   S    
C45   H25   S    
C86   H84   S    
C75   C76   S    
C72   C73   S    
C39   C41   A    
C96   H98   S    
C62   H32   S    
C32   H13   S    
C93   H92   S    
C36   C82   S    
C81   H65   S    
C7    C26   S    
C9    H5    S    
C58   N8    A    
C47   H17   S    
C79   C80   S    
C35   C37   A    
N13   Ni4   S    
C2    C68   A    
C4    C24   A    
C45   N5    A    
C88   H79   S    
C39   C54   S    
C95   H101  S    
C49   C54   A    
C64   N14   A    
C87   C88   S    
C90   H89   S    
C91   C92   S    
C30   H15   S    
C3    C29   S    
C58   H28   S    
C84   C85   S    
C7    C61   A    
C78   H64   S    
C73   H48   S    
C33   H4    S    
N6    Ni4   S    
N10   Ni1   S    
C60   N10   A    
C9    C19   A    
N9    Ni2   S    
C94   C95   S    
C10   C20   A    
C49   C51   A    
C61   N11   A    
C50   C52   A    
N2    N16   A    
C64   C94   S    
C24   N4    A    
C14   C27   S    
C63   C91   S    
N6    N10   A    
C18   C20   A    
C59   N9    A    
C75   H56   S    
C40   C42   A    
C83   H76   S    
C44   C90   S    
C81   H66   S    
C38   C40   A    
C23   H19   S    
C8    C25   S    
C82   H69   S    
N2    Ni2   S    
C61   H31   S    
C42   C44   A    
C49   H23   S    
C91   H96   S    
C74   H46   S    
C52   C54   A    
C85   H73   S    
C96   H99   S    
C37   C39   A    
C93   H93   S    
C50   C53   A    
C92   C93   S    
C5    C59   A    
N4    N14   A    
C92   H94   S    
C10   H6    S    
C77   H53   S    
N8    Ni3   S    
C85   H72   S    
C34   C68   S    
N5    Ni3   S    
C88   H80   S    
N15   Ni3   S    
C65   C67   A    
C83   C84   S    
C5    C45   A    
C55   H36   S    
C2    N2    A    
C1    H1    S    
C51   C53   A    
C90   H90   S    
C86   C87   S    
C71   H38   S    
C62   N12   A    
C73   H47   S    
C94   H104  S    
C6    C60   A    
C74   H45   S    
C17   H9    S    
C31   C32   S    
C46   H26   S    
C13   C15   A    
C70   H41   S    
C18   H10   S    
C89   H87   S    
C23   N3    A    
C21   H11   S    
C89   H86   S    
C65   N15   A    
N1    Ni1   S    
C13   C28   S    
C16   C18   A    
C38   H22   S    
C31   H14   S    
C10   C12   A    
C29   H16   S    
C76   H55   S    
C75   H57   S    
C50   H24   S    
C72   H50   S    
C21   C28   A    
C12   C14   A    
C83   H77   S    
C89   H85   S    
C81   H67   S    
C3    C63   A    
C22   C27   A    
C9    C11   A    
C57   H27   S    
C69   C70   S    
C59   H29   S    
C82   H70   S    
C14   C16   A    
C41   C83   S    
C12   C78   S    
C17   C19   A    
C71   H37   S    
C84   H75   S    
C91   H97   S    
N8    N12   A    
C33   C67   S    
C76   C77   S    
N12   Ni2   S    
C96   H100  S    
C69   H42   S    
C15   C17   A    
C21   C25   A    
C87   H82   S    
C8    C58   A    
C6    C46   A    
C77   H52   S    
N7    Ni4   S    
C16   H8    S    
C24   H20   S    
C11   C75   S    
C56   H35   S    
C73   C74   S    
C86   H83   S    
C79   H61   S    
N7    N11   A    
C66   C68   A    
N5    N9    A    
C42   C86   S    
C25   C27   A    
C94   H103  S    
C74   H44   S    
C4    C64   A    
C26   C28   A    
C37   H21   S    
C43   C89   S    
C78   H63   S    
C46   N6    A    
C71   H39   S    
C22   H12   S    
C29   C31   D    
C85   H71   S    
C30   C32   D    
C80   H60   S    
C11   C13   A    
C88   H78   S    
C57   N7    A    
C95   H102  S    
C70   H40   S    
C70   C71   S    
C63   N13   A    
C34   H3    S    
C36   C38   A    
C72   H49   S    
C1    C67   A    
C19   C69   S    
C36   C48   A    
C48   H18   S    
N14   Ni3   S    
C20   C72   S    
C90   H88   S    
C7    C57   A    
C66   N16   A    
C79   H62   S    
C76   H54   S    
N16   Ni4   S    
C95   C96   S    
C80   H59   S    
C40   C53   S    
C22   C26   A    
C60   H30   S    
C1    N1    A    
C78   C79   S    
C35   C81   S    
C87   H81   S    
N1    N15   A    
C92   H95   S    
N3    Ni2   S    
C6    C52   S    
C35   C47   A    
C2    H2    S    
C43   C47   A    
C84   H74   S    
N3    N13   A    
C4    C30   S    
C44   C48   A    
C8    C62   A    
C5    C51   S    
