data_mof_unit_59158.cif
_audit_creation_date              2012-12-10T17:58:19-0500
_audit_creation_method            fapswitch 2.2
_symmetry_space_group_name_H-M    P1
_symmetry_Int_Tables_number       1
_space_group_crystal_system       triclinic
_cell_length_a                    9.585529
_cell_length_b                    10.736955
_cell_length_c                    15.379117
_cell_angle_alpha                 89.192136
_cell_angle_beta                  74.813016
_cell_angle_gamma                 91.5659
_cell_volume                      1526.59019132

loop_
_atom_site_label
_atom_site_type_symbol
_atom_type_description
_atom_site_fract_x
_atom_site_fract_y
_atom_site_fract_z
_atom_type_partial_charge
C1    C     C_R   0.999087 0.262649 0.498936 0.843927
C2    C     C_R   0.001540 0.737488 0.499937 0.836871
C3    C     C_R   0.569593 0.425599 0.093255 -0.209319
C4    C     C_R   0.422147 0.524106 0.902438 -0.209419
C5    C     C_R   0.712591 0.405015 0.049389 -0.199774
C6    C     C_R   0.277724 0.539483 0.945534 -0.205193
C7    C     C_R   0.915809 0.062462 0.573048 -0.338412
C8    C     C_R   0.084686 0.937972 0.425362 -0.329257
C9    C     C_R   0.918163 0.932989 0.575836 0.277328
C10   C     C_R   0.083814 0.067622 0.423212 0.264358
C11   C     C_R   0.003537 0.871426 0.501397 -0.074121
C12   C     C_R   0.998164 0.128905 0.497556 -0.077645
C13   C     C_R   0.549850 0.407194 0.544631 0.365785
C14   C     C_R   0.450206 0.592602 0.455309 0.362480
C15   C     C_R   0.402199 0.409201 0.544429 -0.113035
C16   C     C_R   0.597839 0.590663 0.455449 -0.091735
C17   C     C_R   0.919135 0.495551 0.672528 0.805183
C18   C     C_R   0.080808 0.500986 0.327263 0.807639
C19   C     C_R   0.875479 0.480645 0.771846 -0.125771
C20   C     C_R   0.123914 0.504115 0.227315 -0.118534
C21   C     C_R   0.909260 0.407254 0.914849 -0.235989
C22   C     C_R   0.082225 0.543584 0.080316 -0.231634
C23   C     C_R   0.965402 0.429829 0.822569 0.247839
C24   C     C_R   0.028058 0.531439 0.173588 0.250489
C25   C     C_R   0.732357 0.507352 0.815929 -0.305998
C26   C     C_R   0.269871 0.484879 0.184584 -0.297961
C27   C     C_R   0.672286 0.477580 0.907730 0.090889
C28   C     C_R   0.324308 0.492288 0.090308 0.088677
C29   C     C_R   0.764909 0.430504 0.957512 0.099256
C30   C     C_R   0.228104 0.525190 0.038644 0.100178
C31   C     C_R   0.523019 0.492560 0.951209 0.074503
C32   C     C_R   0.472039 0.470867 0.046157 0.074546
Cu1   Cu    Cu3+1 0.140660 0.500020 0.500000 0.923929
Cu2   Cu    Cu3+1 0.859340 0.499980 0.500000 0.936355
H1    H     H_    0.340595 0.467587 0.226948 0.166712
H2    H     H_    0.669725 0.552330 0.776588 0.171517
H3    H     H_    0.978806 0.368587 0.953109 0.156353
H4    H     H_    0.009008 0.567932 0.040121 0.156560
H5    H     H_    0.538397 0.400480 0.163846 0.135692
H6    H     H_    0.449861 0.533994 0.830122 0.145339
H7    H     H_    0.852771 0.111543 0.630564 0.141358
H8    H     H_    0.146533 0.889078 0.367377 0.142711
H9    H     H_    0.327008 0.337927 0.580817 0.158822
H10   H     H_    0.672909 0.662174 0.419122 0.154811
N1    N     N_R   0.352080 0.500030 0.499980 -0.212212
N2    N     N_R   0.647920 0.499970 0.500020 -0.212835
O1    O     O_R   0.118740 0.319660 0.500000 -0.581436
O2    O     O_R   0.881260 0.680340 0.500000 -0.569398
O3    O     O_R   0.881170 0.319630 0.500010 -0.586534
O4    O     O_R   0.118830 0.680370 0.499990 -0.587930
O5    O     O_R   0.055570 0.500030 0.629830 -0.583790
O6    O     O_R   0.944430 0.499970 0.370170 -0.580903
O7    O     O_R   0.818000 0.500000 0.629840 -0.587626
O8    O     O_R   0.182000 0.500000 0.370160 -0.594632
H11   H     H_    0.782870 0.368340 0.087877 0.151880
H12   H     H_    0.204254 0.563621 0.905478 0.153396
N3    N     N_2   0.877660 0.548857 0.210076 -0.436016
H13   H     H_    0.822634 0.483865 0.257418 0.269787
C33   C     C_3   0.838094 0.676598 0.228614 -0.670999
H14   H     H_    0.878607 0.736054 0.166930 0.230576
H15   H     H_    0.883902 0.712607 0.283019 0.219387
H16   H     H_    0.718452 0.681667 0.250172 0.229709
N4    N     N_2   0.110623 0.396543 0.783531 -0.436502
H17   H     H_    0.176138 0.462125 0.741432 0.268477
C34   C     C_3   0.127172 0.269696 0.753045 -0.673615
H18   H     H_    0.071923 0.203363 0.808240 0.230141
H19   H     H_    0.243754 0.248314 0.732766 0.228339
H20   H     H_    0.081080 0.256945 0.694461 0.220604
N5    N     N_2   0.835252 0.865285 0.653298 -0.425934
H21   H     H_    0.740946 0.907696 0.685589 0.248335
C35   C     C_3   0.917319 0.828417 0.715541 -0.702016
H22   H     H_    0.959150 0.912161 0.743517 0.221653
H23   H     H_    0.009345 0.770727 0.681495 0.232411
H24   H     H_    0.846440 0.772279 0.771980 0.228923
N6    N     N_2   0.160276 0.135970 0.344355 -0.437793
H25   H     H_    0.144949 0.099152 0.285824 0.246657
C36   C     C_3   0.311796 0.161005 0.337772 -0.663298
H26   H     H_    0.373172 0.074424 0.322035 0.204861
H27   H     H_    0.327146 0.199240 0.401458 0.249156
H28   H     H_    0.355963 0.230530 0.282632 0.221641
N7    N     N_2   0.590447 0.308756 0.594967 -0.435057
H29   H     H_    0.674909 0.324494 0.622970 0.296478
C37   C     C_3   0.579763 0.184300 0.561489 -0.720506
H30   H     H_    0.605041 0.115039 0.608931 0.224282
H31   H     H_    0.657034 0.175367 0.494221 0.250471
H32   H     H_    0.468536 0.162132 0.556220 0.216604
N8    N     N_2   0.409341 0.691546 0.405704 -0.442230
H33   H     H_    0.325277 0.675858 0.377319 0.295246
C38   C     C_3   0.418112 0.814987 0.441104 -0.709629
H34   H     H_    0.390795 0.884788 0.395056 0.224441
H35   H     H_    0.529336 0.838084 0.445991 0.219263
H36   H     H_    0.341363 0.821520 0.508792 0.251863

loop_
_geom_bond_atom_site_label_1
_geom_bond_atom_site_label_2
_ccdc_geom_bond_type
N8    H33   S    
N4    C34   S    
C27   C29   A    
Cu1   N1    S    
C17   O5    A    
N7    H29   S    
C18   O6    A    
C36   H26   S    
C6    H12   S    
C37   H30   S    
C9    N5    S    
C14   N8    S    
C13   N2    A    
N3    C33   S    
C34   H19   S    
C22   H4    S    
C13   N7    S    
N5    C35   S    
C2    O4    A    
C4    H6    S    
C24   N3    S    
C33   H16   S    
Cu2   N2    S    
C14   C16   A    
C38   H35   S    
C16   H10   S    
C23   N4    S    
C3    H5    S    
C33   H14   S    
C3    C32   A    
C1    C12   S    
C2    C11   S    
N7    C37   S    
C14   N1    A    
C5    C29   A    
C36   H27   S    
C21   C23   A    
C7    C12   A    
C33   H15   S    
C27   C31   A    
C20   C24   A    
C28   C32   A    
C4    C6    A    
C16   N2    A    
C35   H23   S    
C1    O1    A    
C2    O2    A    
Cu1   O4    S    
C21   C29   A    
C19   C23   A    
N6    H25   S    
N6    C36   S    
C10   N6    S    
C31   C32   A    
C34   H20   S    
Cu1   Cu2   S    
C38   H36   S    
C9    C11   A    
C10   C12   A    
C37   H31   S    
C13   C15   A    
C25   C27   A    
Cu1   O1    S    
C22   C24   A    
Cu2   O2    S    
C15   N1    A    
C17   O7    A    
C36   H28   S    
Cu1   O8    S    
C7    C9    A    
Cu2   O3    S    
C22   C30   A    
C6    C30   A    
Cu2   O6    S    
C5    H11   S    
C8    H8    S    
C3    C5    A    
C35   H24   S    
Cu1   O5    S    
C26   C28   A    
C28   C30   A    
C15   H9    S    
C35   H22   S    
N3    H13   S    
C20   C26   A    
C8    C11   A    
C17   C19   S    
C18   C20   S    
C7    H7    S    
N5    H21   S    
C19   C25   A    
C4    C31   A    
C18   O8    A    
C25   H2    S    
N4    H17   S    
C26   H1    S    
C37   H32   S    
C21   H3    S    
Cu2   O7    S    
C8    C10   A    
C34   H18   S    
N8    C38   S    
C38   H34   S    
C1    O3    A    
