data_mof_unit_56045.cif
_audit_creation_date              2012-12-10T20:59:39-0500
_audit_creation_method            fapswitch 2.2
_symmetry_space_group_name_H-M    P1
_symmetry_Int_Tables_number       1
_space_group_crystal_system       triclinic
_cell_length_a                    15.812241
_cell_length_b                    15.00505
_cell_length_c                    10.822424
_cell_angle_alpha                 89.935636
_cell_angle_beta                  90.081385
_cell_angle_gamma                 89.594219
_cell_volume                      2567.69720145

loop_
_atom_site_label
_atom_site_type_symbol
_atom_type_description
_atom_site_fract_x
_atom_site_fract_y
_atom_site_fract_z
_atom_type_partial_charge
C1    C     C_R   0.338783 0.500434 0.499966 0.904768
C2    C     C_1   0.176042 0.504217 0.517759 -0.075348
C3    C     C_1   0.250637 0.502059 0.508077 -0.178369
C4    C     C_1   0.749393 0.498416 0.511512 -0.208731
C5    C     C_R   0.423322 0.953562 0.488673 -0.184784
C6    C     C_R   0.423360 0.047557 0.487230 -0.192919
C7    C     C_R   0.500570 0.499552 0.257204 0.830894
C8    C     C_R   0.499719 0.905053 0.493244 0.089354
C9    C     C_R   0.499720 0.094989 0.490361 0.086168
C10   C     C_R   0.576056 0.952500 0.495929 -0.190442
C11   C     C_R   0.576057 0.046440 0.494386 -0.184818
C12   C     C_3   0.583713 0.535495 0.927042 -0.450375
C13   C     C_1   0.499860 0.807278 0.496857 0.027199
C14   C     C_1   0.499778 0.192774 0.494973 0.062385
C15   C     C_R   0.661150 0.499557 0.503059 0.897340
C16   C     C_R   0.497930 0.499970 0.742969 0.857514
C17   C     C_3   0.428535 0.562741 0.070257 -0.174850
C18   C     C_3   0.488154 0.398427 0.071796 -0.199579
C19   C     C_3   0.422957 0.561055 0.926904 -0.204223
C20   C     C_3   0.478872 0.401520 0.930222 -0.196048
C21   C     C_3   0.593300 0.532596 0.072712 0.006276
C22   C     C_3   0.501430 0.497374 0.121846 -0.034420
C23   C     C_R   0.953128 0.581596 0.522317 -0.240269
C24   C     C_3   0.497241 0.500109 0.878810 0.010584
C25   C     C_R   0.340256 0.560828 0.129471 0.085280
C26   C     C_R   0.318491 0.627069 0.216346 -0.131860
C27   C     C_R   0.235968 0.634975 0.260477 -0.134896
C28   C     C_R   0.173401 0.576932 0.219579 -0.105631
C29   C     C_R   0.193331 0.510708 0.134153 -0.160181
C30   C     C_R   0.275537 0.503172 0.088087 -0.196586
C31   C     C_R   0.426861 0.329772 0.132509 0.118416
C32   C     C_R   0.442976 0.237863 0.113299 -0.176937
C33   C     C_R   0.391743 0.172209 0.165229 -0.136912
C34   C     C_R   0.957754 0.420295 0.539215 -0.242624
C35   C     C_R   0.324316 0.196166 0.241045 -0.135000
C36   C     C_R   0.309699 0.285631 0.267682 -0.141919
C37   C     C_R   0.361001 0.351271 0.215886 -0.052221
C38   C     C_R   0.399632 0.654970 0.875084 0.136297
C39   C     C_R   0.456766 0.717033 0.823631 -0.086941
C40   C     C_R   0.431183 0.803980 0.794809 -0.161422
C41   C     C_R   0.347818 0.830873 0.813398 -0.137049
C42   C     C_R   0.289316 0.770324 0.858998 -0.155864
C43   C     C_R   0.314600 0.683512 0.888368 -0.160713
C44   C     C_R   0.524799 0.320758 0.871665 0.175308
C45   C     C_R   0.912703 0.499839 0.528912 0.140615
C46   C     C_R   0.613232 0.308508 0.878038 -0.154480
C47   C     C_R   0.651037 0.229766 0.835930 -0.145462
C48   C     C_R   0.601331 0.161017 0.789711 -0.125572
C49   C     C_R   0.513769 0.171536 0.783399 -0.157252
C50   C     C_R   0.475911 0.251472 0.820433 -0.121218
C51   C     C_R   0.616912 0.626097 0.130545 0.103842
C52   C     C_R   0.590045 0.708649 0.081012 -0.193030
C53   C     C_R   0.611560 0.789996 0.134952 -0.128222
C54   C     C_R   0.661745 0.791888 0.240415 -0.131651
C55   C     C_R   0.690259 0.712335 0.292008 -0.122567
C56   C     C_R   0.045700 0.421587 0.541413 -0.000533
C57   C     C_R   0.668304 0.631066 0.238308 -0.049134
C58   C     C_R   0.674672 0.473697 0.097704 0.060621
C59   C     C_R   0.750890 0.498432 0.037325 -0.153171
C60   C     C_R   0.827371 0.454257 0.060034 -0.138864
C61   C     C_R   0.831287 0.385776 0.146557 -0.110377
C62   C     C_R   0.758943 0.362266 0.211510 -0.121668
C63   C     C_R   0.682173 0.406192 0.189100 -0.224058
C64   C     C_R   0.081851 0.673925 0.504513 0.116940
C65   C     C_R   0.149621 0.701196 0.579631 -0.131739
C66   C     C_R   0.187735 0.783891 0.559986 -0.153417
C67   C     C_R   0.041068 0.585442 0.521990 -0.003557
C68   C     C_R   0.157530 0.841078 0.467913 -0.139663
C69   C     C_R   0.089352 0.815522 0.394361 -0.138660
C70   C     C_R   0.051774 0.732468 0.412169 -0.190074
C71   C     C_R   0.092930 0.335663 0.548773 0.132069
C72   C     C_R   0.078001 0.268226 0.461520 -0.173085
C73   C     C_R   0.123522 0.188049 0.466863 -0.156000
C74   C     C_R   0.184019 0.174436 0.559338 -0.121525
C75   C     C_R   0.199105 0.240933 0.646759 -0.128633
C76   C     C_R   0.153550 0.321093 0.642034 -0.141010
C77   C     C_R   0.087115 0.504419 0.530966 0.053193
C78   C     C_1   0.824077 0.498087 0.519950 -0.059115
H1    H     H_    0.451196 0.629922 0.092985 0.161732
H2    H     H_    0.924419 0.357456 0.544446 0.143944
H3    H     H_    0.363689 0.083277 0.484815 0.124703
H4    H     H_    0.363544 0.918747 0.487103 0.125017
H5    H     H_    0.365064 0.674271 0.248557 0.148908
H6    H     H_    0.220864 0.686534 0.326349 0.168681
H7    H     H_    0.109491 0.583016 0.254196 0.137384
H8    H     H_    0.144891 0.465342 0.102918 0.131429
H9    H     H_    0.288362 0.450445 0.022720 0.127193
H10   H     H_    0.497386 0.215870 0.061228 0.147149
H11   H     H_    0.405356 0.102501 0.148176 0.136621
H12   H     H_    0.548804 0.365196 0.088803 0.156549
H13   H     H_    0.285024 0.145340 0.282079 0.124233
H14   H     H_    0.259784 0.304297 0.331182 0.156358
H15   H     H_    0.351442 0.417568 0.249359 0.145436
H16   H     H_    0.522018 0.701429 0.806597 0.129795
H17   H     H_    0.476565 0.850951 0.758772 0.132506
H18   H     H_    0.328317 0.898274 0.790943 0.124295
H19   H     H_    0.224079 0.790608 0.871706 0.133642
H20   H     H_    0.267039 0.638785 0.923358 0.144618
H21   H     H_    0.653531 0.357090 0.919750 0.144897
H22   H     H_    0.718932 0.221169 0.842244 0.132959
H23   H     H_    0.635799 0.916865 0.500136 0.123557
H24   H     H_    0.630582 0.099313 0.759759 0.129051
H25   H     H_    0.474961 0.117646 0.749676 0.137418
H26   H     H_    0.407723 0.257325 0.814747 0.105393
H27   H     H_    0.550426 0.711833 0.002614 0.129443
H28   H     H_    0.588844 0.851792 0.094738 0.132048
H29   H     H_    0.678493 0.854895 0.282025 0.123311
H30   H     H_    0.729456 0.713358 0.374095 0.125203
H31   H     H_    0.692468 0.571852 0.282216 0.122975
H32   H     H_    0.751534 0.553819 0.973106 0.130787
H33   H     H_    0.884006 0.474202 0.011543 0.127068
H34   H     H_    0.635790 0.081248 0.497835 0.128489
H35   H     H_    0.890710 0.352002 0.164919 0.116382
H36   H     H_    0.762496 0.310533 0.281182 0.131177
H37   H     H_    0.630839 0.386380 0.246251 0.173103
H38   H     H_    0.172995 0.658773 0.653308 0.133187
H39   H     H_    0.240928 0.803821 0.615681 0.147489
H40   H     H_    0.187137 0.905064 0.453356 0.116912
H41   H     H_    0.066092 0.859710 0.322674 0.127887
H42   H     H_    0.000041 0.713288 0.352385 0.126401
H43   H     H_    0.031894 0.278172 0.388590 0.122233
H44   H     H_    0.112085 0.136541 0.399050 0.123607
H45   H     H_    0.366742 0.523344 0.896988 0.111270
H46   H     H_    0.218952 0.112240 0.563484 0.110199
H47   H     H_    0.245966 0.230293 0.718383 0.118097
H48   H     H_    0.165548 0.371802 0.710900 0.117424
H49   H     H_    0.410673 0.389737 0.911698 0.119430
H50   H     H_    0.597698 0.602001 0.890485 0.153045
H51   H     H_    0.632599 0.495543 0.878971 0.150496
H52   H     H_    0.915770 0.642325 0.515051 0.141234
N1    N     N_1   0.500020 0.270550 0.499960 -0.080893
N2    N     N_1   0.500020 0.729450 0.499960 -0.088325
O1    O     O_R   0.378020 0.573650 0.500000 -0.607464
O2    O     O_R   0.378020 0.426350 0.500000 -0.618466
O3    O     O_R   0.499990 0.573670 0.314770 -0.614862
O4    O     O_R   0.499990 0.426330 0.314770 -0.638099
O5    O     O_R   0.621980 0.573680 0.499940 -0.619496
O6    O     O_R   0.621980 0.426320 0.499940 -0.611508
O7    O     O_R   0.500010 0.573660 0.685180 -0.626274
O8    O     O_R   0.500010 0.426340 0.685180 -0.608998
Zn1   Zn    Zn3+2 0.500000 0.598370 0.499960 0.962955
Zn2   Zn    Zn3+2 0.500000 0.401630 0.499960 0.969668

loop_
_geom_bond_atom_site_label_1
_geom_bond_atom_site_label_2
_ccdc_geom_bond_type
C66   C68   A    
C46   H21   S    
C34   C56   A    
C26   H5    S    
C23   C45   A    
C72   H43   S    
C76   H48   S    
C41   C42   A    
C74   H46   S    
C35   C36   A    
C67   C77   A    
C43   H20   S    
C9    C14   S    
C21   C58   S    
C6    C9    A    
C53   C54   A    
C50   H26   S    
C19   H45   S    
C26   C27   A    
C29   C30   A    
C54   H29   S    
C27   C28   A    
C28   C29   A    
O8    Zn2   S    
C62   H36   S    
C69   C70   A    
C5    C6    A    
C33   C35   A    
C41   H18   S    
C32   H10   S    
C17   H1    S    
C59   H32   S    
C7    O4    A    
C4    C78   T    
C73   C74   A    
C23   C67   A    
O4    Zn2   S    
C34   H2    S    
C54   C55   A    
C53   H28   S    
C57   H31   S    
C31   C32   A    
C70   H42   S    
C68   C69   A    
C66   H39   S    
C45   C78   S    
C51   C57   A    
C64   C70   A    
C15   O6    A    
C63   H37   S    
C36   H14   S    
C59   C60   A    
C16   C24   S    
C6    H3    S    
C21   C22   S    
C16   O8    A    
C1    O1    A    
C20   C44   S    
C44   C46   A    
C14   N1    T    
C12   H51   S    
C51   C52   A    
C18   H12   S    
C64   C67   S    
C20   C24   S    
C20   H49   S    
O6    Zn2   S    
C42   H19   S    
C39   C40   A    
C58   C59   A    
C12   C21   S    
C69   H41   S    
C47   H22   S    
C31   C37   A    
C23   H52   S    
C60   C61   A    
C1    C3    S    
C75   C76   A    
C39   H16   S    
C7    O3    A    
C62   C63   A    
C19   C38   S    
C33   H11   S    
O2    Zn2   S    
C75   H47   S    
C47   C48   A    
C56   C71   S    
C48   H24   S    
C37   H15   S    
C34   C45   A    
C9    C11   A    
C29   H8    S    
N1    Zn2   S    
C8    C10   A    
C48   C49   A    
C52   H27   S    
C65   C66   A    
C55   C57   A    
C61   H35   S    
C65   H38   S    
C16   O7    A    
C42   C43   A    
C40   H17   S    
C1    O2    A    
C71   C76   A    
C21   C51   S    
C52   C53   A    
C44   C50   A    
C25   C30   A    
O5    Zn1   S    
C46   C47   A    
C27   H6    S    
C11   H34   S    
C18   C22   S    
C73   H44   S    
C10   H23   S    
C58   C63   A    
C72   C73   A    
C49   H25   S    
C5    C8    A    
C12   H50   S    
C7    C22   S    
C12   C24   S    
O1    Zn1   S    
C17   C22   S    
C55   H30   S    
C17   C25   S    
C64   C65   A    
C4    C15   S    
C2    C3    T    
C25   C26   A    
C38   C43   A    
C2    C77   S    
C32   C33   A    
C5    H4    S    
O7    Zn1   S    
C38   C39   A    
C17   C19   S    
C13   N2    T    
C19   C24   S    
C18   C20   S    
C61   C62   A    
C10   C11   A    
C56   C77   A    
C8    C13   S    
N2    Zn1   S    
O3    Zn1   S    
C68   H40   S    
C74   C75   A    
C36   C37   A    
C49   C50   A    
C28   H7    S    
C60   H33   S    
C40   C41   A    
C18   C31   S    
C71   C72   A    
C30   H9    S    
C15   O5    A    
C35   H13   S    
