data_mof_unit_45734.cif
_audit_creation_date              2012-12-10T17:49:32-0500
_audit_creation_method            fapswitch 2.2
_symmetry_space_group_name_H-M    P1
_symmetry_Int_Tables_number       1
_space_group_crystal_system       triclinic
_cell_length_a                    14.704665
_cell_length_b                    14.742069
_cell_length_c                    15.87874
_cell_angle_alpha                 76.881192
_cell_angle_beta                  102.834782
_cell_angle_gamma                 114.992591
_cell_volume                      3007.17567822

loop_
_atom_site_label
_atom_site_type_symbol
_atom_type_description
_atom_site_fract_x
_atom_site_fract_y
_atom_site_fract_z
_atom_type_partial_charge
C1    C     C_R   0.880166 0.312347 0.515433 0.794424
C2    C     C_3   0.017469 0.406948 0.071829 -0.382977
C3    C     C_3   0.999096 0.499414 0.082804 0.306784
C4    C     C_3   0.083222 0.597429 0.045069 -0.381006
C5    C     C_3   0.082364 0.597489 0.947264 -0.447372
C6    C     C_1   0.000190 0.499568 0.175162 -0.100957
C7    C     C_1   0.998500 0.499683 0.824691 -0.067723
C8    C     C_1   0.999039 0.499929 0.749195 -0.173480
C9    C     C_R   0.812316 0.204898 0.529065 -0.049550
C10   C     C_R   0.188046 0.794888 0.486768 -0.042723
C11   C     C_R   0.784112 0.027350 0.563845 -0.202177
C12   C     C_R   0.999751 0.500023 0.659652 0.823481
C13   C     C_R   0.850264 0.128642 0.551106 -0.198693
C14   C     C_R   0.707908 0.178914 0.521442 -0.256032
C15   C     C_R   0.640066 0.077580 0.536340 0.086778
C16   C     C_R   0.679433 0.001219 0.555619 0.166539
C17   C     C_R   0.533969 0.049946 0.530171 0.068478
C18   C     C_R   0.467902 0.946796 0.529219 0.059453
C19   C     C_R   0.509901 0.872858 0.554864 -0.232968
C20   C     C_R   0.613954 0.899659 0.567567 -0.230880
C21   C     C_R   0.491991 0.120803 0.528784 -0.220202
C22   C     C_R   0.388072 0.090926 0.524310 -0.215563
C23   C     C_R   0.119944 0.687739 0.485735 0.818982
C24   C     C_R   0.322273 0.991611 0.514311 0.135361
C25   C     C_R   0.361400 0.920142 0.509868 0.043328
C26   C     C_R   0.217589 0.963085 0.508263 -0.204926
C27   C     C_R   0.151343 0.864189 0.498307 -0.254527
C28   C     C_R   0.292146 0.825745 0.484232 0.100805
C29   C     C_R   0.714953 0.667062 0.354562 -0.322592
C30   C     C_R   0.796995 0.638415 0.378089 0.077878
C31   C     C_R   0.714433 0.508697 0.487831 0.009143
C32   C     C_R   0.628087 0.533976 0.467052 -0.023511
C33   C     C_R   0.630492 0.615450 0.398866 0.165632
C34   C     C_R   0.000253 0.500003 0.340337 0.834431
C35   C     C_R   0.540732 0.482577 0.511428 0.079303
C36   C     C_R   0.457452 0.514286 0.486519 0.075950
C37   C     C_R   0.464505 0.596416 0.418446 -0.242979
C38   C     C_R   0.549134 0.645502 0.375606 -0.197044
C39   C     C_R   0.533948 0.400925 0.579966 -0.238434
C40   C     C_R   0.449998 0.352974 0.623764 -0.210053
C41   C     C_R   0.368920 0.383475 0.600791 0.167175
C42   C     C_R   0.370426 0.463423 0.531291 -0.022077
C43   C     C_R   0.285699 0.334004 0.646761 -0.327040
C44   C     C_R   0.204176 0.363509 0.623722 0.077905
C45   C     C_3   0.019438 0.408214 0.974426 -0.381211
C46   C     C_R   0.283755 0.488158 0.509904 -0.003325
C47   C     C_3   0.894255 0.494636 0.931262 0.024039
C48   C     C_3   0.895104 0.493484 0.029867 -0.420506
C49   C     C_1   0.000573 0.499734 0.250771 -0.178707
C50   C     C_3   0.997820 0.499183 0.916906 0.320634
Cu1   Cu    Cu3+1 0.081750 0.475690 0.522550 0.939522
Cu2   Cu    Cu3+1 0.918250 0.524310 0.477450 0.936909
H1    H     H_    0.956486 0.335534 0.096669 0.161977
H2    H     H_    0.095221 0.414100 0.966622 0.162297
H3    H     H_    0.090732 0.408039 0.110939 0.167984
H4    H     H_    0.071455 0.664980 0.052124 0.164606
H5    H     H_    0.643181 0.840522 0.586213 0.147839
H6    H     H_    0.071318 0.842012 0.499377 0.165313
H7    H     H_    0.358945 0.146437 0.527083 0.150664
H8    H     H_    0.814735 0.969338 0.579757 0.132506
H9    H     H_    0.930816 0.147149 0.557778 0.152689
H10   H     H_    0.680478 0.238835 0.501179 0.151722
H11   H     H_    0.963276 0.335504 0.953311 0.167019
H12   H     H_    0.463475 0.793785 0.570347 0.155386
H13   H     H_    0.538096 0.198706 0.536550 0.141147
H14   H     H_    0.187220 0.016508 0.513918 0.140825
H15   H     H_    0.551050 0.708210 0.323770 0.139995
H16   H     H_    0.276141 0.544571 0.455809 0.131734
H17   H     H_    0.139692 0.325235 0.658926 0.124425
H18   H     H_    0.448552 0.291055 0.676318 0.142314
H19   H     H_    0.717713 0.729525 0.302303 0.135959
H20   H     H_    0.862549 0.678502 0.344336 0.127144
H21   H     H_    0.720016 0.448834 0.539214 0.124585
H22   H     H_    0.884838 0.564616 0.893757 0.137803
H23   H     H_    0.405902 0.625489 0.396728 0.138187
H24   H     H_    0.592702 0.372061 0.601933 0.132191
H25   H     H_    0.283652 0.272797 0.700137 0.135030
H26   H     H_    0.833635 0.424115 0.056912 0.165450
H27   H     H_    0.880166 0.559152 0.037054 0.149456
H28   H     H_    0.157643 0.603892 0.937512 0.176797
H29   H     H_    0.070014 0.664977 0.907402 0.161842
H30   H     H_    0.158719 0.603264 0.082211 0.171273
N1    N     N_R   0.795410 0.560790 0.443550 -0.177895
N2    N     N_R   0.204590 0.439170 0.556520 -0.176944
O1    O     O_R   0.977910 0.338120 0.529720 -0.590028
O2    O     O_R   0.839850 0.379180 0.491640 -0.589779
O3    O     O_R   0.069060 0.479460 0.639610 -0.582371
O4    O     O_R   0.931000 0.520530 0.601530 -0.575480
O5    O     O_R   0.160150 0.620820 0.508360 -0.572143
O6    O     O_R   0.022090 0.661880 0.470280 -0.597848
O7    O     O_R   0.069000 0.479470 0.398470 -0.575841
O8    O     O_R   0.930940 0.520540 0.360390 -0.577998
N3    N     N_3   0.321732 0.770720 0.438651 -0.610639
H31   H     H_    0.383338 0.819351 0.406093 0.225532
H32   H     H_    0.339837 0.714335 0.482287 0.219968
N4    N     N_3   0.808774 0.407658 0.897839 -0.597406
H33   H     H_    0.806052 0.340710 0.939320 0.223700
H34   H     H_    0.741568 0.415499 0.898792 0.215317

loop_
_geom_bond_atom_site_label_1
_geom_bond_atom_site_label_2
_ccdc_geom_bond_type
C10   C27   A    
N3    H31   S    
C41   C42   A    
C36   C42   A    
C35   C36   A    
C9    C14   A    
C3    C6    S    
Cu1   O1    S    
C7    C8    T    
C25   C28   A    
C26   C27   A    
C37   C38   A    
C40   H18   S    
C48   H27   S    
C36   C37   A    
C24   C26   A    
C2    H3    S    
C31   H21   S    
C15   C16   A    
C14   H10   S    
C29   C33   A    
C3    C48   S    
C31   N1    A    
C18   C19   A    
C42   C46   A    
C48   H26   S    
C30   N1    A    
C9    C13   A    
C34   O7    A    
Cu1   O7    S    
Cu2   O6    S    
C19   C20   A    
N4    H34   S    
C47   N4    S    
C23   O5    A    
C16   C20   A    
C37   H23   S    
N3    H32   S    
C21   C22   A    
C4    H4    S    
C41   C43   A    
C18   C25   A    
C47   C50   S    
C2    C45   S    
C1    O1    A    
C12   O4    A    
Cu1   Cu2   S    
C26   H14   S    
C32   C35   A    
Cu2   O4    S    
C1    C9    S    
C24   C25   A    
C7    C50   S    
Cu1   O3    S    
C22   H7    S    
C45   H11   S    
C17   C21   A    
C28   N3    S    
Cu2   N1    S    
C35   C39   A    
C43   C44   A    
C46   H16   S    
C29   C30   A    
C5    H29   S    
C11   C16   A    
C47   C48   S    
C19   H12   S    
C8    C12   S    
N4    H33   S    
C17   C18   A    
C23   O6    A    
C4    H30   S    
C44   H17   S    
C39   H24   S    
C5    H28   S    
C46   N2    A    
C40   C41   A    
C45   H2    S    
C22   C24   A    
C5    C50   S    
Cu2   O8    S    
C11   H8    S    
C39   C40   A    
C10   C28   A    
C1    O2    A    
C15   C17   A    
C34   C49   S    
C12   O3    A    
C21   H13   S    
C31   C32   A    
C47   H22   S    
C4    C5    S    
C44   N2    A    
C2    H1    S    
C30   H20   S    
C10   C23   S    
C43   H25   S    
C33   C38   A    
C32   C33   A    
Cu2   O2    S    
C2    C3    S    
Cu1   O5    S    
C11   C13   A    
C45   C50   S    
C27   H6    S    
C6    C49   T    
C34   O8    A    
C13   H9    S    
C38   H15   S    
C14   C15   A    
C20   H5    S    
Cu1   N2    S    
C3    C4    S    
C29   H19   S    
