data_mof_unit_39811.cif
_audit_creation_date              2012-12-11T16:08:36-0500
_audit_creation_method            fapswitch 2.2
_symmetry_space_group_name_H-M    P1
_symmetry_Int_Tables_number       1
_space_group_crystal_system       triclinic
_cell_length_a                    12.941857
_cell_length_b                    13.309665
_cell_length_c                    27.714507
_cell_angle_alpha                 94.580733
_cell_angle_beta                  90.455712
_cell_angle_gamma                 119.158646
_cell_volume                      4149.55583962

loop_
_atom_site_label
_atom_site_type_symbol
_atom_type_description
_atom_site_fract_x
_atom_site_fract_y
_atom_site_fract_z
_atom_type_partial_charge
C1    C     C_R   0.626972 0.897189 0.427061 0.560205
C2    C     C_R   0.582310 0.259193 0.222414 0.225542
C3    C     C_R   0.572918 0.247695 0.272120 -0.018008
C4    C     C_R   0.662977 0.326569 0.305605 -0.011788
C5    C     C_R   0.685052 0.352718 0.205899 0.088429
C6    C     C_1   0.695579 0.373071 0.155220 0.010299
C7    C     C_1   0.652391 0.306235 0.356064 -0.014627
C8    C     C_1   0.704774 0.397845 0.113954 0.011983
C9    C     C_R   0.178903 0.750507 0.349259 0.197950
C10   C     C_R   0.183566 0.753186 0.298867 -0.058539
C11   C     C_R   0.189243 0.755631 0.197889 0.030730
C12   C     C_R   0.601933 0.224237 0.441268 0.565891
C13   C     C_R   0.209456 0.674854 0.220508 0.255143
C14   C     C_R   0.201452 0.671595 0.270287 -0.050841
C15   C     C_R   0.167335 0.743593 0.147801 -0.110245
C16   C     C_R   0.131502 0.813979 0.126402 -0.009731
C17   C     C_R   0.187210 0.938176 0.357468 0.176929
C18   C     C_R   0.171721 0.932306 0.306443 -0.012091
C19   C     C_R   0.179556 0.843945 0.277328 -0.083661
C20   C     C_R   0.155918 0.015960 0.283402 0.321316
C21   C     C_R   0.157684 0.016697 0.232963 0.289791
C22   C     C_R   0.162211 0.926472 0.204076 -0.019747
C23   C     C_R   0.267201 0.875649 0.425741 0.568422
C24   C     C_R   0.178726 0.843165 0.226491 -0.007606
C25   C     C_R   0.137138 0.909781 0.153776 -0.117691
C26   C     C_R   0.202198 0.851741 0.378213 0.027239
C27   C     C_R   0.657960 0.964194 0.347193 0.193842
C28   C     C_R   0.677724 0.954353 0.297996 -0.072150
C29   C     C_R   0.684617 0.923169 0.196740 0.010768
C30   C     C_R   0.713220 0.033008 0.219867 0.332360
C31   C     C_R   0.719718 0.050275 0.270141 0.269543
C32   C     C_R   0.697837 0.906962 0.146715 0.233282
C33   C     C_R   0.675737 0.797368 0.126684 -0.009232
C34   C     C_R   0.627255 0.899077 0.565080 0.534101
C35   C     C_R   0.620755 0.767550 0.354922 0.184786
C36   C     C_R   0.619080 0.750563 0.304246 0.066901
C37   C     C_R   0.649113 0.844594 0.275859 -0.061005
C38   C     C_R   0.589071 0.641329 0.281345 -0.062074
C39   C     C_R   0.588808 0.625031 0.231304 -0.111341
C40   C     C_R   0.620656 0.717998 0.203438 0.016800
C41   C     C_R   0.650962 0.828673 0.225303 -0.026582
C42   C     C_R   0.629789 0.702722 0.154209 -0.151076
C43   C     C_R   0.640402 0.875575 0.376063 0.044324
C44   C     C_R   0.742246 0.293068 0.651999 0.219059
C45   C     C_R   0.604745 0.228975 0.578202 0.552508
C46   C     C_R   0.753870 0.314020 0.702971 -0.038092
C47   C     C_R   0.765630 0.337739 0.805360 0.016776
C48   C     C_R   0.855068 0.327548 0.779983 0.234010
C49   C     C_R   0.849598 0.318818 0.729492 -0.029322
C50   C     C_R   0.774914 0.362250 0.856026 -0.109252
C51   C     C_R   0.686558 0.375202 0.879915 0.001044
C52   C     C_R   0.575658 0.331265 0.651379 0.218983
C53   C     C_R   0.574413 0.333540 0.702106 0.076871
C54   C     C_R   0.665124 0.325840 0.727933 -0.089211
C55   C     C_R   0.483862 0.341659 0.727552 0.277346
C56   C     C_R   0.271987 0.879428 0.563386 0.538994
C57   C     C_R   0.485642 0.342686 0.778058 -0.150776
C58   C     C_R   0.578081 0.341075 0.803550 -0.018343
C59   C     C_R   0.669102 0.333611 0.778898 0.013961
C60   C     C_R   0.584256 0.355096 0.853764 -0.118927
C61   C     C_R   0.647600 0.293856 0.626606 0.007751
C62   C     C_1   0.222156 0.862193 0.609999 0.028663
C63   C     C_R   0.062212 0.755914 0.717116 0.260444
C64   C     C_R   0.047348 0.743697 0.767608 0.261013
C65   C     C_R   0.241742 0.913147 0.785643 -0.167538
C66   C     C_R   0.258436 0.921760 0.736217 -0.162225
C67   C     C_1   0.635059 0.276613 0.396572 0.044224
C68   C     C_R   0.169727 0.843466 0.702010 0.051804
C69   C     C_R   0.137231 0.824374 0.801428 0.050480
C70   C     C_1   0.122249 0.813499 0.852583 0.022629
C71   C     C_1   0.193103 0.852145 0.651312 0.037738
C72   C     C_1   0.099843 0.797112 0.894300 0.020865
C73   C     C_1   0.641460 0.868329 0.612030 0.025082
C74   C     C_R   0.650214 0.924541 0.738463 0.256630
C75   C     C_R   0.654739 0.913140 0.788987 0.260418
C76   C     C_R   0.644524 0.726529 0.770015 -0.160309
C77   C     C_R   0.645981 0.740291 0.720655 -0.157158
C78   C     C_R   0.764308 0.418574 0.289511 -0.084303
C79   C     C_R   0.649830 0.839087 0.704835 0.048382
C80   C     C_R   0.649223 0.812372 0.804134 0.048544
C81   C     C_1   0.662129 0.801493 0.854820 0.026525
C82   C     C_1   0.647318 0.851167 0.653718 0.024108
C83   C     C_1   0.681086 0.791337 0.896268 0.015448
C84   C     C_R   0.065566 0.772795 0.079149 0.545595
C85   C     C_R   0.717286 0.441733 0.067479 0.546344
C86   C     C_R   0.719344 0.781726 0.080345 0.534784
C87   C     C_R   0.056507 0.766250 0.941303 0.543455
C88   C     C_R   0.709845 0.433724 0.929059 0.549314
C89   C     C_R   0.775935 0.432773 0.239605 0.259904
C90   C     C_R   0.715857 0.776353 0.943148 0.541844
Cr1   Cr    Cr6+3 0.416430 0.829200 0.492370 1.098442
Cr2   Cr    Cr6+3 0.674630 0.087020 0.504170 1.111204
Cr3   Cr    Cr6+3 0.408920 0.083740 0.503490 1.086498
Cr4   Cr    Cr6+3 0.914010 0.832750 0.013970 1.059366
Cr5   Cr    Cr6+3 0.922310 0.578600 0.003000 1.059665
Cr6   Cr    Cr6+3 0.656280 0.574630 0.003870 1.033041
O1    O     O_R   0.296680 0.802170 0.437540 -0.429912
O2    O     O_R   0.662610 0.183990 0.557860 -0.443408
O3    O     O_R   0.500730 0.201280 0.562180 -0.496909
O4    O     O_R   0.312500 0.978850 0.548170 -0.494946
O5    O     O_3   0.499990 0.999990 0.500010 -0.276882
O6    O     O_R   0.820790 0.857990 0.068830 -0.478491
O7    O     O_R   0.016700 0.827330 0.062850 -0.499935
O8    O     O_R   0.041970 0.673520 0.060040 -0.509154
O9    O     O_R   0.817980 0.483660 0.048840 -0.476695
O10   O     O_R   0.637200 0.461990 0.052510 -0.517355
O11   O     O_R   0.664790 0.681920 0.057970 -0.512448
O12   O     O_R   0.525380 0.838530 0.443500 -0.488755
O13   O     O_R   0.815840 0.852920 0.961840 -0.498470
O14   O     O_R   0.012100 0.822630 0.963670 -0.497394
O15   O     O_R   0.037010 0.668460 0.953040 -0.499560
O16   O     O_R   0.813390 0.478970 0.949660 -0.497275
O17   O     O_R   0.632250 0.456930 0.945520 -0.518730
O18   O     O_R   0.660200 0.677230 0.958780 -0.498723
O19   O     O_3   0.830870 0.661990 0.006950 -0.254478
O20   O     O_R   0.702130 0.995190 0.446810 -0.466550
O21   O     O_R   0.661770 0.181390 0.458760 -0.457574
O22   O     O_R   0.499820 0.198480 0.455280 -0.487439
O23   O     O_R   0.311660 0.976250 0.449080 -0.493212
O24   O     O_R   0.297580 0.804960 0.544440 -0.496051
O25   O     O_R   0.526220 0.841130 0.542590 -0.500813
O26   O     O_R   0.703030 0.997990 0.553710 -0.491897
H1    H     H_    0.834237 0.478620 0.315649 0.111688
O27   O     O_3   0.149384 0.104745 0.213265 -0.612200
H2    H     H_    0.194876 0.122827 0.183628 0.328870
O28   O     O_3   0.136681 0.097937 0.308899 -0.573263
H3    H     H_    0.071697 0.056310 0.330598 0.345321
O29   O     O_3   0.195336 0.031742 0.386029 -0.652286
H4    H     H_    0.156983 0.003699 0.416658 0.328415
O30   O     O_3   0.740430 0.999628 0.118984 -0.656174
H5    H     H_    0.713546 0.970701 0.084629 0.326205
O31   O     O_3   0.642019 0.053722 0.367133 -0.680912
H6    H     H_    0.599727 0.071870 0.342241 0.331000
O32   O     O_3   0.740201 0.127094 0.194683 -0.575501
H7    H     H_    0.673341 0.102834 0.170586 0.345064
O33   O     O_3   0.771282 0.163084 0.290706 -0.646340
H8    H     H_    0.812324 0.168553 0.321939 0.359745
H9    H     H_    0.612452 0.618436 0.138235 0.148281
H10   H     H_    0.566542 0.540078 0.214444 0.123413
H11   H     H_    0.565745 0.568005 0.301921 0.183475
O34   O     O_3   0.874700 0.524233 0.222970 -0.675905
H12   H     H_    0.928942 0.572590 0.251050 0.322152
O35   O     O_3   0.599685 0.677087 0.382057 -0.700371
H13   H     H_    0.618190 0.705328 0.416834 0.327453
H14   H     H_    0.854167 0.380312 0.876797 0.144628
O36   O     O_3   0.819245 0.267837 0.626428 -0.654690
H15   H     H_    0.832714 0.212916 0.643996 0.337895
O37   O     O_3   0.949370 0.325847 0.802711 -0.687378
H16   H     H_    0.922836 0.288014 0.832981 0.324016
H17   H     H_    0.921458 0.314784 0.711417 0.171593
H18   H     H_    0.514583 0.363333 0.872047 0.140699
H19   H     H_    0.416403 0.348679 0.797702 0.104667
O38   O     O_3   0.392588 0.344897 0.702703 -0.609558
H20   H     H_    0.337448 0.350340 0.726058 0.323690
O39   O     O_3   0.502999 0.360898 0.626502 -0.597962
H21   H     H_    0.540046 0.391204 0.595915 0.326578
O40   O     O_3   0.974606 0.685304 0.682101 -0.694938
H22   H     H_    0.896449 0.656810 0.696388 0.325697
O41   O     O_3   0.489224 0.177376 0.191880 -0.715558
H23   H     H_    0.507850 0.191004 0.157688 0.322241
O42   O     O_3   0.948675 0.653523 0.784975 -0.703795
H24   H     H_    0.915378 0.586475 0.760092 0.333643
H25   H     H_    0.311287 0.974621 0.811582 0.136722
H26   H     H_    0.341218 0.989531 0.724585 0.139973
O43   O     O_3   0.644870 0.016286 0.720843 -0.720662
H27   H     H_    0.607217 0.045899 0.744693 0.324467
O44   O     O_3   0.668141 0.999097 0.824052 -0.708253
H28   H     H_    0.708918 0.074541 0.810305 0.329893
H29   H     H_    0.642814 0.649942 0.781715 0.143961
H30   H     H_    0.643733 0.673638 0.694788 0.151133
H31   H     H_    0.494942 0.175466 0.284643 0.151366
H32   H     H_    0.163470 0.670554 0.126023 0.156077
O45   O     O_3   0.161286 0.654034 0.371215 -0.660297
H33   H     H_    0.107079 0.584155 0.349682 0.323528
O46   O     O_3   0.233999 0.595772 0.195436 -0.666150
H34   H     H_    0.279759 0.631208 0.167182 0.316983
H35   H     H_    0.215566 0.607663 0.286573 0.180327
H36   H     H_    0.109256 0.963313 0.136471 0.151547

loop_
_geom_bond_atom_site_label_1
_geom_bond_atom_site_label_2
_ccdc_geom_bond_type
C66   C68   A    
O28   H3    S    
C42   H9    S    
C86   O11   A    
Cr2   O21   S    
O29   H4    S    
C63   O40   S    
C32   O30   S    
O42   H24   S    
C57   C58   A    
Cr2   O2    S    
C87   O14   A    
C53   C54   A    
Cr5   O8    S    
C52   O39   S    
C20   O28   S    
C2    O41   S    
C46   C49   A    
O40   H22   S    
C49   H17   S    
C17   C26   A    
C36   C37   A    
O35   H13   S    
C8    C85   S    
C29   C32   A    
C2    C3    A    
Cr5   O16   S    
O41   H23   S    
C23   O23   A    
C30   C31   A    
C89   O34   S    
C87   O15   A    
C58   C60   A    
C15   C16   A    
C57   H19   S    
C11   C24   A    
C16   C84   S    
C55   O38   S    
C18   C19   A    
C23   C26   S    
C88   O17   A    
Cr5   O9    S    
C11   C15   A    
C1    C43   S    
C35   C36   A    
Cr5   O19   S    
O31   H6    S    
C30   O32   S    
C22   C25   A    
C15   H32   S    
C44   O36   S    
Cr6   O19   S    
C9    O45   S    
C1    O20   A    
C35   C43   A    
C75   C80   A    
Cr3   O3    S    
C18   C20   A    
C40   C42   A    
C34   O26   A    
C21   C22   A    
C27   O31   S    
C56   O24   A    
Cr6   O18   S    
C69   C70   S    
Cr1   O5    S    
C4    C7    S    
C85   O9    A    
C81   C83   T    
C44   C46   A    
C9    C26   A    
C50   C51   A    
C47   C50   A    
C54   C59   A    
C53   C55   A    
C78   C89   A    
C38   C39   A    
C12   C67   S    
C39   H10   S    
C74   C75   A    
C76   C77   A    
C10   C14   A    
Cr3   O5    S    
O44   H28   S    
C25   H36   S    
C77   H30   S    
C6    C8    T    
C34   C73   S    
C58   C59   A    
O45   H33   S    
C47   C59   A    
Cr4   O14   S    
C12   O21   A    
C60   H18   S    
C33   C86   S    
C4    C78   A    
C29   C30   A    
Cr2   O26   S    
C31   O33   S    
C47   C48   A    
C10   C19   A    
C46   C54   A    
C17   C18   A    
C77   C79   A    
C66   H26   S    
C64   C69   A    
Cr1   O1    S    
C78   H1    S    
Cr2   O20   S    
Cr3   O4    S    
Cr2   O5    S    
C12   O22   A    
C50   H14   S    
C48   C49   A    
C23   O1    A    
Cr6   O11   S    
Cr4   O7    S    
C34   O25   A    
C74   C79   A    
C55   C57   A    
C45   O3    A    
C84   O8    A    
C22   C24   A    
Cr6   O17   S    
C2    C5    A    
Cr3   O22   S    
C33   C42   A    
C3    C4    A    
C86   O6    A    
C73   C82   T    
C39   C40   A    
C72   C87   S    
C52   C53   A    
O36   H15   S    
C9    C10   A    
C16   C25   A    
C13   O46   S    
C83   C90   S    
Cr6   O10   S    
C63   C68   A    
C40   C41   A    
C38   H11   S    
C29   C41   A    
Cr1   O12   S    
C28   C31   A    
C76   C80   A    
C80   C81   S    
C45   O2    A    
C51   C88   S    
C79   C82   S    
C70   C72   T    
Cr4   O19   S    
C17   O29   S    
O32   H7    S    
C44   C61   A    
Cr4   O13   S    
C52   C61   A    
C32   C33   A    
C21   O27   S    
C36   C38   A    
O30   H5    S    
O46   H34   S    
Cr5   O15   S    
O34   H12   S    
C11   C13   A    
C3    H31   S    
C64   O42   S    
C5    C6    S    
C28   C37   A    
C68   C71   S    
C65   C69   A    
C48   O37   S    
C45   C61   S    
C65   H25   S    
C62   C71   T    
C19   C24   A    
C56   C62   S    
O37   H16   S    
C90   O18   A    
C37   C41   A    
C76   H29   S    
C14   H35   S    
C1    O12   A    
C7    C67   T    
C63   C64   A    
C88   O16   A    
C27   C43   A    
O43   H27   S    
C20   C21   A    
Cr4   O6    S    
C65   C66   A    
Cr1   O25   S    
O39   H21   S    
C84   O7    A    
C56   O4    A    
Cr1   O24   S    
O33   H8    S    
C75   O44   S    
C51   C60   A    
Cr3   O23   S    
C90   O13   A    
O38   H20   S    
C13   C14   A    
C74   O43   S    
C5    C89   A    
C85   O10   A    
C35   O35   S    
O27   H2    S    
C27   C28   A    
