data_mof_unit_23651.cif
_audit_creation_date              2012-12-10T17:18:20-0500
_audit_creation_method            fapswitch 2.2
_symmetry_space_group_name_H-M    P1
_symmetry_Int_Tables_number       1
_space_group_crystal_system       triclinic
_cell_length_a                    10.228562
_cell_length_b                    10.777543
_cell_length_c                    14.991678
_cell_angle_alpha                 90.345497
_cell_angle_beta                  80.29636
_cell_angle_gamma                 94.825577
_cell_volume                      1623.18895725

loop_
_atom_site_label
_atom_site_type_symbol
_atom_type_description
_atom_site_fract_x
_atom_site_fract_y
_atom_site_fract_z
_atom_type_partial_charge
C1    C     C_R   0.555318 0.732755 0.497350 0.935628
C2    C     C_2   0.079473 0.507367 0.481953 -0.111416
C3    C     C_R   0.499813 0.500596 0.673255 0.878532
C4    C     C_R   0.500681 0.500054 0.326779 0.885010
C5    C     C_R   0.595580 0.436579 0.174107 -0.261373
C6    C     C_R   0.412721 0.571609 0.825556 -0.271934
C7    C     C_R   0.502324 0.501425 0.230818 -0.069441
C8    C     C_R   0.500691 0.501528 0.769102 -0.064539
C9    C     C_R   0.410332 0.567839 0.196096 -0.262883
C10   C     C_R   0.592108 0.434112 0.803805 -0.257303
C11   C     C_R   0.410892 0.570048 0.103728 0.118028
C12   C     C_R   0.444356 0.267514 0.509113 0.935892
C13   C     C_R   0.594539 0.434902 0.895945 0.116691
C14   C     C_R   0.503531 0.503173 0.046241 0.058202
C15   C     C_R   0.503318 0.503218 0.953386 0.058571
C16   C     C_R   0.596155 0.436057 0.081634 0.121464
C17   C     C_R   0.411959 0.571752 0.917934 0.124676
C18   C     C_R   0.320537 0.637848 0.068036 -0.220564
C19   C     C_R   0.686042 0.368372 0.931531 -0.219234
C20   C     C_3   0.101992 0.642862 0.602696 -0.215130
C21   C     C_3   0.181077 0.671389 0.678048 -0.816147
C22   C     C_3   0.898202 0.353418 0.400337 -0.217610
C23   C     C_R   0.321529 0.639223 0.975231 -0.217963
C24   C     C_3   0.797512 0.256152 0.371455 -0.784301
C25   C     C_R   0.687139 0.369283 0.024179 -0.217962
C26   C     C_2   0.585206 0.864959 0.507800 -0.379564
C27   C     C_2   0.412231 0.135614 0.523075 -0.369224
C28   C     C_2   0.484624 0.933656 0.537950 -0.154930
C29   C     C_2   0.507095 0.066440 0.540126 -0.158791
C30   C     C_2   0.929865 0.525784 0.493015 -0.111662
H1    H     H_    0.666049 0.385027 0.202026 0.149110
H2    H     H_    0.382158 0.893444 0.553574 0.185298
H3    H     H_    0.313377 0.094564 0.516825 0.148641
H4    H     H_    0.687159 0.906102 0.491012 0.149351
H5    H     H_    0.124650 0.450519 0.427423 0.143567
H6    H     H_    0.890856 0.604645 0.530379 0.141425
H7    H     H_    0.179685 0.585622 0.718789 0.262563
H8    H     H_    0.283002 0.711887 0.651852 0.277429
H9    H     H_    0.131805 0.741544 0.723610 0.203873
H10   H     H_    0.093502 0.731201 0.566882 0.162282
H11   H     H_    0.002401 0.606806 0.639277 0.166639
H12   H     H_    0.346858 0.627958 0.797729 0.151724
H13   H     H_    0.754719 0.193058 0.428731 0.249741
H14   H     H_    0.719855 0.298057 0.341964 0.280147
H15   H     H_    0.850034 0.197521 0.318100 0.198994
H16   H     H_    0.955388 0.399650 0.337853 0.164360
H17   H     H_    0.965496 0.298965 0.432791 0.160338
H18   H     H_    0.339493 0.618920 0.240874 0.157748
H19   H     H_    0.660559 0.380479 0.759187 0.158024
H20   H     H_    0.249449 0.689691 0.111810 0.147479
H21   H     H_    0.756524 0.315885 0.887787 0.148039
H22   H     H_    0.251183 0.692112 0.948334 0.148074
H23   H     H_    0.758473 0.317498 0.050936 0.147617
H24   H     H_    0.605385 0.107005 0.547883 0.177850
N1    N     N_2   0.842700 0.448880 0.462930 -0.043119
N2    N     N_2   0.157300 0.551120 0.537070 -0.041912
O1    O     O_R   0.431060 0.692470 0.507460 -0.613171
O2    O     O_R   0.568940 0.307530 0.492540 -0.609828
O3    O     O_R   0.651120 0.659650 0.483670 -0.617837
O4    O     O_R   0.348880 0.340350 0.516330 -0.611011
O5    O     O_R   0.389960 0.516440 0.644050 -0.617336
O6    O     O_R   0.610040 0.483560 0.355950 -0.619100
O7    O     O_R   0.610030 0.483620 0.620260 -0.622007
O8    O     O_R   0.389970 0.516380 0.379740 -0.626868
Zn1   Zn    Zn3+2 0.353060 0.521920 0.515880 0.945296
Zn2   Zn    Zn3+2 0.646940 0.478080 0.484120 0.945855

loop_
_geom_bond_atom_site_label_1
_geom_bond_atom_site_label_2
_ccdc_geom_bond_type
C2    H5    S    
C11   C18   A    
C22   N1    S    
C1    O1    A    
C27   C29   D    
C5    C7    A    
C30   N1    D    
C4    O8    A    
C26   C28   D    
C21   H9    S    
C30   H6    S    
C20   N2    S    
C4    O6    A    
C12   O2    A    
O8    Zn1   S    
C13   C15   A    
C22   H17   S    
O7    Zn2   S    
C21   H7    S    
C6    C17   A    
C2    N2    D    
C27   H3    S    
C9    C11   A    
C23   H22   S    
C17   C23   A    
C4    C7    S    
C19   C25   A    
C24   H15   S    
C22   C24   S    
C8    C10   A    
C28   C29   S    
C22   H16   S    
C24   H14   S    
C25   H23   S    
O4    Zn1   S    
C20   H11   S    
C19   H21   S    
C3    O7    A    
C1    O3    A    
O3    Zn2   S    
C1    C26   S    
C20   H10   S    
C11   C14   A    
C14   C16   A    
C29   H24   S    
O6    Zn2   S    
C12   C27   S    
N2    Zn1   S    
C12   O4    A    
O5    Zn1   S    
C28   H2    S    
N1    Zn2   S    
C2    C30   S    
C20   C21   S    
C18   H20   S    
C9    H18   S    
C15   C17   A    
C3    C8    S    
C6    H12   S    
O1    Zn1   S    
C16   C25   A    
C7    C9    A    
C24   H13   S    
C13   C19   A    
C14   C15   A    
C5    C16   A    
C6    C8    A    
C26   H4    S    
C10   H19   S    
O2    Zn2   S    
C21   H8    S    
C18   C23   A    
C3    O5    A    
C5    H1    S    
C10   C13   A    
