data_mof_unit_17916.cif
_audit_creation_date              2012-12-10T17:03:37-0500
_audit_creation_method            fapswitch 2.2
_symmetry_space_group_name_H-M    P1
_symmetry_Int_Tables_number       1
_space_group_crystal_system       triclinic
_cell_length_a                    10.055879
_cell_length_b                    10.744285
_cell_length_c                    13.123453
_cell_angle_alpha                 90.115437
_cell_angle_beta                  69.740657
_cell_angle_gamma                 90.189588
_cell_volume                      1330.17383269

loop_
_atom_site_label
_atom_site_type_symbol
_atom_type_description
_atom_site_fract_x
_atom_site_fract_y
_atom_site_fract_z
_atom_type_partial_charge
C1    C     C_R   0.499529 0.737224 0.501787 0.928090
C2    C     C_R   0.369647 0.517074 0.822329 -0.120001
C3    C     C_2   0.614750 0.067098 0.494330 -0.160716
C4    C     C_R   0.421091 0.506784 0.704095 0.853051
C5    C     C_2   0.506098 0.131296 0.485088 -0.336972
C6    C     C_2   0.616708 0.933183 0.487858 -0.165318
C7    C     C_2   0.496267 0.868872 0.510262 -0.333316
C8    C     C_2   0.037255 0.479842 0.583751 -0.159133
C9    C     C_2   0.892133 0.459658 0.577625 -0.145748
C10   C     C_R   0.501191 0.262766 0.497080 0.935905
C11   C     C_R   0.578994 0.500736 0.295731 0.871416
C12   C     C_R   0.432319 0.525589 0.984755 0.090685
C13   C     C_R   0.770881 0.628128 0.018299 -0.204922
C14   C     C_R   0.626622 0.518075 0.178891 -0.057567
C15   C     C_R   0.236262 0.467797 0.882539 -0.190807
C16   C     C_R   0.198133 0.452349 0.994031 -0.163484
C17   C     C_R   0.296223 0.477218 0.044675 -0.206124
C18   C     C_R   0.927005 0.599259 0.432494 0.301218
C19   C     C_R   0.977043 0.586336 0.319139 -0.202046
C20   C     C_R   0.046854 0.685275 0.252852 -0.182099
C21   C     C_R   0.065489 0.798182 0.299291 -0.090799
C22   C     C_R   0.013508 0.812692 0.412095 -0.183421
C23   C     C_R   0.460973 0.560198 0.875846 0.087511
C24   C     C_R   0.943209 0.714167 0.478648 -0.146390
C25   C     C_R   0.540934 0.541098 0.029190 0.080223
C26   C     C_R   0.665779 0.608999 0.971904 0.176518
C27   C     C_R   0.682297 0.658735 0.870358 -0.266115
C28   C     C_R   0.581092 0.634963 0.822847 -0.207393
C29   C     C_R   0.529675 0.488656 0.128556 -0.251351
C30   C     C_R   0.749873 0.584945 0.122888 -0.209527
H1    H     H_    0.825565 0.608994 0.161585 0.159811
H2    H     H_    0.442293 0.428111 0.171086 0.145890
H3    H     H_    0.163380 0.437476 0.843000 0.151852
H4    H     H_    0.261397 0.461205 0.131106 0.132974
H5    H     H_    0.094480 0.415698 0.040687 0.143622
H6    H     H_    0.597123 0.677148 0.744681 0.170882
H7    H     H_    0.704716 0.112743 0.506452 0.172171
H8    H     H_    0.963391 0.499122 0.282422 0.130802
H9    H     H_    0.086151 0.674593 0.165454 0.148425
H10   H     H_    0.119465 0.874659 0.247842 0.130512
H11   H     H_    0.026678 0.900594 0.447936 0.133025
H12   H     H_    0.420092 0.088485 0.465601 0.150528
H13   H     H_    0.901415 0.726974 0.565877 0.122248
H14   H     H_    0.718818 0.887389 0.466178 0.183738
H15   H     H_    0.392334 0.911588 0.537727 0.149666
H16   H     H_    0.049363 0.473972 0.662558 0.159164
H17   H     H_    0.139421 0.481263 0.424476 0.184430
H18   H     H_    0.815724 0.409612 0.644140 0.166861
H19   H     H_    0.774561 0.714354 0.826801 0.145229
H20   H     H_    0.865965 0.680799 0.975686 0.138283
N1    N     N_2   0.148270 0.498670 0.498870 -0.183568
N2    N     N_2   0.852610 0.498640 0.498840 -0.143483
O1    O     O_R   0.386950 0.680940 0.500020 -0.601280
O2    O     O_R   0.613110 0.680900 0.499980 -0.620254
O3    O     O_R   0.330780 0.500000 0.653640 -0.615090
O4    O     O_R   0.556930 0.499960 0.653610 -0.616480
O5    O     O_R   0.386890 0.319100 0.500020 -0.613960
O6    O     O_R   0.613050 0.319060 0.499980 -0.609841
O7    O     O_R   0.443070 0.500040 0.346390 -0.612371
O8    O     O_R   0.669220 0.500000 0.346360 -0.620016
Zn1   Zn    Zn3+2 0.349000 0.500030 0.500020 0.941593
Zn2   Zn    Zn3+2 0.651000 0.499970 0.499980 0.933271

loop_
_geom_bond_atom_site_label_1
_geom_bond_atom_site_label_2
_ccdc_geom_bond_type
C12   C17   A    
O6    Zn2   S    
C2    C4    S    
C5    H12   S    
O5    Zn1   S    
C6    C7    D    
C19   H8    S    
N2    Zn2   S    
C19   C20   A    
N1    Zn1   S    
C12   C25   A    
C1    O2    A    
C3    C6    S    
C18   N2    S    
C5    C10   S    
C16   H5    S    
C6    H14   S    
C21   C22   A    
C4    O4    A    
C2    C15   A    
C21   H10   S    
C8    N1    D    
C3    H7    S    
C26   C27   A    
O4    Zn2   S    
C9    N2    D    
C14   C30   A    
C18   C24   A    
C15   C16   A    
C7    H15   S    
C10   O6    A    
C29   H2    S    
C22   C24   A    
C4    O3    A    
C25   C29   A    
C30   H1    S    
C11   C14   S    
C11   O7    A    
C13   C26   A    
O7    Zn1   S    
C22   H11   S    
C23   C28   A    
C17   H4    S    
C14   C29   A    
C27   H19   S    
C11   O8    A    
O3    Zn1   S    
C13   C30   A    
C2    C23   A    
C10   O5    A    
C20   C21   A    
C28   H6    S    
C9    H18   S    
O8    Zn2   S    
C18   C19   A    
C27   C28   A    
C24   H13   S    
C20   H9    S    
C1    O1    A    
C16   C17   A    
C12   C23   A    
O2    Zn2   S    
C8    H16   S    
C25   C26   A    
C1    C7    S    
O1    Zn1   S    
C15   H3    S    
H17   N1    S    
C13   H20   S    
C8    C9    S    
C3    C5    D    
