data_mof_unit_59639.cif
_audit_creation_date              2012-12-10T16:44:45-0500
_audit_creation_method            fapswitch 2.2
_symmetry_space_group_name_H-M    P1
_symmetry_Int_Tables_number       1
_space_group_crystal_system       triclinic
_cell_length_a                    15.001349
_cell_length_b                    8.836246
_cell_length_c                    7.506828
_cell_angle_alpha                 102.550417
_cell_angle_beta                  94.816687
_cell_angle_gamma                 95.449399
_cell_volume                      961.286305559

loop_
_atom_site_label
_atom_site_type_symbol
_atom_type_description
_atom_site_fract_x
_atom_site_fract_y
_atom_site_fract_z
_atom_type_partial_charge
C1    C     C_R   0.500536 0.201236 0.454403 0.809788
C2    C     C_R   0.171277 0.351468 0.379754 0.210215
C3    C     C_R   0.768270 0.514836 0.496097 -0.089326
C4    C     C_R   0.230789 0.472066 0.499714 -0.084687
C5    C     C_R   0.799414 0.380187 0.406252 -0.280911
C6    C     C_R   0.197104 0.592791 0.614987 -0.275263
C7    C     C_R   0.891176 0.371204 0.396007 0.053301
C8    C     C_R   0.106723 0.614936 0.589089 0.030577
C9    C     C_R   0.953024 0.502576 0.481587 -0.059720
C10   C     C_R   0.045373 0.489665 0.485622 -0.038433
C11   C     C_R   0.922271 0.645971 0.565930 -0.072843
C12   C     C_R   0.504034 0.799264 0.545970 0.855430
C13   C     C_R   0.076890 0.350295 0.391959 -0.071563
C14   C     C_R   0.920688 0.228875 0.310998 0.257420
C15   C     C_R   0.078534 0.763239 0.654777 0.229014
C16   C     C_3   0.738394 0.870051 0.619384 -0.720008
C17   C     C_3   0.268928 0.146001 0.268302 -0.708781
C18   C     C_3   0.810675 0.102825 0.052909 -0.763407
C19   C     C_3   0.204369 0.942104 0.607419 -0.730934
C20   C     C_3   0.016469 0.930836 0.144698 -0.724404
C21   C     C_3   0.006028 0.081191 0.733089 -0.634614
C22   C     C_3   0.593303 0.971165 0.170221 -0.651324
C23   C     C_R   0.014247 0.214623 0.315661 0.170421
C24   C     C_3   0.432139 0.065955 0.838427 -0.672016
C25   C     C_R   0.985780 0.782291 0.631005 0.200232
C26   C     C_2   0.507436 0.035957 0.429632 -0.007318
C27   C     C_2   0.509197 0.966276 0.574090 0.013693
C28   C     C_R   0.328554 0.486240 0.498822 0.818175
C29   C     C_R   0.671269 0.509499 0.500306 0.830067
C30   C     C_R   0.828260 0.648392 0.579897 0.221635
Cu1   Cu    Cu3+1 0.510010 0.517380 0.684380 0.940909
Cu2   Cu    Cu3+1 0.489990 0.482620 0.315620 0.942778
H1    H     H_    0.750145 0.279179 0.352748 0.180499
H2    H     H_    0.325716 0.159058 0.185861 0.249541
H3    H     H_    0.865110 0.991702 0.252111 0.267737
H4    H     H_    0.859940 0.094809 0.950821 0.251001
H5    H     H_    0.779713 0.212237 0.055538 0.244219
H6    H     H_    0.756575 0.003950 0.009611 0.242935
H7    H     H_    0.176354 0.892189 0.857775 0.238122
H8    H     H_    0.209939 0.070798 0.627610 0.226313
H9    H     H_    0.180945 0.884733 0.462008 0.241277
H10   H     H_    0.272469 0.909549 0.636221 0.211692
H11   H     H_    0.105613 0.058783 0.367409 0.279404
H12   H     H_    0.244171 0.678816 0.710812 0.167459
H13   H     H_    0.987487 0.832670 0.200334 0.233419
H14   H     H_    0.075165 0.893022 0.074219 0.221654
H15   H     H_    0.966096 0.955600 0.043355 0.258588
H16   H     H_    0.912640 0.938906 0.531125 0.269068
H17   H     H_    0.960570 0.174188 0.750328 0.203854
H18   H     H_    0.057601 0.113626 0.648016 0.254043
H19   H     H_    0.038628 0.080165 0.869749 0.244864
H20   H     H_    0.453276 0.953467 0.159778 0.262261
H21   H     H_    0.590543 0.890097 0.034053 0.247953
H22   H     H_    0.649861 0.947109 0.261001 0.216134
H23   H     H_    0.835770 0.826384 0.818371 0.272077
H24   H     H_    0.606119 0.092494 0.152276 0.237903
H25   H     H_    0.568002 0.139602 0.806842 0.278245
H26   H     H_    0.444943 0.136424 0.980252 0.242062
H27   H     H_    0.398632 0.949461 0.842399 0.225736
H28   H     H_    0.387252 0.125051 0.757385 0.215924
H29   H     H_    0.422064 0.389463 0.952183 0.225184
H30   H     H_    0.576415 0.614342 0.048747 0.232894
H31   H     H_    0.774850 0.987635 0.631340 0.229516
H32   H     H_    0.678920 0.884815 0.696203 0.236514
H33   H     H_    0.715766 0.817507 0.472427 0.214644
H34   H     H_    0.159710 0.206046 0.113490 0.269848
H35   H     H_    0.238144 0.022685 0.225790 0.206867
H36   H     H_    0.294916 0.171594 0.415780 0.203331
N1    N     N_2   0.474890 0.456420 0.038520 -0.221920
N2    N     N_2   0.516551 0.049922 0.761009 -0.430579
N3    N     N_2   0.525110 0.543580 0.961480 -0.212966
N4    N     N_2   0.795072 0.773243 0.699933 -0.429782
N5    N     N_2   0.203815 0.249007 0.230424 -0.419544
N6    N     N_2   0.854276 0.099987 0.231647 -0.447400
N7    N     N_2   0.144221 0.893892 0.731489 -0.424515
N8    N     N_2   0.045816 0.064209 0.294626 -0.435385
N9    N     N_2   0.954184 0.932797 0.644930 -0.426025
N10   N     N_2   0.509068 0.947993 0.246722 -0.403234
O1    O     O_R   0.506510 0.286130 0.619770 -0.588578
O2    O     O_R   0.493490 0.713870 0.380230 -0.559046
O3    O     O_R   0.489600 0.256770 0.308360 -0.606040
O4    O     O_R   0.510400 0.743230 0.691640 -0.577618
O5    O     O_R   0.378710 0.514640 0.655720 -0.601233
O6    O     O_R   0.621290 0.485360 0.344280 -0.599873
O7    O     O_R   0.361800 0.485290 0.344300 -0.551054
O8    O     O_R   0.638200 0.514710 0.655700 -0.566092

loop_
_geom_bond_atom_site_label_1
_geom_bond_atom_site_label_2
_ccdc_geom_bond_type
H16   N9    S    
C15   N7    S    
H3    N6    S    
C16   N4    S    
C23   N8    S    
C21   H17   S    
C24   N2    S    
C22   H22   S    
Cu2   O3    S    
C13   C23   A    
C26   C27   D    
C26   N10   S    
Cu1   O4    S    
C25   N9    S    
C14   N6    S    
C18   H5    S    
C15   C25   A    
C11   C25   A    
C1    O3    A    
Cu1   O5    S    
C20   N8    S    
C3    C29   S    
N1    N3    D    
C2    C13   A    
C7    C14   A    
C11   C30   A    
C5    H1    S    
C16   H31   S    
H7    N7    S    
H25   N2    S    
C9    C10   A    
H23   N4    S    
C19   H10   S    
Cu1   N3    S    
C18   N6    S    
Cu1   O8    S    
C6    H12   S    
C28   O5    A    
C17   N5    S    
H20   N10   S    
C21   H18   S    
C4    C28   S    
C22   H21   S    
Cu2   O6    S    
C17   H35   S    
C12   C27   S    
C22   N10   S    
C29   O6    A    
C4    C6    A    
C5    C7    A    
C22   H24   S    
H34   N5    S    
C14   C23   A    
C3    C30   A    
C2    C4    A    
Cu2   O2    S    
C30   N4    S    
Cu1   Cu2   S    
C24   H28   S    
C12   O4    A    
C9    C11   A    
C29   O8    A    
C27   N2    S    
C24   H26   S    
C8    C15   A    
C1    C26   S    
C1    O1    A    
C17   H2    S    
C21   H19   S    
H29   N1    S    
H11   N8    S    
C7    C9    A    
C17   H36   S    
C20   H13   S    
C3    C5    A    
C10   C13   A    
C6    C8    A    
Cu1   O1    S    
Cu2   N1    S    
C19   N7    S    
C18   H6    S    
C24   H27   S    
Cu2   O7    S    
C12   O2    A    
C2    N5    S    
H30   N3    S    
C20   H15   S    
C19   H8    S    
C8    C10   A    
C21   N9    S    
C28   O7    A    
C16   H33   S    
C16   H32   S    
C18   H4    S    
C20   H14   S    
C19   H9    S    
