data_mof_unit_6079.cif
_audit_creation_date              2013-03-05T15:46:20-0500
_audit_creation_method            fapswitch 2.2
_symmetry_space_group_name_H-M    P1
_symmetry_Int_Tables_number       1
_space_group_crystal_system       triclinic
_cell_length_a                    10.193725
_cell_length_b                    10.618355
_cell_length_c                    10.801442
_cell_angle_alpha                 91.091907
_cell_angle_beta                  95.58307
_cell_angle_gamma                 80.432052
_cell_volume                      1147.41650995

loop_
_atom_site_label
_atom_site_type_symbol
_atom_site_description
_atom_site_fract_x
_atom_site_fract_y
_atom_site_fract_z
_atom_type_partial_charge
O1    O     O_R   0.568950 0.489660 0.307530 -0.581551
O2    O     O_R   0.348880 0.522640 0.340350 -0.609476
C1    C     C_R   0.443975 0.504243 0.267378 0.990769
O3    O     O_R   0.610060 0.300270 0.483590 -0.607744
O4    O     O_R   0.389990 0.333260 0.516410 -0.620554
C2    C     C_R   0.505911 0.260077 0.514869 0.875972
Zn1   Zn    Zn3+2 0.646940 0.477980 0.478090 1.035253
Zn2   Zn    Zn3+2 0.353060 0.522020 0.521910 0.981213
O5    O     O_R   0.651120 0.477360 0.659650 -0.575450
O6    O     O_R   0.431050 0.510340 0.692470 -0.621611
O7    O     O_R   0.610010 0.666740 0.483590 -0.584373
O8    O     O_R   0.389940 0.699730 0.516410 -0.616113
C3    C     C_R   0.556137 0.488198 0.732541 0.944292
C4    C     C_R   0.496790 0.740585 0.491305 0.938512
H1    H     H_    0.321527 0.142273 0.602280 0.188613
C5    C     C_R   0.761536 0.064427 0.504295 0.177039
C6    C     C_R   0.851352 0.997106 0.425951 0.133429
C7    C     C_R   0.811253 0.901732 0.347792 -0.264074
H2    H     H_    0.877906 0.856175 0.282019 0.216394
C8    C     C_R   0.687156 0.863471 0.355335 0.309389
C9    C     C_R   0.601467 0.925225 0.442491 -0.045954
C10   C     C_R   0.628391 0.039623 0.496436 -0.031207
C11   C     C_R   0.517878 0.124918 0.535673 -0.077771
C12   C     C_R   0.404175 0.079835 0.565678 -0.164313
H3    H     H_    0.312222 0.917254 0.579893 0.195466
C13   C     C_R   0.395602 0.953512 0.546613 -0.154064
C14   C     C_R   0.493223 0.875741 0.484500 -0.051323
H4    H     H_    0.386045 0.463513 0.892528 0.193886
H5    H     H_    0.615707 0.430555 0.105633 0.201517
C15   C     C_2   0.412476 0.495070 0.134963 -0.308606
C16   C     C_2   0.512773 0.456371 0.065474 -0.094253
H6    H     H_    0.690458 0.465900 0.905417 0.182522
C17   C     C_2   0.588146 0.469558 0.864411 -0.298474
C18   C     C_2   0.488629 0.459734 0.933078 -0.154640
H7    H     H_    0.309886 0.521167 0.094265 0.159462
H8    H     H_    0.108180 0.417435 0.423588 0.168496
N1    N     N_2   0.157290 0.551390 0.551110 -0.190119
C19   C     C_2   0.072443 0.488415 0.491457 -0.142914
H9    H     H_    0.880325 0.385409 0.382430 0.167904
N2    N     N_2   0.842740 0.448550 0.448960 -0.184663
C20   C     C_2   0.927376 0.509775 0.513198 0.229957
H10   H     H_    0.125001 0.620258 0.614136 0.208718
I1    I     I_    0.864581 0.643174 0.655774 -0.292775
I2    I     I_    0.837890 0.168861 0.659023 -0.284591
I3    I     I_    0.044913 0.040802 0.413365 -0.361916
N3    N     N_R   0.644024 0.773094 0.265804 0.221809
O9    O     O_R   0.731347 0.688961 0.215706 -0.392740
O10   O     O_R   0.518946 0.784974 0.222398 -0.409341

loop_
_geom_bond_atom_site_label_1
_geom_bond_atom_site_label_2
_geom_bond_distance
_ccdc_geom_bond_type
C6    C7    1.394011 A    
O4    Zn2   1.977758 S    
C11   C12   1.393222 A    
C3    C17   1.439908 S    
N1    C19   1.295297 D    
C4    C14   1.432646 S    
C1    C15   1.440142 S    
C5    I2    2.142867 S    
O8    C4    1.291166 A    
Zn2   O8    1.987469 S    
H6    C17   1.087532 S    
H8    C19   1.085264 S    
C17   C18   1.332162 D    
C9    C14   1.413765 A    
C16   C18   1.427408 S    
H4    C18   1.088380 S    
H5    C16   1.088407 S    
O1    Zn1   1.931945 S    
C9    C10   1.393962 A    
Zn1   O7    1.977760 S    
C20   I1    2.143620 S    
C13   C14   1.399269 A    
O4    C2    1.303284 A    
C15   H7    1.087443 S    
O3    Zn1   1.987469 S    
C2    C11   1.440083 S    
O3    C2    1.284271 A    
N2    C20   1.304311 D    
C6    I3    2.117984 S    
O2    C1    1.295744 A    
C7    C8    1.401469 A    
C15   C16   1.332449 D    
O7    C4    1.291970 A    
N3    O10   1.301479 A    
Zn2   N1    2.022644 S    
N1    H10   1.025252 S    
C8    C9    1.423125 A    
C19   C20   1.499133 S    
Zn2   O6    1.931945 S    
C7    H2    1.082568 S    
O2    Zn2   1.957536 S    
H9    N2    1.030784 S    
Zn1   O5    1.957536 S    
O5    C3    1.295544 A    
N3    O9    1.301619 A    
H1    C12   1.083874 S    
C5    C10   1.419235 A    
H3    C13   1.083229 S    
C10   C11   1.417070 A    
Zn1   N2    2.022746 S    
C8    N3    1.439315 S    
C12   C13   1.369005 A    
C5    C6    1.405514 A    
O1    C1    1.290164 A    
O6    C3    1.290484 A    
