data_mof_unit_51559.cif
_audit_creation_date              2012-12-10T17:20:22-0500
_audit_creation_method            fapswitch 2.2
_symmetry_space_group_name_H-M    P1
_symmetry_Int_Tables_number       1
_space_group_crystal_system       triclinic
_cell_length_a                    11.688523
_cell_length_b                    10.777271
_cell_length_c                    9.652158
_cell_angle_alpha                 87.711207
_cell_angle_beta                  90.313898
_cell_angle_gamma                 91.168495
_cell_volume                      1214.65012518

loop_
_atom_site_label
_atom_site_type_symbol
_atom_type_description
_atom_site_fract_x
_atom_site_fract_y
_atom_site_fract_z
_atom_type_partial_charge
C1    C     C_R   0.499227 0.262965 0.502226 0.821568
C2    C     C_R   0.813946 0.069897 0.534724 -0.110918
C3    C     C_R   0.814562 0.941535 0.524827 -0.119386
C4    C     C_R   0.711890 0.875133 0.510393 -0.185047
C5    C     C_R   0.605993 0.936690 0.505844 0.082798
C6    C     C_R   0.605412 0.066913 0.514897 0.089589
C7    C     C_R   0.500056 0.128649 0.506585 -0.149304
C8    C     C_R   0.395762 0.062571 0.491084 -0.054537
C9    C     C_R   0.395564 0.932508 0.492369 -0.044037
C10   C     C_R   0.500899 0.870908 0.494420 -0.156983
C11   C     C_R   0.541488 0.725122 0.110827 -0.020649
C12   C     C_R   0.284322 0.500734 0.499682 0.916516
C13   C     C_R   0.623822 0.808309 0.053069 -0.205322
C14   C     C_R   0.675046 0.781281 0.928103 -0.208012
C15   C     C_R   0.637093 0.677165 0.857974 -0.122679
C16   C     C_R   0.560541 0.590287 0.922793 0.180641
C17   C     C_R   0.540314 0.601977 0.066740 0.154596
C18   C     C_R   0.452618 0.405390 0.078948 -0.045953
C19   C     C_R   0.445378 0.409223 0.931483 0.039336
C20   C     C_R   0.500201 0.736860 0.497942 0.805362
C21   C     C_R   0.715706 0.500701 0.500266 0.765682
C22   C     C_1   0.162533 0.502694 0.499178 -0.096375
C23   C     C_1   0.059976 0.503301 0.499570 0.010165
C24   C     C_1   0.940094 0.502862 0.500354 0.010017
C25   C     C_1   0.837510 0.501939 0.500709 -0.166877
C26   C     C_R   0.710674 0.132455 0.529646 -0.148912
Cu1   Cu    Cu3+1 0.499990 0.499990 0.640660 0.996613
Cu2   Cu    Cu3+1 0.500010 0.500010 0.359340 1.003981
H1    H     H_    0.733829 0.847744 0.878268 0.175865
H2    H     H_    0.669027 0.667990 0.755366 0.186727
H3    H     H_    0.714208 0.232236 0.537509 0.122906
H4    H     H_    0.893791 0.121289 0.546025 0.154187
H5    H     H_    0.894867 0.893168 0.528423 0.150452
H6    H     H_    0.716395 0.775501 0.502839 0.113261
H7    H     H_    0.411722 0.329503 0.137949 0.159335
H8    H     H_    0.635342 0.900662 0.091977 0.192614
N1    N     N_R   0.501070 0.501210 0.147910 -0.190389
N2    N     N_R   0.501110 0.501290 0.852040 -0.235240
O1    O     O_R   0.499990 0.319640 0.618810 -0.548629
O2    O     O_R   0.500000 0.319660 0.381240 -0.595332
O3    O     O_R   0.337190 0.500000 0.618790 -0.542543
O4    O     O_R   0.337200 0.500030 0.381210 -0.538183
O5    O     O_R   0.500000 0.680340 0.618760 -0.595196
O6    O     O_R   0.500010 0.680360 0.381190 -0.574935
O7    O     O_R   0.662800 0.499970 0.618790 -0.604994
O8    O     O_R   0.662810 0.500000 0.381210 -0.564480
C27   C     C_2   0.286868 0.129095 0.467506 0.876665
O9    O     O_2   0.226261 0.105080 0.367992 -0.568036
O10   O     O_R   0.252320 0.216143 0.560786 -0.767780
H9    H     H_    0.172900 0.247616 0.538906 0.316620
C28   C     C_2   0.371721 0.314775 0.869100 0.933295
O11   O     O_2   0.406391 0.209427 0.857727 -0.564387
O12   O     O_R   0.258139 0.342720 0.837595 -0.731862
H10   H     H_    0.211432 0.267114 0.810799 0.357331
C29   C     C_2   0.284619 0.861744 0.499677 0.871429
O13   O     O_2   0.266340 0.775409 0.424032 -0.610436
O14   O     O_R   0.200648 0.895245 0.593055 -0.741379
H11   H     H_    0.129033 0.840859 0.588179 0.327937
C30   C     C_2   0.429610 0.779741 0.145266 0.929613
O15   O     O_2   0.424057 0.889388 0.172467 -0.584604
O16   O     O_R   0.329512 0.706516 0.140573 -0.716024
H12   H     H_    0.258046 0.755622 0.156408 0.364318

loop_
_geom_bond_atom_site_label_1
_geom_bond_atom_site_label_2
_ccdc_geom_bond_type
C12   O4    A    
C23   C24   S    
O12   H10   S    
C12   O3    A    
C9    C29   S    
C19   N2    A    
C12   C22   S    
C27   O10   S    
C18   H7    S    
Cu1   O3    S    
C27   O9    D    
C29   O13   D    
Cu1   O7    S    
C2    C3    A    
C8    C27   S    
C30   O15   D    
C2    C26   A    
C3    H5    S    
C17   N1    A    
C13   C14   A    
C11   C13   A    
Cu2   O8    S    
O14   H11   S    
C6    C26   A    
C10   C20   S    
Cu2   N1    S    
C15   H2    S    
C19   C28   S    
C11   C30   S    
C5    C6    A    
Cu2   O4    S    
C20   O6    A    
C18   N1    A    
C21   O8    A    
C6    C7    A    
C21   O7    A    
C29   O14   S    
O16   H12   S    
C4    H6    S    
C30   O16   S    
C7    C8    A    
Cu2   O2    S    
Cu1   N2    S    
C5    C10   A    
C15   C16   A    
Cu1   O5    S    
C26   H3    S    
C20   O5    A    
C24   C25   T    
C13   H8    S    
C2    H4    S    
C18   C19   A    
C9    C10   A    
C16   N2    A    
Cu1   Cu2   S    
O10   H9    S    
C1    O1    A    
C14   C15   A    
C4    C5    A    
C21   C25   S    
C14   H1    S    
C1    O2    A    
C1    C7    S    
Cu2   O6    S    
C22   C23   T    
C11   C17   A    
C3    C4    A    
C28   O11   D    
C16   C17   A    
Cu1   O1    S    
C8    C9    A    
C28   O12   S    
