data_mof_unit_58680.cif
_audit_creation_date              2012-12-10T17:36:19-0500
_audit_creation_method            fapswitch 2.2
_symmetry_space_group_name_H-M    P1
_symmetry_Int_Tables_number       1
_space_group_crystal_system       triclinic
_cell_length_a                    12.43979
_cell_length_b                    13.196419
_cell_length_c                    15.848526
_cell_angle_alpha                 75.870258
_cell_angle_beta                  101.200075
_cell_angle_gamma                 117.064776
_cell_volume                      2236.26287825

loop_
_atom_site_label
_atom_site_type_symbol
_atom_type_description
_atom_site_fract_x
_atom_site_fract_y
_atom_site_fract_z
_atom_type_partial_charge
C1    C     C_R   0.855151 0.286630 0.506750 0.774598
C2    C     C_3   0.044288 0.414743 0.073188 -0.437337
C3    C     C_3   0.002398 0.505491 0.082305 0.286940
C4    C     C_3   0.092311 0.627055 0.037977 -0.012797
C5    C     C_3   0.092491 0.626961 0.938515 -0.008984
C6    C     C_1   0.001054 0.503022 0.174886 -0.048202
C7    C     C_1   0.001983 0.502571 0.824438 -0.055769
C8    C     C_1   0.001293 0.501074 0.749046 -0.186779
C9    C     C_R   0.276743 0.030076 0.388114 -0.004523
C10   C     C_R   0.228398 0.836726 0.470511 -0.062915
C11   C     C_R   0.812486 0.080983 0.560342 -0.188459
C12   C     C_R   0.000352 0.500117 0.659431 0.837660
C13   C     C_R   0.732272 0.964983 0.576636 -0.147201
C14   C     C_R   0.609972 0.929620 0.547244 -0.186900
C15   C     C_R   0.565477 0.010032 0.497314 0.087156
C16   C     C_R   0.650497 0.125764 0.471856 0.080916
C17   C     C_R   0.439778 0.979138 0.470962 0.059459
C18   C     C_R   0.401859 0.060718 0.413426 0.109134
C19   C     C_R   0.489817 0.169645 0.380727 -0.234151
C20   C     C_R   0.611623 0.200573 0.408012 -0.200730
C21   C     C_R   0.350448 0.869374 0.500935 -0.254014
C22   C     C_R   0.191192 0.917894 0.416113 -0.234779
C23   C     C_R   0.144967 0.713774 0.487548 0.797458
C24   C     C_R   0.772581 0.162944 0.510099 -0.114582
C25   C     C_R   0.320140 0.299837 0.618422 -0.289733
C26   C     C_R   0.765545 0.653999 0.387167 0.072554
C27   C     C_R   0.672277 0.688763 0.362564 -0.255200
C28   C     C_R   0.565484 0.628427 0.403377 -0.174454
C29   C     C_R   0.549397 0.531072 0.469809 -0.050684
C30   C     C_R   0.647491 0.496882 0.494166 0.271187
C31   C     C_R   0.439924 0.467794 0.513748 -0.035650
C32   C     C_R   0.423656 0.364270 0.573287 0.145377
C33   C     C_R   0.513510 0.327722 0.592623 -0.317278
C34   C     C_R   0.000120 0.500542 0.340510 0.810367
C35   C     C_R   0.626771 0.396012 0.562626 0.168019
C36   C     C_R   0.344885 0.502154 0.502656 0.036659
C37   C     C_R   0.232344 0.339377 0.606017 0.081098
C38   C     C_3   0.044666 0.414681 0.975507 -0.455826
C39   C     C_3   0.873199 0.473358 0.937043 -0.390697
C40   C     C_3   0.872942 0.473601 0.034589 -0.387949
C41   C     C_1   0.000372 0.501584 0.250669 -0.165148
C42   C     C_3   0.002876 0.505261 0.916303 0.297044
Cu1   Cu    Cu3+1 0.098280 0.475420 0.519630 0.939959
Cu2   Cu    Cu3+1 0.901720 0.524580 0.480370 0.947018
H1    H     H_    0.982691 0.326974 0.104954 0.189836
H2    H     H_    0.137492 0.434157 0.962443 0.167904
H3    H     H_    0.136898 0.434102 0.107037 0.175622
H4    H     H_    0.096177 0.892800 0.392913 0.152585
H5    H     H_    0.465323 0.232029 0.333318 0.159188
H6    H     H_    0.373323 0.806131 0.547619 0.151353
H7    H     H_    0.905488 0.106848 0.589000 0.149976
H8    H     H_    0.553580 0.838267 0.563125 0.128305
H9    H     H_    0.764367 0.902278 0.614808 0.142256
H10   H     H_    0.983346 0.326850 0.960653 0.182957
H11   H     H_    0.674852 0.283254 0.376314 0.173791
H12   H     H_    0.151128 0.290037 0.639655 0.118484
H13   H     H_    0.500955 0.250179 0.641260 0.147632
H14   H     H_    0.308163 0.220326 0.664106 0.132595
H15   H     H_    0.346764 0.578499 0.457536 0.118852
H16   H     H_    0.848120 0.701740 0.354994 0.125850
H17   H     H_    0.495992 0.658863 0.380736 0.136770
H18   H     H_    0.682764 0.763027 0.311381 0.144411
H19   H     H_    0.837269 0.534072 0.895092 0.165601
H20   H     H_    0.810320 0.385821 0.922266 0.161598
H21   H     H_    0.809829 0.386214 0.065826 0.165431
H22   H     H_    0.837043 0.534556 0.040404 0.165706
H23   H     H_    0.185236 0.641216 0.929178 0.122097
H24   H     H_    0.184929 0.641168 0.070018 0.123274
N1    N     N_R   0.246300 0.438200 0.549400 -0.183110
N2    N     N_R   0.754300 0.561180 0.451130 -0.195574
O1    O     O_R   0.972520 0.318130 0.524690 -0.584005
O2    O     O_R   0.806530 0.359650 0.491530 -0.562444
O3    O     O_R   0.083030 0.479240 0.637150 -0.581136
O4    O     O_R   0.917040 0.520750 0.603990 -0.541482
O5    O     O_R   0.193470 0.640350 0.508470 -0.589785
O6    O     O_R   0.027480 0.681870 0.475310 -0.588973
O7    O     O_R   0.082960 0.479250 0.396010 -0.568526
O8    O     O_R   0.916970 0.520760 0.362850 -0.588944
N3    N     N_3   0.068681 0.719832 0.054236 -0.599589
H25   H     H_    0.985933 0.716970 0.022419 0.223632
H26   H     H_    0.137953 0.800065 0.032126 0.214925
C43   C     C_1   0.233495 0.110775 0.331755 0.207898
N4    N     N_1   0.198822 0.175348 0.286718 -0.299216
N5    N     N_3   0.718236 0.365671 0.614259 -0.501587
H27   H     H_    0.692078 0.277153 0.618754 0.202506
H28   H     H_    0.724226 0.378934 0.677862 0.193885
N6    N     N_3   0.068732 0.719513 0.877095 -0.598789
H29   H     H_    0.137878 0.799854 0.887597 0.212958
H30   H     H_    0.985895 0.716571 0.884710 0.223420

loop_
_geom_bond_atom_site_label_1
_geom_bond_atom_site_label_2
_ccdc_geom_bond_type
Cu1   O3    S    
C22   H4    S    
N6    H29   S    
C37   N1    A    
C16   C24   A    
C19   C20   A    
C23   O6    A    
C5    H23   S    
C3    C6    S    
C7    C8    T    
C10   C22   A    
C39   H20   S    
C26   C27   A    
C1    O1    A    
C30   C35   A    
C28   C29   A    
N5    H28   S    
C38   C42   S    
C12   O4    A    
C34   O7    A    
C9    C22   A    
C15   C16   A    
C11   C24   A    
C18   C19   A    
C7    C42   S    
Cu2   O6    S    
C2    C38   S    
C25   C37   A    
C37   H12   S    
C14   H8    S    
C6    C41   T    
Cu1   O1    S    
Cu2   N2    S    
C16   C20   A    
C9    C43   S    
C28   H17   S    
C36   H15   S    
C25   C32   A    
C2    H1    S    
C40   H22   S    
C12   O3    A    
C34   C41   S    
C20   H11   S    
C21   H6    S    
C30   N2    A    
C39   C42   S    
C13   H9    S    
C10   C21   A    
Cu1   O5    S    
C1    O2    A    
N5    H27   S    
C4    N3    S    
C39   C40   S    
N3    H26   S    
C17   C21   A    
Cu1   Cu2   S    
C29   C30   A    
C27   H18   S    
C19   H5    S    
C31   C32   A    
C38   H10   S    
C8    C12   S    
C17   C18   A    
Cu2   O4    S    
C3    C40   S    
C40   H21   S    
N6    H30   S    
C2    H3    S    
C25   H14   S    
C3    C4    S    
C36   N1    A    
C5    C42   S    
C4    H24   S    
C15   C17   A    
C33   H13   S    
C31   C36   A    
C23   O5    A    
C4    C5    S    
C35   N5    S    
C10   C23   S    
Cu1   O7    S    
C39   H19   S    
C32   C33   A    
Cu2   O8    S    
C2    C3    S    
C29   C31   A    
C34   O8    A    
C11   C13   A    
C26   N2    A    
C33   C35   A    
Cu2   O2    S    
C38   H2    S    
C11   H7    S    
N3    H25   S    
C5    N6    S    
C9    C18   A    
C1    C24   S    
Cu1   N1    S    
C43   N4    T    
C27   C28   A    
C14   C15   A    
C13   C14   A    
C26   H16   S    
