data_mof_unit_64069.cif
_audit_creation_date              2012-12-10T16:46:34-0500
_audit_creation_method            fapswitch 2.2
_symmetry_space_group_name_H-M    P1
_symmetry_Int_Tables_number       1
_space_group_crystal_system       triclinic
_cell_length_a                    19.112907
_cell_length_b                    18.703199
_cell_length_c                    19.161697
_cell_angle_alpha                 109.160536
_cell_angle_beta                  110.724184
_cell_angle_gamma                 109.063663
_cell_volume                      5236.83512521

loop_
_atom_site_label
_atom_site_type_symbol
_atom_type_description
_atom_site_fract_x
_atom_site_fract_y
_atom_site_fract_z
_atom_type_partial_charge
C1    C     C_R   0.384523 0.381530 0.501065 0.850903
C2    C     C_3   0.807431 0.498133 0.805407 0.037072
C3    C     C_3   0.845446 0.550447 0.765797 0.281861
C4    C     C_3   0.764611 0.542143 0.845133 -0.495653
C5    C     C_2   0.257767 0.250388 0.573075 -0.160676
C6    C     C_2   0.180869 0.188588 0.501902 -0.294780
C7    C     C_2   0.318172 0.323186 0.572695 -0.165474
C8    C     C_2   0.323083 0.311608 0.502086 -0.310823
C9    C     C_2   0.173806 0.493917 0.246569 -0.162265
C10   C     C_2   0.182616 0.508244 0.185262 -0.316487
C11   C     C_2   0.247401 0.506283 0.320009 -0.152374
C12   C     C_R   0.617133 0.498601 0.618707 0.813153
C13   C     C_2   0.308406 0.490913 0.311089 -0.316500
C14   C     C_2   0.738829 0.747743 0.422145 0.509803
C15   C     C_2   0.819693 0.803890 0.490369 -0.287999
C16   C     C_2   0.681771 0.675441 0.427116 -0.337070
C17   C     C_2   0.676493 0.690410 0.498205 0.213735
C18   C     C_R   0.992524 0.381513 0.875924 0.888698
C19   C     C_R   0.875611 0.498766 0.874058 0.805018
C20   C     C_R   0.993913 0.618562 0.109986 0.690925
C21   C     C_R   0.113248 0.502096 0.114753 0.842487
C22   C     C_R   0.001242 0.119904 0.616449 0.881348
C23   C     C_R   0.616240 0.618858 0.499744 0.759641
C24   C     C_R   0.117159 0.119018 0.501194 0.852833
C25   C     C_R   0.996028 0.877490 0.383726 0.749807
C26   C     C_R   0.882986 0.878559 0.496219 0.840039
C27   C     C_2   0.990338 0.252626 0.673158 0.477000
C28   C     C_2   0.007907 0.191740 0.684278 -0.379054
C29   C     C_2   0.005466 0.325931 0.749069 -0.294975
C30   C     C_2   0.983215 0.311669 0.804155 -0.378659
C31   C     C_2   0.039238 0.770899 0.327626 0.457319
C32   C     C_2   0.979315 0.796170 0.316568 0.234819
C33   C     C_2   0.019844 0.692996 0.252899 -0.298942
C34   C     C_R   0.379300 0.497752 0.380740 0.845547
C35   C     C_2   0.999085 0.689656 0.176826 0.345833
C36   C     C_3   0.668623 0.402769 0.660123 0.331206
C37   C     C_3   0.736422 0.402308 0.733619 -0.450707
C38   C     C_3   0.773075 0.550876 0.695961 -0.535702
C39   C     C_3   0.695762 0.546145 0.776609 -0.390400
C40   C     C_3   0.685202 0.498473 0.686510 0.004856
Cu1   Cu    Cu3+1 0.500730 0.439000 0.439690 0.961528
Cu2   Cu    Cu3+1 0.499270 0.561000 0.560310 0.942479
Cu3   Cu    Cu3+1 0.933160 0.439090 0.994150 0.945145
Cu4   Cu    Cu3+1 0.055180 0.561040 0.994050 0.970897
Cu5   Cu    Cu3+1 0.061740 0.000000 0.561740 0.981070
Cu6   Cu    Cu3+1 0.938260 1.000000 0.438260 0.997440
H1    H     H_    0.682728 0.383753 0.607354 0.121557
H2    H     H_    0.814306 0.609613 0.899810 0.145842
H3    H     H_    0.788519 0.619578 0.714811 0.162361
H4    H     H_    0.892551 0.619648 0.818215 0.152694
H5    H     H_    0.274482 0.250835 0.633679 0.159891
H6    H     H_    0.160319 0.193531 0.443901 0.154387
H7    H     H_    0.362206 0.385512 0.632499 0.159425
H8    H     H_    0.285963 0.246956 0.445246 0.155649
H9    H     H_    0.113471 0.477961 0.245831 0.161235
H10   H     H_    0.245487 0.533548 0.191069 0.153297
H11   H     H_    0.248635 0.523478 0.380535 0.163378
H12   H     H_    0.302211 0.464614 0.248212 0.153159
H13   H     H_    0.842661 0.792359 0.543982 0.151555
H14   H     H_    0.641507 0.610378 0.370565 0.128343
H15   H     H_    0.034289 0.198051 0.747791 0.122057
H16   H     H_    0.031358 0.391045 0.757198 0.183698
H17   H     H_    0.950670 0.245481 0.792157 0.157722
H18   H     H_    0.705942 0.366823 0.760577 0.197514
H19   H     H_    0.028442 0.641606 0.262474 0.094124
H20   H     H_    0.765528 0.365767 0.708038 0.132681
H21   H     H_    0.769754 0.522949 0.633078 0.183896
H22   H     H_    0.716733 0.616133 0.796584 0.191505
H23   H     H_    0.634192 0.520049 0.775552 0.155710
H24   H     H_    0.734190 0.505371 0.871436 0.190934
O1    O     O_R   0.411600 0.359460 0.449080 -0.574256
O2    O     O_R   0.046690 0.462500 0.906070 -0.570998
O3    O     O_R   0.852560 0.448570 0.904070 -0.599627
O4    O     O_R   0.955610 0.551560 0.903980 -0.566801
O5    O     O_R   0.941640 0.537630 0.082140 -0.591630
O6    O     O_R   0.044680 0.640620 0.082050 -0.582790
O7    O     O_R   0.032730 0.448570 0.084230 -0.578493
O8    O     O_R   0.135770 0.551560 0.084140 -0.588344
O9    O     O_R   0.051070 0.089000 0.640130 -0.602304
O10   O     O_R   0.946790 0.089000 0.535860 -0.536959
O11   O     O_R   0.141150 0.089030 0.552120 -0.582036
O12   O     O_R   0.410370 0.462480 0.550940 -0.589244
O13   O     O_R   0.036880 0.089030 0.447850 -0.581325
O14   O     O_R   0.053210 0.911000 0.464140 -0.540061
O15   O     O_R   0.948930 0.911000 0.359870 -0.601538
O16   O     O_R   0.963120 0.910970 0.552150 -0.602301
O17   O     O_R   0.858850 0.910970 0.447880 -0.537658
O18   O     O_R   0.590700 0.448490 0.539150 -0.576346
O19   O     O_R   0.589460 0.551510 0.641010 -0.605882
O20   O     O_R   0.589630 0.537520 0.449060 -0.598058
O21   O     O_R   0.588400 0.640540 0.550920 -0.585313
O22   O     O_R   0.410540 0.448490 0.358990 -0.589681
O23   O     O_R   0.409300 0.551510 0.460850 -0.576991
O24   O     O_R   0.943650 0.359510 0.906150 -0.589962
O25   O     O_3   0.582152 0.335356 0.621698 -0.571658
C41   C     C_3   0.544643 0.348625 0.672905 0.083537
H25   H     H_    0.516198 0.390030 0.662720 0.135244
H26   H     H_    0.590736 0.378265 0.742614 0.137023
C42   C     C_3   0.471843 0.260606 0.643990 -0.767738
H27   H     H_    0.498094 0.217638 0.654251 0.243896
H28   H     H_    0.439890 0.269992 0.681940 0.194928
H29   H     H_    0.423163 0.228464 0.574463 0.263804
O26   O     O_3   0.715216 0.753871 0.347499 -0.571700
C43   C     C_3   0.624976 0.717443 0.296919 0.079733
H30   H     H_    0.598154 0.740326 0.337052 0.152550
H31   H     H_    0.592156 0.644803 0.262263 0.139120
C44   C     C_3   0.606115 0.746010 0.229909 -0.772659
H32   H     H_    0.631030 0.723330 0.187896 0.248083
H33   H     H_    0.535269 0.717450 0.189306 0.195831
H34   H     H_    0.637657 0.818451 0.262386 0.250327
O27   O     O_3   0.720262 0.775600 0.565793 -0.740641
H35   H     H_    0.716696 0.774883 0.615906 0.335700
O28   O     O_3   0.970013 0.251390 0.595168 -0.559288
C45   C     C_3   0.915670 0.287005 0.576411 0.080960
H36   H     H_    0.953852 0.359635 0.615348 0.151617
H37   H     H_    0.862195 0.262076 0.588557 0.140626
C46   C     C_3   0.875370 0.260731 0.481585 -0.765635
H38   H     H_    0.836242 0.188342 0.440669 0.248740
H39   H     H_    0.832801 0.288706 0.466038 0.194905
H40   H     H_    0.926780 0.285661 0.467263 0.250698
O29   O     O_3   0.115402 0.817021 0.407916 -0.590329
C47   C     C_3   0.182728 0.804665 0.402383 0.062620
H41   H     H_    0.191238 0.815987 0.351607 0.155635
H42   H     H_    0.169630 0.737653 0.388955 0.143710
C48   C     C_3   0.266924 0.869947 0.488293 -0.752346
H43   H     H_    0.261198 0.859961 0.540485 0.248949
H44   H     H_    0.320416 0.860763 0.484913 0.196904
H45   H     H_    0.282216 0.937764 0.503514 0.250887
O30   O     O_3   0.899416 0.742852 0.240390 -0.743138
H46   H     H_    0.859581 0.764804 0.244567 0.339031
O31   O     O_3   0.003816 0.763170 0.170656 -0.564077
C49   C     C_3   0.940045 0.738585 0.087910 0.105924
H47   H     H_    0.876155 0.683932 0.065444 0.142651
H48   H     H_    0.960446 0.719064 0.040510 0.137227
C50   C     C_3   0.928928 0.816378 0.091665 -0.765206
H49   H     H_    0.991026 0.871803 0.112383 0.246965
H50   H     H_    0.879190 0.797922 0.026864 0.186176
H51   H     H_    0.907982 0.837252 0.138199 0.263624
O32   O     O_3   0.891011 0.518502 0.733173 -0.723322
H52   H     H_    0.848777 0.460045 0.680886 0.312175

loop_
_geom_bond_atom_site_label_1
_geom_bond_atom_site_label_2
_ccdc_geom_bond_type
Cu3   O3    S    
C50   H51   S    
C38   C40   S    
C27   C29   S    
Cu2   O23   S    
Cu1   Cu2   S    
O27   H35   S    
Cu2   O12   S    
C34   O23   A    
C24   O11   A    
C4    H24   S    
C45   H36   S    
C33   H19   S    
C7    C8    D    
C38   H3    S    
Cu5   Cu6   S    
C1    O1    A    
C36   C37   S    
C24   O13   A    
C22   O9    A    
Cu6   O17   S    
C46   H39   S    
C5    C6    D    
C1    C8    S    
C41   C42   S    
Cu3   O24   S    
C20   O6    A    
C36   H1    S    
Cu2   O21   S    
C16   H14   S    
Cu4   O6    S    
C43   H30   S    
C20   C35   S    
C31   C32   D    
C3    C38   S    
C49   H47   S    
C41   H26   S    
C21   O8    A    
C25   O14   A    
C44   H32   S    
C31   C33   S    
C36   O25   S    
C9    H9    S    
C10   H10   S    
C9    C10   D    
Cu1   O1    S    
Cu6   O15   S    
C28   H15   S    
C25   C32   S    
C50   H49   S    
Cu1   O20   S    
C22   C28   S    
C30   H17   S    
C41   H25   S    
C18   O2    A    
C44   H33   S    
Cu5   O16   S    
C17   O27   S    
C43   H31   S    
C32   O30   S    
C3    H4    S    
C10   C21   S    
Cu3   O5    S    
C12   O18   A    
C12   O19   A    
C36   C40   S    
C31   O29   S    
C46   H40   S    
C8    H8    S    
C39   C40   S    
C5    C7    S    
C16   C17   D    
C15   C26   S    
C13   H12   S    
C1    O12   A    
C20   O5    A    
C12   C40   S    
C2    C4    S    
Cu3   Cu4   S    
C39   H22   S    
C29   C30   D    
C48   H45   S    
C42   H27   S    
C4    C39   S    
C19   O3    A    
C26   O16   A    
C6    C24   S    
C37   H20   S    
Cu1   O22   S    
C25   O15   A    
C39   H23   S    
C23   O20   A    
Cu5   O9    S    
C17   C23   S    
Cu4   O4    S    
C9    C11   S    
O29   C47   S    
C18   C30   S    
C27   O28   S    
C42   H28   S    
C48   H43   S    
C18   O24   A    
C44   H34   S    
C23   O21   A    
Cu5   O14   S    
C3    O32   S    
C7    H7    S    
C47   H42   S    
O31   C49   S    
C35   O31   S    
C27   C28   D    
C37   H18   S    
O28   C45   S    
C4    H2    S    
C50   H50   S    
Cu1   O18   S    
C29   H16   S    
C2    C19   S    
C15   H13   S    
C19   O4    A    
Cu5   O11   S    
C45   H37   S    
O32   H52   S    
Cu3   O7    S    
Cu2   O19   S    
C47   C48   S    
Cu4   O8    S    
C2    C3    S    
O30   H46   S    
C22   O10   A    
C13   C34   S    
C46   H38   S    
Cu6   O10   S    
C11   C13   D    
C2    C37   S    
C14   O26   S    
C26   O17   A    
C49   C50   S    
C33   C35   D    
Cu4   O2    S    
C14   C16   S    
C34   O22   A    
C45   C46   S    
Cu6   O13   S    
C42   H29   S    
C38   H21   S    
C49   H48   S    
C21   O7    A    
O26   C43   S    
C48   H44   S    
C14   C15   D    
C5    H5    S    
C6    H6    S    
C47   H41   S    
C11   H11   S    
C43   C44   S    
O25   C41   S    
