data_mof_unit_6181.cif
_audit_creation_date              2012-10-26T19:35:13-0400
_audit_creation_method            fapswitch 2.2
_symmetry_space_group_name_H-M    P1
_symmetry_Int_Tables_number       1
_space_group_crystal_system       triclinic
_cell_length_a                    10.88038
_cell_length_b                    10.889132
_cell_length_c                    9.572745
_cell_angle_alpha                 91.061074
_cell_angle_beta                  88.003474
_cell_angle_gamma                 91.934816
_cell_volume                      1132.65319922

loop_
_atom_site_label
_atom_site_type_symbol
_atom_type_description
_atom_site_fract_x
_atom_site_fract_y
_atom_site_fract_z
_atom_type_partial_charge
C1    C     C_R   0.498355 0.262434 0.499223 0.569928
C2    C     C_R   0.444235 0.933134 0.380528 0.082751
C3    C     C_R   0.478138 0.870484 0.501614 0.038343
C4    C     C_R   0.261646 0.506519 0.503040 0.555298
C5    C     C_R   0.496737 0.939412 0.624003 -0.075336
C6    C     C_3   0.597400 0.933187 0.724808 -0.160574
C7    C     C_3   0.608856 0.071607 0.718442 0.455635
C8    C     C_R   0.534719 0.604060 0.073214 0.134942
C9    C     C_R   0.438942 0.409593 0.074556 0.232976
C10   C     C_R   0.436999 0.411433 0.925478 0.508180
C11   C     C_R   0.542917 0.599399 0.927010 0.105328
C12   C     C_R   0.054353 0.476403 0.632702 -0.084810
C13   C     C_3   0.665945 0.662381 0.919548 0.268634
C14   C     C_3   0.647360 0.688269 0.075808 -0.018625
C15   C     C_R   0.494464 0.737536 0.500762 0.538510
C16   C     C_R   0.736245 0.485467 0.497886 0.553736
C17   C     C_R   0.099355 0.479238 0.770800 0.409007
C18   C     C_R   0.036168 0.415102 0.877680 0.505666
C19   C     C_R   0.923236 0.357065 0.853774 0.455587
C20   C     C_R   0.868269 0.372219 0.726808 -0.046654
C21   C     C_R   0.929634 0.438881 0.618472 -0.145879
C22   C     C_R   0.125489 0.509474 0.509063 -0.040425
C23   C     C_R   0.064013 0.523506 0.381941 0.095705
C24   C     C_R   0.939734 0.495376 0.375466 0.436813
C25   C     C_R   0.869690 0.467036 0.495519 0.005634
C26   C     C_R   0.502629 0.066392 0.622599 0.051084
C27   C     C_R   0.487245 0.129197 0.499491 0.023901
C28   C     C_R   0.449905 0.062295 0.381015 -0.116560
Cu1   Cu    Cu3+1 0.499990 0.499980 0.640670 1.114638
Cu2   Cu    Cu3+1 0.500010 0.500020 0.359330 1.059335
F1    F     F_    0.718396 0.112560 0.654307 -0.623916
F2    F     F_    0.370779 0.323554 0.856212 -0.630212
F3    F     F_    0.757650 0.580032 0.889213 -0.591283
F4    F     F_    0.190865 0.558714 0.810272 -0.577658
F5    F     F_    0.083369 0.411834 0.006313 -0.561023
F6    F     F_    0.862556 0.293738 0.957162 -0.523231
F7    F     F_    0.889299 0.489365 0.248357 -0.517666
H1    H     H_    0.679349 0.886301 0.679799 0.160571
H2    H     H_    0.492192 0.115243 0.886073 0.220200
H3    H     H_    0.279971 0.319134 0.125951 0.281731
H4    H     H_    0.402815 0.230281 0.104682 0.220989
H5    H     H_    0.735915 0.689150 0.257204 0.233290
H6    H     H_    0.828731 0.685533 0.116864 0.290806
H7    H     H_    0.321124 0.826050 0.278829 0.236928
H8    H     H_    0.397317 0.926452 0.174108 0.226772
H9    H     H_    0.673812 0.744193 0.854860 0.087701
H10   H     H_    0.624044 0.785545 0.099569 0.094831
H11   H     H_    0.778094 0.330176 0.713366 0.218082
H12   H     H_    0.428120 0.109799 0.287876 0.143607
H13   H     H_    0.560199 0.900467 0.827591 0.092371
H14   H     H_    0.177827 0.509697 0.208425 0.316228
H15   H     H_    0.174735 0.653311 0.285567 0.217143
H16   H     H_    0.596954 0.226619 0.841221 0.288976
N1    N     N_R   0.500790 0.500930 0.147930 -0.209819
N2    N     N_R   0.500790 0.500890 0.852020 -0.213118
N3    N     N_3   0.122662 0.574616 0.258511 -0.492918
N4    N     N_3   0.584016 0.132014 0.853823 -0.529115
N5    N     N_3   0.373088 0.313574 0.147371 -0.552761
N6    N     N_3   0.746377 0.647044 0.158687 -0.402160
N7    N     N_3   0.407815 0.866645 0.256761 -0.605299
O1    O     O_R   0.500000 0.319640 0.618810 -0.468724
O2    O     O_R   0.500010 0.319680 0.381230 -0.478595
O3    O     O_R   0.319640 0.499980 0.618820 -0.394226
O4    O     O_R   0.319650 0.500020 0.381230 -0.531560
O5    O     O_R   0.499990 0.680320 0.618770 -0.520512
O6    O     O_R   0.500000 0.680360 0.381190 -0.496804
O7    O     O_R   0.680350 0.499980 0.618770 -0.493313
O8    O     O_R   0.680360 0.500020 0.381180 -0.429081

loop_
_geom_bond_atom_site_label_1
_geom_bond_atom_site_label_2
_ccdc_geom_bond_type
H5    N6    S    
C12   C17   A    
C2    C28   A    
C23   C24   A    
Cu1   O3    S    
H8    N7    S    
C13   F3    S    
C6    C7    S    
C16   O8    A    
Cu2   O4    S    
Cu2   N1    S    
C9    C10   A    
C4    O4    A    
C15   O6    A    
C19   C20   A    
H6    N6    S    
C1    O2    A    
C15   O5    A    
C6    H1    S    
C2    C3    A    
C24   C25   A    
C3    C15   S    
C23   N3    S    
C16   O7    A    
C20   H11   S    
C13   C14   S    
C6    H13   S    
C10   N2    A    
C11   C13   S    
C4    O3    A    
C26   C27   A    
Cu1   Cu2   S    
C7    C26   S    
H15   N3    S    
H7    N7    S    
C8    C11   A    
Cu1   O5    S    
Cu2   O6    S    
C7    F1    S    
H4    N5    S    
C24   F7    S    
C2    N7    S    
C19   F6    S    
Cu2   O2    S    
C5    C6    S    
C12   C22   A    
Cu1   O1    S    
H3    N5    S    
C17   F4    S    
C5    C26   A    
H2    N4    S    
Cu1   O7    S    
C10   F2    S    
C27   C28   A    
C11   N2    A    
C20   C21   A    
C17   C18   A    
C9    N5    S    
C18   F5    S    
C8    N1    A    
C16   C25   S    
C1    C27   S    
C4    C22   S    
C21   C25   A    
C13   H9    S    
C18   C19   A    
C8    C14   S    
C9    N1    A    
Cu1   N2    S    
C14   N6    S    
C22   C23   A    
C14   H10   S    
C12   C21   A    
C7    N4    S    
Cu2   O8    S    
H14   N3    S    
C1    O1    A    
C3    C5    A    
C28   H12   S    
H16   N4    S    
