data_mof_unit_49114.cif
_audit_creation_date              2012-10-26T19:17:09-0400
_audit_creation_method            fapswitch 2.2
_symmetry_space_group_name_H-M    P1
_symmetry_Int_Tables_number       1
_space_group_crystal_system       triclinic
_cell_length_a                    15.025499
_cell_length_b                    15.796555
_cell_length_c                    16.999558
_cell_angle_alpha                 96.544503
_cell_angle_beta                  89.785566
_cell_angle_gamma                 92.552958
_cell_volume                      4004.58926497

loop_
_atom_site_label
_atom_site_type_symbol
_atom_type_description
_atom_site_fract_x
_atom_site_fract_y
_atom_site_fract_z
_atom_type_partial_charge
C1    C     C_R   0.502301 0.489534 0.348322 0.564113
C2    C     C_R   0.568016 0.460696 0.853610 0.256090
C3    C     C_R   0.541376 0.473596 0.098037 0.214473
C4    C     C_R   0.530703 0.529216 0.902617 0.218630
C5    C     C_R   0.513689 0.400492 0.132985 0.246159
C6    C     C_R   0.492644 0.595320 0.867444 0.237915
C7    C     C_R   0.498022 0.406566 0.214670 -0.164629
C8    C     C_R   0.483185 0.588467 0.785007 -0.178700
C9    C     C_R   0.461703 0.751051 0.457882 0.009928
C10   C     C_R   0.542253 0.248850 0.539044 0.025334
C11   C     C_R   0.463984 0.840454 0.460358 -0.121356
C12   C     C_R   0.503026 0.510550 0.651500 0.548956
C13   C     C_R   0.539957 0.159444 0.536756 -0.117909
C14   C     C_R   0.517272 0.891391 0.517224 0.207399
C15   C     C_R   0.482155 0.108648 0.483550 0.207548
C16   C     C_R   0.328682 0.500122 0.500558 0.578348
C17   C     C_R   0.671316 0.499779 0.498870 0.576798
C18   C     C_R   0.566771 0.849438 0.569702 -0.149792
C19   C     C_R   0.428444 0.150719 0.434339 -0.141235
C20   C     C_R   0.563009 0.759889 0.564853 0.010343
C21   C     C_R   0.432751 0.240243 0.438613 0.024656
C22   C     C_R   0.810692 0.448424 0.545093 -0.186203
C23   C     C_R   0.053304 0.573033 0.380153 -0.111094
C24   C     C_R   0.189010 0.537759 0.442240 -0.189367
C25   C     C_R   0.767823 0.498706 0.496018 -0.004842
C26   C     C_R   0.232061 0.499518 0.500526 -0.005879
C27   C     C_R   0.816362 0.545348 0.443193 0.231214
C28   C     C_R   0.183452 0.458822 0.557354 0.254045
C29   C     C_R   0.909389 0.536492 0.436184 0.013120
C30   C     C_R   0.089863 0.448061 0.549858 0.012129
C31   C     C_R   0.952895 0.490925 0.491000 -0.033194
C32   C     C_R   0.046417 0.490835 0.492936 -0.035066
C33   C     C_R   0.902982 0.446047 0.544545 -0.041324
C34   C     C_R   0.945692 0.398065 0.596018 -0.115176
C35   C     C_R   0.096401 0.534841 0.438762 -0.043804
C36   C     C_R   0.960503 0.571153 0.376169 0.263960
C37   C     C_R   0.038319 0.396051 0.597186 0.257850
C38   C     C_3   0.778918 0.680750 0.427950 0.048192
C39   C     C_3   0.719365 0.732700 0.380934 -0.243664
C40   C     C_3   0.731778 0.828034 0.407521 -0.484534
C41   C     C_3   0.213693 0.486147 0.690796 0.031932
C42   C     C_3   0.260462 0.574558 0.690609 -0.296840
C43   C     C_3   0.253652 0.627050 0.771358 -0.476835
C44   C     C_3   0.887327 0.539545 0.257585 0.040984
C45   C     C_R   0.514547 0.483953 0.262289 -0.081566
C46   C     C_3   0.958738 0.510219 0.197154 -0.287332
C47   C     C_3   0.919805 0.444732 0.131872 -0.492639
C48   C     C_3   0.104336 0.269023 0.603501 0.046261
C49   C     C_3   0.029384 0.199635 0.599688 -0.289308
C50   C     C_3   0.060719 0.114702 0.559783 -0.483233
C51   C     C_3   0.706710 0.430183 0.894540 0.009634
C52   C     C_3   0.764209 0.387382 0.828268 -0.273384
C53   C     C_3   0.862614 0.413385 0.840932 -0.481460
C54   C     C_3   0.691307 0.606299 0.092556 0.011710
C55   C     C_3   0.748267 0.688958 0.109416 -0.264137
C56   C     C_R   0.512352 0.516966 0.737490 -0.081644
C57   C     C_3   0.838921 0.682068 0.069062 -0.487120
C58   C     C_3   0.558093 0.264308 0.097552 0.011048
C59   C     C_3   0.642752 0.279094 0.049322 -0.256504
C60   C     C_3   0.709859 0.211068 0.057910 -0.496362
C61   C     C_3   0.502379 0.740178 0.905188 0.009029
C62   C     C_3   0.585374 0.752867 0.958024 -0.253447
C63   C     C_3   0.633441 0.838804 0.950861 -0.498414
C64   C     C_R   0.548877 0.555120 0.228077 -0.132772
C65   C     C_R   0.554962 0.453548 0.771958 -0.140672
C66   C     C_R   0.565051 0.550195 0.146997 0.243528
Cu1   Cu    Cu3+1 0.495660 0.415220 0.496180 0.959255
Cu2   Cu    Cu3+1 0.504340 0.584780 0.503820 0.924414
H1    H     H_    0.771909 0.412916 0.585378 0.107869
H2    H     H_    0.907085 0.361235 0.635269 0.114020
H3    H     H_    0.580865 0.399572 0.735246 0.135959
H4    H     H_    0.565665 0.614473 0.264532 0.154431
H5    H     H_    0.472258 0.350867 0.240532 0.138363
H6    H     H_    0.450859 0.638031 0.758297 0.132990
H7    H     H_    0.586909 0.287162 0.579906 0.115369
H8    H     H_    0.420255 0.712679 0.414377 0.126964
H9    H     H_    0.848990 0.705952 0.424424 0.160856
H10   H     H_    0.757572 0.688901 0.491157 0.123223
H11   H     H_    0.735667 0.720701 0.316975 0.173486
H12   H     H_    0.227981 0.569321 0.399311 0.116248
H13   H     H_    0.648571 0.712078 0.388976 0.188227
H14   H     H_    0.720100 0.841419 0.472139 0.150151
H15   H     H_    0.683659 0.863365 0.375774 0.160421
H16   H     H_    0.800432 0.851000 0.393858 0.147314
H17   H     H_    0.240757 0.455209 0.740554 0.171355
H18   H     H_    0.141545 0.493536 0.703194 0.154926
H19   H     H_    0.331431 0.567078 0.674943 0.191292
H20   H     H_    0.229345 0.609846 0.645733 0.155668
H21   H     H_    0.182702 0.636738 0.787011 0.146135
H22   H     H_    0.288260 0.690387 0.769540 0.156968
H23   H     H_    0.583148 0.130848 0.576126 0.118328
H24   H     H_    0.285349 0.594253 0.817702 0.182978
H25   H     H_    0.832254 0.565818 0.225995 0.161118
H26   H     H_    0.857632 0.483724 0.284706 0.141181
H27   H     H_    0.987748 0.566125 0.170294 0.170673
H28   H     H_    0.012979 0.480859 0.227355 0.159669
H29   H     H_    0.892335 0.387457 0.157514 0.148123
H30   H     H_    0.972918 0.424896 0.088974 0.155010
H31   H     H_    0.866016 0.472386 0.099666 0.127975
H32   H     H_    0.162077 0.246929 0.635004 0.176180
H33   H     H_    0.128163 0.278174 0.542611 0.133420
H34   H     H_    0.424333 0.868941 0.418215 0.121887
H35   H     H_    0.006338 0.191306 0.660652 0.171442
H36   H     H_    0.972255 0.219049 0.565623 0.154768
H37   H     H_    0.082934 0.121374 0.498303 0.148881
H38   H     H_    0.004952 0.065941 0.557599 0.148025
H39   H     H_    0.116636 0.092662 0.593654 0.153305
H40   H     H_    0.730321 0.412517 0.952053 0.139842
H41   H     H_    0.716677 0.501063 0.897682 0.098192
H42   H     H_    0.755388 0.316946 0.826493 0.170468
H43   H     H_    0.742841 0.405920 0.770367 0.146794
H44   H     H_    0.873228 0.483456 0.841106 0.145505
H45   H     H_    0.608677 0.886053 0.614106 0.096349
H46   H     H_    0.902515 0.381044 0.792228 0.161747
H47   H     H_    0.886122 0.394527 0.898057 0.145975
H48   H     H_    0.691447 0.586045 0.027873 0.149303
H49   H     H_    0.722783 0.555995 0.122779 0.094692
H50   H     H_    0.713547 0.742453 0.087901 0.172531
H51   H     H_    0.758031 0.703731 0.174318 0.161555
H52   H     H_    0.875410 0.629245 0.089696 0.150999
H53   H     H_    0.878969 0.742544 0.083756 0.153386
H54   H     H_    0.830570 0.670441 0.003760 0.136996
H55   H     H_    0.528262 0.200116 0.076628 0.154706
H56   H     H_    0.383219 0.114193 0.392643 0.101172
H57   H     H_    0.574936 0.263085 0.161223 0.111440
H58   H     H_    0.624848 0.277658 0.985829 0.223142
H59   H     H_    0.674500 0.342577 0.069941 0.145630
H60   H     H_    0.729883 0.212294 0.120884 0.147579
H61   H     H_    0.770138 0.223767 0.022350 0.146774
H62   H     H_    0.680677 0.146824 0.036265 0.147993
H63   H     H_    0.456838 0.792296 0.923640 0.153891
H64   H     H_    0.520672 0.746807 0.842544 0.108128
H65   H     H_    0.565307 0.749729 0.020634 0.217177
H66   H     H_    0.631972 0.701303 0.940707 0.155103
H67   H     H_    0.601930 0.728608 0.605490 0.118131
H68   H     H_    0.654774 0.842902 0.888720 0.145509
H69   H     H_    0.693473 0.846066 0.989313 0.143022
H70   H     H_    0.588987 0.891682 0.969750 0.148561
H71   H     H_    0.390918 0.271620 0.400264 0.121411
H72   H     H_    0.091709 0.603465 0.336224 0.124700
N1    N     N_2   0.544272 0.467107 0.014207 -0.163860
N2    N     N_2   0.529827 0.534980 0.986669 -0.164829
N3    N     N_R   0.510860 0.712130 0.509560 -0.227603
N4    N     N_R   0.489140 0.287870 0.490440 -0.220453
N5    N     N_2   0.523665 0.983182 0.523881 -0.245373
N6    N     N_2   0.475791 0.016857 0.476973 -0.244969
O1    O     O_R   0.495940 0.420530 0.382500 -0.507381
O2    O     O_3   0.229122 0.431706 0.620061 -0.539904
O3    O     O_3   0.921784 0.605745 0.314038 -0.560784
O4    O     O_3   0.076983 0.345073 0.647377 -0.565153
O5    O     O_3   0.616730 0.399948 0.884458 -0.553139
O6    O     O_3   0.602772 0.621571 0.117416 -0.558213
O7    O     O_3   0.494179 0.324845 0.085407 -0.538505
O8    O     O_3   0.456128 0.662008 0.915144 -0.546833
O9    O     O_R   0.504060 0.579470 0.617500 -0.515232
O10   O     O_R   0.503270 0.563720 0.388950 -0.508243
O11   O     O_R   0.496730 0.436280 0.611050 -0.489484
O12   O     O_R   0.366590 0.428400 0.496760 -0.468980
O13   O     O_R   0.633410 0.571600 0.503240 -0.488549
O14   O     O_R   0.373920 0.571590 0.503210 -0.514944
O15   O     O_R   0.626080 0.428410 0.496790 -0.513949
O16   O     O_3   0.771044 0.594301 0.395355 -0.550778

loop_
_geom_bond_atom_site_label_1
_geom_bond_atom_site_label_2
_ccdc_geom_bond_type
C48   O4    S    
C16   O14   A    
C34   C37   A    
C41   C42   S    
C14   C18   A    
C40   H15   S    
C37   O4    S    
C2    C65   A    
C61   O8    S    
C8    C56   A    
C49   H36   S    
N5    N6    D    
C9    N3    A    
C7    H5    S    
C55   H51   S    
C52   C53   S    
C59   H58   S    
C15   C19   A    
C41   H18   S    
C29   C36   A    
C58   H55   S    
C43   H21   S    
C47   H30   S    
C7    C45   A    
C62   H65   S    
C19   C21   A    
C24   C26   A    
C27   O16   S    
C4    N2    S    
C38   C39   S    
C11   C14   A    
C36   O3    S    
C27   C29   A    
C59   H59   S    
C56   C65   A    
C47   H31   S    
Cu2   N3    S    
C40   H16   S    
C44   H25   S    
C61   H64   S    
C57   H54   S    
C46   C47   S    
C24   H12   S    
C46   H27   S    
C51   H40   S    
C22   C25   A    
C54   H48   S    
C50   H37   S    
C31   C33   A    
C9    H8    S    
C12   O11   A    
C11   H34   S    
Cu2   O13   S    
C34   H2    S    
C22   H1    S    
Cu2   O9    S    
C51   O5    S    
C59   C60   S    
C51   H41   S    
C13   H23   S    
C63   H69   S    
C20   N3    A    
Cu1   N4    S    
C18   H45   S    
C44   C46   S    
C16   C26   S    
C48   H32   S    
C19   H56   S    
C28   O2    S    
C43   H22   S    
C16   O12   A    
Cu1   Cu2   S    
C24   C35   A    
C32   C35   A    
C40   H14   S    
C23   H72   S    
C60   H60   S    
C39   H13   S    
C4    C6    A    
C60   H62   S    
C39   C40   S    
C5    C7    A    
C6    C8    A    
C38   H10   S    
C52   H43   S    
C3    C5    A    
C58   C59   S    
C65   H3    S    
C51   C52   S    
C30   C37   A    
C64   C66   A    
C1    O10   A    
C2    C4    A    
C66   O6    S    
C62   C63   S    
C58   O7    S    
C10   H7    S    
Cu1   O15   S    
C31   C32   A    
C14   N5    S    
C52   H42   S    
C8    H6    S    
C33   C34   A    
Cu1   O11   S    
C12   C56   S    
C9    C11   A    
C6    O8    S    
C17   O15   A    
C57   H52   S    
C53   H44   S    
C48   C49   S    
C49   C50   S    
C23   C35   A    
C55   C57   S    
Cu1   O1    S    
C50   H39   S    
C63   H70   S    
C1    O1    A    
C3    C66   A    
C42   H20   S    
C42   C43   S    
C21   H71   S    
C12   O9    A    
C53   H46   S    
C2    O5    S    
C22   C33   A    
C54   C55   S    
C10   N4    A    
C43   H24   S    
C21   N4    A    
Cu2   O10   S    
C10   C13   A    
C60   H61   S    
C49   H35   S    
C15   N6    S    
C54   O6    S    
C38   H9    S    
C3    N1    S    
C25   C27   A    
C41   H17   S    
C45   C64   A    
C26   C28   A    
C44   O3    S    
C47   H29   S    
C17   C25   S    
C63   H68   S    
C62   H66   S    
C13   C15   A    
C29   C31   A    
N1    N2    D    
C30   C32   A    
C1    C45   S    
C41   O2    S    
C5    O7    S    
C48   H33   S    
C28   C30   A    
Cu1   O12   S    
C18   C20   A    
C64   H4    S    
C20   H67   S    
C61   C62   S    
C17   O13   A    
C44   H26   S    
C61   H63   S    
C57   H53   S    
C38   O16   S    
C46   H28   S    
C58   H57   S    
C23   C36   A    
C54   H49   S    
C50   H38   S    
C42   H19   S    
Cu2   O14   S    
C53   H47   S    
C39   H11   S    
C55   H50   S    
