data_mof_unit_17111.cif
_audit_creation_date              2012-12-10T17:01:41-0500
_audit_creation_method            fapswitch 2.2
_symmetry_space_group_name_H-M    P1
_symmetry_Int_Tables_number       1
_space_group_crystal_system       triclinic
_cell_length_a                    21.871555
_cell_length_b                    21.84324
_cell_length_c                    23.780518
_cell_angle_alpha                 89.506189
_cell_angle_beta                  90.004371
_cell_angle_gamma                 89.934732
_cell_volume                      11360.6090719

loop_
_atom_site_label
_atom_site_type_symbol
_atom_type_description
_atom_site_fract_x
_atom_site_fract_y
_atom_site_fract_z
_atom_type_partial_charge
C1    C     C_R   0.381049 0.000499 0.501593 0.913166
C2    C     C_R   0.000152 0.380983 0.499489 0.896306
C3    C     C_R   0.619117 0.999946 0.500192 0.897161
C4    C     C_R   0.000310 0.619076 0.500868 0.889496
C5    C     C_R   0.880907 0.500177 0.000254 0.899524
C6    C     C_R   0.499754 0.880881 0.000916 0.881520
C7    C     C_R   0.119061 0.499883 0.000325 0.896927
C8    C     C_R   0.500207 0.119032 0.000685 0.889448
C9    C     C_R   0.281436 0.957321 0.468362 -0.051638
C10   C     C_R   0.048620 0.280317 0.470593 -0.066838
C11   C     C_R   0.719738 0.047544 0.469506 -0.052641
C12   C     C_R   0.954646 0.719653 0.469456 -0.062429
C13   C     C_R   0.280422 0.046917 0.535560 -0.047600
C14   C     C_R   0.049440 0.719781 0.530557 -0.050770
C15   C     C_R   0.719631 0.952458 0.532301 -0.043438
C16   C     C_R   0.953240 0.280835 0.530544 -0.050635
C17   C     C_R   0.780285 0.455085 0.967245 -0.042517
C18   C     C_R   0.546872 0.780564 0.971359 -0.067552
C19   C     C_R   0.219248 0.546773 0.968781 -0.048527
C20   C     C_R   0.454456 0.219752 0.969590 -0.061698
C21   C     C_R   0.780617 0.545560 0.035008 -0.048708
C22   C     C_R   0.548406 0.219243 0.031552 -0.046050
C23   C     C_R   0.219635 0.452454 0.032143 -0.043774
C24   C     C_R   0.451089 0.779741 0.032145 -0.042316
C25   C     C_R   0.185226 0.001619 0.500138 -0.012536
C26   C     C_R   0.999826 0.184964 0.500457 -0.012557
C27   C     C_R   0.815058 0.999921 0.500798 -0.018188
C28   C     C_R   0.000364 0.815121 0.500270 -0.017217
C29   C     C_R   0.685068 0.501502 0.999896 -0.016244
C30   C     C_R   0.499464 0.684838 0.000869 -0.015111
C31   C     C_R   0.314950 0.499947 0.000225 -0.014600
C32   C     C_R   0.500386 0.315028 0.000890 -0.013884
C33   C     C_R   0.313710 0.002446 0.501350 -0.098927
C34   C     C_R   0.000636 0.313483 0.499923 -0.107339
C35   C     C_R   0.686695 0.999858 0.500565 -0.103325
C36   C     C_R   0.001587 0.686699 0.500502 -0.101842
C37   C     C_R   0.813409 0.500888 0.000197 -0.099816
C38   C     C_R   0.498832 0.813229 0.001260 -0.106176
C39   C     C_R   0.186548 0.499542 0.000349 -0.100806
C40   C     C_R   0.501077 0.186572 0.000783 -0.099799
C41   C     C_R   0.999172 0.118490 0.499953 0.760673
C42   C     C_R   0.881540 0.999636 0.500118 0.755842
C43   C     C_R   0.999561 0.881551 0.500151 0.759783
C44   C     C_R   0.118585 0.000439 0.499997 0.753107
C45   C     C_R   0.499755 0.618422 0.999997 0.761507
C46   C     C_R   0.381488 0.500113 0.000024 0.757141
C47   C     C_R   0.500146 0.381509 0.000249 0.761103
C48   C     C_R   0.618480 0.501252 0.999964 0.753686
C49   C     C_R   0.499735 0.000213 0.391958 0.854481
C50   C     C_R   0.000147 0.499433 0.391983 0.835584
C51   C     C_R   0.499089 0.999834 0.608034 0.850155
C52   C     C_R   0.999969 0.499546 0.608025 0.832074
C53   C     C_R   0.000682 0.500266 0.891958 0.838932
C54   C     C_R   0.500135 0.999448 0.891983 0.838391
C55   C     C_R   0.999186 0.499827 0.108036 0.850910
C56   C     C_R   0.500030 0.000444 0.108019 0.815968
C57   C     C_1   0.499504 0.000555 0.330996 -0.209600
C58   C     C_1   0.000762 0.498641 0.331017 -0.214053
C59   C     C_1   0.498610 0.999538 0.668983 -0.168778
C60   C     C_1   0.999869 0.499445 0.668983 -0.200141
C61   C     C_1   0.001151 0.500842 0.830978 -0.205063
C62   C     C_1   0.500694 0.998679 0.831017 -0.214564
C63   C     C_1   0.998807 0.499496 0.168983 -0.168642
C64   C     C_1   0.500100 0.000708 0.168994 -0.203640
C65   C     C_1   0.499589 0.000522 0.279955 -0.029924
C66   C     C_1   0.000474 0.498536 0.279961 -0.018762
C67   C     C_1   0.499252 0.999069 0.720025 -0.024099
C68   C     C_1   0.000114 0.499918 0.720016 -0.033089
C69   C     C_1   0.000809 0.500675 0.779933 -0.037361
C70   C     C_1   0.500333 0.998593 0.779961 -0.017529
C71   C     C_1   0.999459 0.499006 0.220024 -0.023604
C72   C     C_1   0.499924 0.000630 0.220035 -0.036098
C73   C     C_R   0.309958 0.912421 0.432421 0.325848
C74   C     C_R   0.096064 0.307192 0.435466 0.355573
C75   C     C_R   0.692930 0.094474 0.432987 0.355465
C76   C     C_R   0.909556 0.692335 0.433018 0.369624
C77   C     C_R   0.307013 0.091394 0.574231 0.363561
C78   C     C_R   0.097159 0.692978 0.565833 0.353256
C79   C     C_R   0.692526 0.905071 0.568117 0.354812
C80   C     C_R   0.906719 0.308725 0.565322 0.328630
C81   C     C_R   0.807123 0.408603 0.930687 0.349236
C82   C     C_R   0.593588 0.807798 0.935505 0.360234
C83   C     C_R   0.191734 0.593577 0.932851 0.358719
C84   C     C_R   0.409432 0.192636 0.932963 0.369456
C85   C     C_R   0.807423 0.589710 0.074187 0.365776
C86   C     C_R   0.595863 0.191656 0.066379 0.356892
C87   C     C_R   0.192608 0.405334 0.068191 0.355502
C88   C     C_R   0.403097 0.806045 0.067408 0.349525
C89   C     C_R   0.278658 0.856698 0.422370 0.363952
C90   C     C_R   0.150859 0.273632 0.424645 0.349547
C91   C     C_R   0.727292 0.148152 0.418562 0.352681
C92   C     C_R   0.854495 0.724098 0.419616 0.375299
C93   C     C_R   0.269281 0.128356 0.609396 0.382560
C94   C     C_R   0.150264 0.727920 0.579860 0.353168
C95   C     C_R   0.727180 0.851783 0.583237 0.368858
C96   C     C_R   0.851397 0.276452 0.575141 0.364376
C97   C     C_R   0.771838 0.356286 0.914378 0.369221
C98   C     C_R   0.649165 0.775180 0.925255 0.347616
C99   C     C_R   0.224603 0.648586 0.920637 0.365538
C100  C     C_R   0.354610 0.224669 0.919292 0.376509
C101  C     C_R   0.769867 0.626419 0.109800 0.383403
C102  C     C_R   0.650302 0.225142 0.078376 0.365171
C103  C     C_R   0.227118 0.351903 0.083017 0.368787
C104  C     C_R   0.351424 0.769968 0.084149 0.371479
C105  C     C_R   0.215397 0.855283 0.426564 0.210075
C106  C     C_R   0.153857 0.211652 0.440029 0.166757
C107  C     C_R   0.789421 0.150680 0.432165 0.176725
C108  C     C_R   0.849949 0.786541 0.432797 0.187117
C109  C     C_R   0.205675 0.127053 0.601965 0.167512
C110  C     C_R   0.152068 0.790298 0.566230 0.178712
C111  C     C_R   0.789957 0.850523 0.572302 0.203135
C112  C     C_R   0.850757 0.213125 0.570692 0.212655
C113  C     C_R   0.709420 0.354826 0.926186 0.203408
C114  C     C_R   0.653266 0.713478 0.941364 0.168582
C115  C     C_R   0.287364 0.650958 0.932233 0.196407
C116  C     C_R   0.350352 0.287161 0.932338 0.186055
C117  C     C_R   0.706333 0.625576 0.102413 0.168235
C118  C     C_R   0.651932 0.288168 0.066985 0.198983
C119  C     C_R   0.289910 0.350565 0.071960 0.201453
C120  C     C_R   0.350809 0.707462 0.072705 0.206293
C121  C     C_R   0.184971 0.905225 0.448152 -0.262447
C122  C     C_R   0.102460 0.182901 0.460782 -0.260082
C123  C     C_R   0.817393 0.100136 0.455497 -0.249495
C124  C     C_R   0.900305 0.816143 0.454641 -0.248774
C125  C     C_R   0.181254 0.090960 0.560706 -0.227975
C126  C     C_R   0.101279 0.818022 0.543285 -0.246315
C127  C     C_R   0.817785 0.901516 0.549742 -0.256677
C128  C     C_R   0.901225 0.183462 0.549192 -0.255536
C129  C     C_R   0.682031 0.404934 0.949738 -0.256535
C130  C     C_R   0.602202 0.684033 0.961842 -0.260890
C131  C     C_R   0.316426 0.599447 0.952872 -0.258168
C132  C     C_R   0.400738 0.316519 0.954408 -0.248915
C133  C     C_R   0.681849 0.590353 0.060674 -0.227574
C134  C     C_R   0.600216 0.316979 0.046718 -0.254614
C135  C     C_R   0.317797 0.401621 0.049484 -0.255950
C136  C     C_R   0.401177 0.680687 0.048759 -0.250268
C137  C     C_R   0.217050 0.955229 0.471887 0.005931
C138  C     C_R   0.049932 0.216012 0.476805 -0.024896
C139  C     C_R   0.783981 0.048881 0.474987 -0.013734
C140  C     C_R   0.952019 0.783717 0.474650 -0.004384
C141  C     C_R   0.215840 0.046746 0.531575 0.008179
C142  C     C_R   0.050109 0.784256 0.524970 -0.015413
C143  C     C_R   0.784081 0.951668 0.527937 -0.002375
C144  C     C_R   0.951435 0.216328 0.526384 0.005467
C145  C     C_R   0.715897 0.454610 0.971439 -0.002294
C146  C     C_R   0.549148 0.716454 0.977587 -0.029105
C147  C     C_R   0.283561 0.548256 0.973487 -0.004069
C148  C     C_R   0.452153 0.283850 0.974761 -0.003464
C149  C     C_R   0.716134 0.546100 0.031225 0.004861
C150  C     C_R   0.549262 0.283784 0.026851 -0.005041
C151  C     C_R   0.284080 0.451747 0.027653 -0.001445
C152  C     C_R   0.450827 0.715215 0.027442 -0.000831
Cu1   Cu    Cu3+1 0.500000 0.061820 0.500000 0.982078
Cu2   Cu    Cu3+1 0.938180 0.500000 0.500000 1.020541
Cu3   Cu    Cu3+1 0.500000 0.938180 0.500000 1.004032
Cu4   Cu    Cu3+1 0.061820 0.500000 0.500000 1.025650
Cu5   Cu    Cu3+1 1.000000 0.561820 0.000000 0.983095
Cu6   Cu    Cu3+1 0.438180 0.000000 0.000000 1.050090
Cu7   Cu    Cu3+1 0.000000 0.438180 0.000000 1.034545
Cu8   Cu    Cu3+1 0.561820 0.000000 0.000000 1.027127
Cu9   Cu    Cu3+1 0.000000 0.000000 0.555810 1.005953
Cu10  Cu    Cu3+1 0.000000 0.000000 0.444190 0.981293
Cu11  Cu    Cu3+1 0.500000 0.500000 0.055810 1.001591
Cu12  Cu    Cu3+1 0.500000 0.500000 0.944190 0.976016
H1    H     H_    0.135872 0.901532 0.449364 0.194077
H2    H     H_    0.106074 0.134165 0.467665 0.182824
H3    H     H_    0.866139 0.103696 0.461235 0.186692
H4    H     H_    0.896069 0.864990 0.459472 0.186275
H5    H     H_    0.132745 0.096080 0.554715 0.200789
H6    H     H_    0.104374 0.866877 0.537094 0.187011
H7    H     H_    0.866742 0.898471 0.545622 0.189031
H8    H     H_    0.898669 0.134199 0.548443 0.189547
H9    H     H_    0.633356 0.400865 0.955338 0.193158
H10   H     H_    0.606478 0.635362 0.968790 0.180800
H11   H     H_    0.365365 0.602860 0.957090 0.187332
H12   H     H_    0.396627 0.365363 0.959293 0.187627
H13   H     H_    0.633382 0.595952 0.054758 0.199746
H14   H     H_    0.603173 0.366041 0.042267 0.188590
H15   H     H_    0.366739 0.398567 0.045253 0.189705
H16   H     H_    0.398305 0.631802 0.043862 0.188519
O1    O     O_R   0.409810 0.052200 0.500010 -0.577126
O2    O     O_R   0.947800 0.409810 0.500010 -0.554634
O3    O     O_R   0.590190 0.947800 0.500010 -0.531109
O4    O     O_R   0.052200 0.590190 0.500010 -0.534751
O5    O     O_R   0.409810 0.947800 0.499990 -0.556768
O6    O     O_R   0.947800 0.590190 0.499990 -0.538038
O7    O     O_R   0.590190 0.052200 0.499990 -0.537772
O8    O     O_R   0.052200 0.409810 0.499990 -0.541933
O9    O     O_R   0.909810 0.552200 0.000010 -0.581123
O10   O     O_R   0.447800 0.909810 0.000010 -0.527463
O11   O     O_R   0.090190 0.447800 0.000010 -0.533342
O12   O     O_R   0.552200 0.090190 0.000010 -0.534978
O13   O     O_R   0.909810 0.447800 0.999990 -0.526759
O14   O     O_R   0.447800 0.090190 0.999990 -0.539447
O15   O     O_R   0.090190 0.552200 0.999990 -0.537843
O16   O     O_R   0.552200 0.909810 0.999990 -0.546502
O17   O     O_R   0.499980 0.052200 0.418610 -0.583793
O18   O     O_R   0.947800 0.499980 0.418610 -0.566814
O19   O     O_R   0.500020 0.947800 0.418610 -0.578649
O20   O     O_R   0.052200 0.500020 0.418610 -0.580848
O21   O     O_R   0.499980 0.947800 0.581390 -0.587678
O22   O     O_R   0.947800 0.500020 0.581390 -0.581534
O23   O     O_R   0.500020 0.052200 0.581390 -0.586981
O24   O     O_R   0.052200 0.499980 0.581390 -0.584027
O25   O     O_R   0.999980 0.552200 0.918610 -0.584820
O26   O     O_R   0.447800 0.999980 0.918610 -0.562872
O27   O     O_R   0.000020 0.447800 0.918610 -0.579307
O28   O     O_R   0.552200 0.000020 0.918610 -0.581748
O29   O     O_R   0.999980 0.447800 0.081390 -0.584858
O30   O     O_R   0.447800 0.000020 0.081390 -0.583171
O31   O     O_R   0.000020 0.552200 0.081390 -0.588865
O32   O     O_R   0.552200 0.999980 0.081390 -0.583892
O33   O     O_R   0.999980 0.090160 0.547150 -0.575365
O34   O     O_R   0.909840 0.999980 0.547150 -0.584428
O35   O     O_R   0.000020 0.909840 0.547150 -0.579873
O36   O     O_R   0.090160 0.000020 0.547150 -0.574192
O37   O     O_R   0.999980 0.909840 0.452850 -0.585363
O38   O     O_R   0.909840 0.000020 0.452850 -0.583131
O39   O     O_R   0.000020 0.090160 0.452850 -0.578746
O40   O     O_R   0.090160 0.999980 0.452850 -0.584247
O41   O     O_R   0.499980 0.590160 0.047150 -0.576346
O42   O     O_R   0.409840 0.499980 0.047150 -0.582609
O43   O     O_R   0.500020 0.409840 0.047150 -0.582567
O44   O     O_R   0.590160 0.500020 0.047150 -0.575903
O45   O     O_R   0.499980 0.409840 0.952850 -0.583457
O46   O     O_R   0.409840 0.500020 0.952850 -0.585351
O47   O     O_R   0.500020 0.590160 0.952850 -0.581008
O48   O     O_R   0.590160 0.499980 0.952850 -0.585448
O49   O     O_3   0.297334 0.156941 0.654865 -0.616235
C153  C     C_3   0.280213 0.218695 0.665490 0.055422
H17   H     H_    0.317225 0.238533 0.691600 0.135876
H18   H     H_    0.240099 0.220532 0.693391 0.201800
C154  C     C_3   0.273374 0.261242 0.613675 -0.386849
H19   H     H_    0.318812 0.268806 0.594388 0.210261
H20   H     H_    0.242312 0.241765 0.581645 0.248891
C155  C     C_3   0.247811 0.323444 0.630640 -0.845683
H21   H     H_    0.201447 0.318058 0.649105 0.276108
H22   H     H_    0.244416 0.353665 0.592972 0.261338
H23   H     H_    0.278337 0.345469 0.661830 0.242095
O50   O     O_3   0.800565 0.306474 0.595664 -0.613417
C156  C     C_3   0.757166 0.315357 0.552126 0.088026
H24   H     H_    0.713276 0.327792 0.572615 0.179296
H25   H     H_    0.748194 0.272712 0.528100 0.195721
C157  C     C_3   0.775895 0.367291 0.511591 -0.358014
H26   H     H_    0.796289 0.405852 0.535137 0.234470
H27   H     H_    0.810833 0.350030 0.481722 0.242422
C158  C     C_3   0.720990 0.391363 0.478485 -0.914794
H28   H     H_    0.695797 0.353094 0.458701 0.263381
H29   H     H_    0.736737 0.423540 0.445121 0.263167
H30   H     H_    0.689364 0.416111 0.506932 0.257778
O51   O     O_3   0.696504 0.798620 0.599128 -0.583265
C159  C     C_3   0.715910 0.775209 0.652195 0.047336
H31   H     H_    0.682483 0.788034 0.684871 0.125744
H32   H     H_    0.760475 0.793229 0.667223 0.158301
C160  C     C_3   0.716897 0.705214 0.649835 -0.258612
H33   H     H_    0.669510 0.688235 0.643519 0.206225
H34   H     H_    0.744945 0.689937 0.613636 0.267121
C161  C     C_3   0.742802 0.677115 0.703708 -0.919191
H35   H     H_    0.791659 0.689856 0.708274 0.278151
H36   H     H_    0.739612 0.626450 0.701759 0.260575
H37   H     H_    0.716679 0.693141 0.740857 0.249103
O52   O     O_3   0.202929 0.697796 0.597805 -0.595527
C162  C     C_3   0.223796 0.718566 0.650986 0.055920
H38   H     H_    0.210037 0.685526 0.684056 0.128935
H39   H     H_    0.204777 0.763474 0.664186 0.164579
C163  C     C_3   0.293722 0.720448 0.650651 -0.292505
H40   H     H_    0.311761 0.673583 0.643342 0.210200
H41   H     H_    0.309861 0.750634 0.616026 0.263163
C164  C     C_3   0.319219 0.744369 0.705884 -0.906089
H42   H     H_    0.305682 0.792938 0.711273 0.276372
H43   H     H_    0.369918 0.741779 0.705185 0.260459
H44   H     H_    0.302091 0.716547 0.741864 0.249077
O53   O     O_3   0.309567 0.806417 0.401901 -0.611747
C165  C     C_3   0.318888 0.762883 0.445579 0.089171
H45   H     H_    0.332932 0.719474 0.425249 0.181041
H46   H     H_    0.276074 0.752519 0.469201 0.196481
C166  C     C_3   0.369418 0.782704 0.486604 -0.358344
H47   H     H_    0.407719 0.804668 0.463492 0.235290
H48   H     H_    0.350545 0.816713 0.516450 0.242817
C167  C     C_3   0.394574 0.728086 0.519749 -0.919769
H49   H     H_    0.356806 0.701400 0.539144 0.264542
H50   H     H_    0.425568 0.744432 0.553414 0.258188
H51   H     H_    0.420821 0.697599 0.491419 0.258968
O54   O     O_3   0.804659 0.689902 0.401372 -0.579523
C168  C     C_3   0.776396 0.713718 0.352036 0.056975
H52   H     H_    0.786452 0.683378 0.316263 0.142297
H53   H     H_    0.793064 0.759474 0.338228 0.151089
C169  C     C_3   0.706903 0.713399 0.360513 -0.269676
H54   H     H_    0.691258 0.665512 0.367426 0.216627
H55   H     H_    0.694599 0.739773 0.398530 0.268100
C170  C     C_3   0.673158 0.740379 0.309949 -0.876137
H56   H     H_    0.690584 0.786903 0.299689 0.266066
H57   H     H_    0.623599 0.743696 0.319602 0.262736
H58   H     H_    0.678882 0.710153 0.273146 0.273695
O55   O     O_3   0.696776 0.200530 0.400192 -0.597928
C171  C     C_3   0.718253 0.222208 0.347181 0.055220
H59   H     H_    0.686071 0.208390 0.313871 0.129946
H60   H     H_    0.763455 0.203721 0.334175 0.164153
C172  C     C_3   0.719275 0.292238 0.347542 -0.293795
H61   H     H_    0.672109 0.309651 0.354441 0.211243
H62   H     H_    0.748530 0.308450 0.382429 0.263340
C173  C     C_3   0.743909 0.318572 0.292520 -0.897106
H63   H     H_    0.792670 0.305626 0.287519 0.274228
H64   H     H_    0.740712 0.369294 0.293204 0.265239
H65   H     H_    0.716990 0.301457 0.256325 0.249140
O56   O     O_3   0.203197 0.305147 0.408271 -0.592772
C174  C     C_3   0.228371 0.282897 0.357261 0.063018
H66   H     H_    0.215218 0.313660 0.322194 0.128119
H67   H     H_    0.212274 0.236636 0.344911 0.164986
C175  C     C_3   0.298141 0.284207 0.361569 -0.282546
H68   H     H_    0.313566 0.332296 0.366830 0.210418
H69   H     H_    0.313086 0.257554 0.399022 0.257678
C176  C     C_3   0.328379 0.257501 0.309486 -0.913149
H70   H     H_    0.316576 0.208277 0.305771 0.277452
H71   H     H_    0.378817 0.261566 0.313190 0.259553
H72   H     H_    0.313251 0.282620 0.271110 0.253358
O57   O     O_3   0.798091 0.654428 0.155491 -0.616437
C177  C     C_3   0.780973 0.716005 0.166971 0.055558
H73   H     H_    0.818113 0.735527 0.193121 0.134598
H74   H     H_    0.741062 0.717357 0.195138 0.201477
C178  C     C_3   0.773826 0.759356 0.115758 -0.386068
H75   H     H_    0.819187 0.767386 0.096466 0.210231
H76   H     H_    0.742729 0.740332 0.083532 0.249768
C179  C     C_3   0.748142 0.821187 0.133663 -0.846466
H77   H     H_    0.701857 0.815360 0.152186 0.275535
H78   H     H_    0.744535 0.852015 0.096427 0.261419
H79   H     H_    0.778708 0.842781 0.165077 0.242678
O58   O     O_3   0.298279 0.798714 0.102427 -0.580491
C180  C     C_3   0.280650 0.779302 0.157368 0.053324
H80   H     H_    0.295428 0.813602 0.188415 0.134072
H81   H     H_    0.301028 0.735001 0.171342 0.162286
C181  C     C_3   0.210859 0.776316 0.160775 -0.299261
H82   H     H_    0.191544 0.822342 0.151203 0.215377
H83   H     H_    0.192969 0.743874 0.129114 0.265824
C182  C     C_3   0.189621 0.756045 0.219184 -0.843295
H84   H     H_    0.207295 0.709514 0.229194 0.271434
H85   H     H_    0.138888 0.754833 0.220412 0.256836
H86   H     H_    0.205983 0.788628 0.251491 0.272878
O59   O     O_3   0.196197 0.298820 0.098721 -0.582532
C183  C     C_3   0.215855 0.274730 0.151438 0.047361
H87   H     H_    0.182638 0.287254 0.184370 0.126376
H88   H     H_    0.260491 0.292521 0.166500 0.157981
C184  C     C_3   0.216680 0.204767 0.148307 -0.257076
H89   H     H_    0.169194 0.187959 0.142238 0.207340
H90   H     H_    0.244294 0.189919 0.111674 0.267693
C185  C     C_3   0.243125 0.175890 0.201605 -0.916412
H91   H     H_    0.292067 0.188452 0.205826 0.278477
H92   H     H_    0.239794 0.125266 0.199113 0.260825
H93   H     H_    0.217462 0.191476 0.239182 0.249606
O60   O     O_3   0.703322 0.192807 0.091543 -0.581108
C186  C     C_3   0.730886 0.211982 0.142522 0.049217
H94   H     H_    0.719939 0.178855 0.176361 0.128823
H95   H     H_    0.714685 0.256866 0.158346 0.157392
C187  C     C_3   0.800402 0.211667 0.135036 -0.256225
H96   H     H_    0.816073 0.163859 0.128263 0.207125
H97   H     H_    0.813204 0.239138 0.097332 0.268176
C188  C     C_3   0.833044 0.237557 0.186210 -0.914444
H98   H     H_    0.821589 0.286787 0.190795 0.280145
H99   H     H_    0.883261 0.233312 0.180572 0.259599
H100  H     H_    0.819565 0.212066 0.224889 0.251564
O61   O     O_3   0.801207 0.303453 0.896271 -0.582938
C189  C     C_3   0.781200 0.284696 0.842107 0.051942
H101  H     H_    0.814639 0.299596 0.810057 0.133992
H102  H     H_    0.736579 0.304349 0.828513 0.161264
C190  C     C_3   0.779290 0.214725 0.840121 -0.294825
H103  H     H_    0.825750 0.196266 0.848875 0.216367
H104  H     H_    0.747879 0.196716 0.872957 0.266737
C191  C     C_3   0.758190 0.192318 0.782668 -0.841513
H105  H     H_    0.711242 0.209118 0.773524 0.270226
H106  H     H_    0.757790 0.141488 0.782457 0.258587
H107  H     H_    0.789765 0.208777 0.749213 0.271020
O62   O     O_3   0.304647 0.190691 0.900998 -0.578199
C192  C     C_3   0.276697 0.214468 0.851497 0.057005
H108  H     H_    0.286833 0.184000 0.815845 0.143574
H109  H     H_    0.293547 0.260142 0.837655 0.150676
C193  C     C_3   0.207162 0.214386 0.859675 -0.269130
H110  H     H_    0.191445 0.166667 0.867408 0.219055
H111  H     H_    0.194668 0.241622 0.897116 0.267996
C194  C     C_3   0.173718 0.240217 0.808450 -0.875280
H112  H     H_    0.191299 0.286450 0.797310 0.265073
H113  H     H_    0.124114 0.243870 0.817813 0.263447
H114  H     H_    0.179581 0.209060 0.772320 0.274602
O63   O     O_3   0.191817 0.701267 0.906959 -0.582908
C195  C     C_3   0.211685 0.729556 0.856156 0.048127
H115  H     H_    0.179321 0.718711 0.822100 0.130807
H116  H     H_    0.256834 0.713770 0.840525 0.156911
C196  C     C_3   0.210652 0.799081 0.863639 -0.257942
H117  H     H_    0.162674 0.814285 0.870231 0.208262
H118  H     H_    0.237447 0.811815 0.901435 0.269191
C197  C     C_3   0.236888 0.832427 0.812529 -0.902474
H119  H     H_    0.286183 0.821326 0.808027 0.277780
H120  H     H_    0.232229 0.882620 0.818170 0.264711
H121  H     H_    0.211965 0.819135 0.773799 0.251374
O64   O     O_3   0.700959 0.807382 0.908565 -0.594025
C198  C     C_3   0.727068 0.784414 0.858212 0.063037
H122  H     H_    0.713701 0.814068 0.822466 0.129030
H123  H     H_    0.711903 0.737635 0.846546 0.165070
C199  C     C_3   0.796756 0.787133 0.862990 -0.280977
H124  H     H_    0.811225 0.835616 0.867506 0.210924
H125  H     H_    0.811877 0.761563 0.901009 0.257405
C200  C     C_3   0.827925 0.759945 0.811580 -0.913742
H126  H     H_    0.816816 0.710503 0.808427 0.276875
H127  H     H_    0.878259 0.764759 0.815677 0.259885
H128  H     H_    0.812886 0.784226 0.772726 0.253472
O65   O     O_3   0.367577 0.922457 0.408888 -0.600383
C201  C     C_3   0.370775 0.907881 0.350749 0.121931
H129  H     H_    0.384261 0.949978 0.327584 0.139634
H130  H     H_    0.326372 0.894117 0.331768 0.142815
C202  C     C_3   0.419732 0.858286 0.340737 -0.267973
H131  H     H_    0.465646 0.875734 0.351147 0.227839
H132  H     H_    0.411885 0.817661 0.367690 0.248587
C203  C     C_3   0.421240 0.837420 0.280007 -0.961571
H133  H     H_    0.375975 0.819079 0.267478 0.260454
H134  H     H_    0.455895 0.800652 0.275150 0.265577
H135  H     H_    0.434412 0.876392 0.252533 0.259878
O66   O     O_3   0.090698 0.366942 0.415343 -0.585164
C204  C     C_3   0.101577 0.373182 0.356829 0.111466
H136  H     H_    0.058463 0.388832 0.336958 0.145413
H137  H     H_    0.113124 0.329710 0.335382 0.097429
C205  C     C_3   0.151192 0.422129 0.346760 -0.274597
H138  H     H_    0.137171 0.466182 0.365180 0.244196
H139  H     H_    0.194430 0.409028 0.367916 0.245768
C206  C     C_3   0.163849 0.433238 0.284564 -0.983989
H140  H     H_    0.180576 0.390828 0.264543 0.241353
H141  H     H_    0.199552 0.468988 0.279730 0.270267
H142  H     H_    0.121823 0.449428 0.263084 0.269857
O67   O     O_3   0.632599 0.089890 0.414959 -0.585794
C207  C     C_3   0.624262 0.100184 0.356556 0.120041
H143  H     H_    0.606518 0.057309 0.338396 0.142115
H144  H     H_    0.667114 0.109319 0.333043 0.097664
C208  C     C_3   0.576577 0.151474 0.347377 -0.277428
H145  H     H_    0.533333 0.139986 0.368911 0.242306
H146  H     H_    0.592222 0.194951 0.366078 0.244970
C209  C     C_3   0.562138 0.162641 0.285478 -0.982061
H147  H     H_    0.603477 0.178044 0.262626 0.244569
H148  H     H_    0.526798 0.198958 0.281517 0.266123
H149  H     H_    0.544170 0.120407 0.266106 0.272186
O68   O     O_3   0.919159 0.635298 0.409323 -0.575754
C210  C     C_3   0.923830 0.639729 0.349900 0.079626
H150  H     H_    0.971360 0.627740 0.337784 0.146646
H151  H     H_    0.915240 0.686557 0.332316 0.099630
C211  C     C_3   0.879783 0.594140 0.322505 -0.337420
H152  H     H_    0.893665 0.546571 0.331678 0.233306
H153  H     H_    0.833400 0.598323 0.340544 0.248859
C212  C     C_3   0.877050 0.603702 0.258954 -0.839609
H154  H     H_    0.860003 0.650329 0.249121 0.256924
H155  H     H_    0.845829 0.569570 0.239969 0.285267
H156  H     H_    0.923124 0.598716 0.240112 0.262025
O69   O     O_3   0.369536 0.094492 0.583276 -0.584887
C213  C     C_3   0.394423 0.154050 0.572235 0.146513
H157  H     H_    0.444695 0.148830 0.569678 0.185363
H158  H     H_    0.387888 0.184928 0.608325 0.153402
C214  C     C_3   0.373367 0.185274 0.516755 -0.409165
H159  H     H_    0.376668 0.153745 0.480707 0.270770
H160  H     H_    0.324937 0.199650 0.520030 0.227850
C215  C     C_3   0.412405 0.241536 0.503535 -0.925729
H161  H     H_    0.410954 0.274404 0.538856 0.250742
H162  H     H_    0.395019 0.264826 0.465114 0.264294
H163  H     H_    0.460593 0.227711 0.496021 0.253770
O70   O     O_3   0.094397 0.631975 0.582622 -0.582913
C216  C     C_3   0.103357 0.622439 0.641003 0.118773
H164  H     H_    0.060257 0.604097 0.658545 0.141714
H165  H     H_    0.111958 0.664827 0.665051 0.098249
C217  C     C_3   0.154618 0.574822 0.649962 -0.273874
H166  H     H_    0.143603 0.532001 0.627720 0.241815
H167  H     H_    0.198225 0.591399 0.631762 0.244212
C218  C     C_3   0.164816 0.559095 0.711772 -0.983154
H168  H     H_    0.179811 0.600082 0.735044 0.245495
H169  H     H_    0.201099 0.523711 0.715580 0.265978
H170  H     H_    0.122358 0.540619 0.730751 0.272204
O71   O     O_3   0.631567 0.908409 0.584459 -0.583606
C219  C     C_3   0.621524 0.897231 0.642498 0.118692
H171  H     H_    0.603016 0.939764 0.660660 0.139566
H172  H     H_    0.663677 0.887864 0.666981 0.096860
C220  C     C_3   0.574007 0.845576 0.649934 -0.275952
H173  H     H_    0.531511 0.856748 0.626971 0.242170
H174  H     H_    0.590822 0.802306 0.631612 0.243737
C221  C     C_3   0.557357 0.834062 0.711338 -0.984000
H175  H     H_    0.598001 0.819046 0.735536 0.246379
H176  H     H_    0.522392 0.797340 0.714055 0.265064
H177  H     H_    0.538044 0.876032 0.730229 0.270915
O72   O     O_3   0.914607 0.366936 0.587783 -0.599640
C222  C     C_3   0.900031 0.370586 0.645887 0.122986
H178  H     H_    0.942022 0.384810 0.668354 0.141678
H179  H     H_    0.886267 0.326318 0.665690 0.143355
C223  C     C_3   0.850289 0.419472 0.655147 -0.275857
H180  H     H_    0.865971 0.464616 0.639688 0.234019
H181  H     H_    0.808157 0.408364 0.631777 0.246625
C224  C     C_3   0.833529 0.425811 0.716789 -0.970945
H182  H     H_    0.815766 0.381671 0.733433 0.256994
H183  H     H_    0.797364 0.461129 0.721426 0.262147
H184  H     H_    0.874170 0.440505 0.740957 0.263489
O73   O     O_3   0.868297 0.411805 0.915031 -0.585746
C225  C     C_3   0.879414 0.400796 0.857354 0.114924
H185  H     H_    0.899517 0.442818 0.839348 0.140817
H186  H     H_    0.837595 0.394029 0.831988 0.098183
C226  C     C_3   0.925526 0.347581 0.851230 -0.269030
H187  H     H_    0.967246 0.356579 0.875937 0.244375
H188  H     H_    0.906678 0.304383 0.868502 0.247355
C227  C     C_3   0.944687 0.336953 0.790491 -0.972746
H189  H     H_    0.905015 0.322691 0.764929 0.252030
H190  H     H_    0.979430 0.299891 0.789077 0.270402
H191  H     H_    0.965105 0.378974 0.772167 0.269987
O74   O     O_3   0.586204 0.866711 0.913631 -0.585570
C228  C     C_3   0.598515 0.871856 0.855234 0.113132
H192  H     H_    0.555706 0.886645 0.834247 0.147252
H193  H     H_    0.610853 0.828005 0.834806 0.096436
C229  C     C_3   0.647826 0.921183 0.845035 -0.275817
H194  H     H_    0.633016 0.965529 0.862148 0.243877
H195  H     H_    0.690800 0.909326 0.867176 0.247588
C230  C     C_3   0.661560 0.931125 0.782893 -0.989606
H196  H     H_    0.678606 0.888396 0.763709 0.241583
H197  H     H_    0.697294 0.966839 0.777998 0.269233
H198  H     H_    0.619867 0.946897 0.760651 0.270230
O75   O     O_3   0.132213 0.587282 0.912857 -0.585326
C231  C     C_3   0.125994 0.599517 0.854395 0.109107
H199  H     H_    0.111380 0.556555 0.834048 0.147637
H200  H     H_    0.169260 0.612400 0.832895 0.093562
C232  C     C_3   0.076354 0.648735 0.844621 -0.276357
H201  H     H_    0.032169 0.633800 0.862189 0.242972
H202  H     H_    0.088072 0.691589 0.866661 0.243811
C233  C     C_3   0.066156 0.662837 0.782475 -0.988618
H203  H     H_    0.108758 0.679704 0.762599 0.241209
H204  H     H_    0.030586 0.698843 0.777881 0.267419
H205  H     H_    0.050166 0.621312 0.760503 0.272334
O76   O     O_3   0.418861 0.135557 0.909299 -0.576582
C234  C     C_3   0.424092 0.140087 0.849905 0.076643
H206  H     H_    0.471663 0.127868 0.838122 0.145991
H207  H     H_    0.415910 0.186998 0.832338 0.100790
C235  C     C_3   0.380046 0.094821 0.822058 -0.334941
H208  H     H_    0.393801 0.047164 0.831037 0.233185
H209  H     H_    0.333608 0.098976 0.839982 0.249645
C236  C     C_3   0.377577 0.104814 0.758517 -0.839294
H210  H     H_    0.360490 0.151478 0.748762 0.257144
H211  H     H_    0.346489 0.070759 0.739236 0.285028
H212  H     H_    0.423748 0.099943 0.739835 0.261895
O77   O     O_3   0.869909 0.592913 0.083407 -0.582303
C237  C     C_3   0.894649 0.652703 0.072859 0.148211
H213  H     H_    0.944894 0.647714 0.069953 0.186022
H214  H     H_    0.888382 0.683104 0.109326 0.152457
C238  C     C_3   0.873222 0.684677 0.017854 -0.411537
H215  H     H_    0.876109 0.653622 0.981429 0.270672
H216  H     H_    0.824884 0.699128 0.021663 0.228880
C239  C     C_3   0.912255 0.741022 0.004944 -0.920554
H217  H     H_    0.911151 0.773455 0.040614 0.250392
H218  H     H_    0.894586 0.764792 0.966877 0.264683
H219  H     H_    0.960354 0.727212 0.996951 0.255136
O78   O     O_3   0.591136 0.131347 0.085165 -0.582881
C240  C     C_3   0.602455 0.123831 0.143561 0.109718
H220  H     H_    0.559370 0.108426 0.163512 0.147127
H221  H     H_    0.614796 0.166685 0.165631 0.093606
C241  C     C_3   0.651834 0.074317 0.152763 -0.273257
H222  H     H_    0.637547 0.030521 0.134167 0.242975
H223  H     H_    0.694893 0.087275 0.131273 0.243092
C242  C     C_3   0.664967 0.062500 0.214820 -0.989307
H224  H     H_    0.681593 0.104686 0.235249 0.242008
H225  H     H_    0.700846 0.026764 0.219097 0.267038
H226  H     H_    0.623148 0.045987 0.236399 0.272013
O79   O     O_3   0.131863 0.409164 0.085182 -0.584542
C243  C     C_3   0.122690 0.398348 0.143447 0.112769
H227  H     H_    0.104899 0.441140 0.161778 0.139719
H228  H     H_    0.165144 0.388497 0.167391 0.097627
C244  C     C_3   0.074855 0.347167 0.151792 -0.273800
H229  H     H_    0.031808 0.358962 0.130031 0.243772
H230  H     H_    0.090690 0.303870 0.132796 0.244936
C245  C     C_3   0.059867 0.335432 0.213528 -0.983042
H231  H     H_    0.101060 0.320071 0.236720 0.244968
H232  H     H_    0.024750 0.298917 0.216927 0.266978
H233  H     H_    0.041369 0.377417 0.233037 0.270558
O80   O     O_3   0.403356 0.867734 0.080704 -0.581267
C246  C     C_3   0.394566 0.880123 0.138361 0.111446
H234  H     H_    0.437028 0.901003 0.154154 0.139328
H235  H     H_    0.388468 0.838868 0.165115 0.098847
C247  C     C_3   0.341576 0.926235 0.144593 -0.263130
H236  H     H_    0.350153 0.967282 0.118162 0.243355
H237  H     H_    0.298176 0.906429 0.129198 0.244710
C248  C     C_3   0.332411 0.946915 0.205016 -0.978260
H238  H     H_    0.318489 0.907736 0.231898 0.253263
H239  H     H_    0.295592 0.981907 0.206437 0.265749
H240  H     H_    0.374904 0.967574 0.221654 0.270588
Br1   Br    Br    0.168946 0.786733 0.400354 -0.534231
Br2   Br    Br    0.227298 0.163445 0.436250 -0.631472
Br3   Br    Br    0.839305 0.222540 0.422144 -0.619086
Br4   Br    Br    0.776786 0.835067 0.425191 -0.561801
Br5   Br    Br    0.145873 0.166545 0.648778 -0.559352
Br6   Br    Br    0.223341 0.840784 0.575686 -0.612153
Br7   Br    Br    0.840703 0.779112 0.582783 -0.556615
Br8   Br    Br    0.782707 0.165460 0.596983 -0.529612
Br9   Br    Br    0.658753 0.283685 0.915767 -0.551867
Br10  Br    Br    0.727537 0.666461 0.938741 -0.638445
Br11  Br    Br    0.336497 0.723764 0.924796 -0.555147
Br12  Br    Br    0.277476 0.336056 0.924380 -0.562028
Br13  Br    Br    0.646662 0.664428 0.149844 -0.564400
Br14  Br    Br    0.724160 0.337956 0.074001 -0.548523
Br15  Br    Br    0.340599 0.279063 0.082129 -0.557203
Br16  Br    Br    0.280519 0.655932 0.084644 -0.547748

loop_
_geom_bond_atom_site_label_1
_geom_bond_atom_site_label_2
_ccdc_geom_bond_type
C232  C233  S    
O67   C207  S    
C22   C150  A    
C188  H98   S    
C5    C37   S    
C130  C146  A    
C30   C45   S    
C170  H56   S    
C106  Br2   S    
C196  C197  S    
C117  C133  A    
C6    O16   A    
C50   O18   A    
Cu4   O20   S    
C130  H10   S    
C107  Br3   S    
C135  C151  A    
C5    O13   A    
O54   C168  S    
C16   C144  A    
C80   C96   A    
C20   C40   A    
C98   C114  A    
C235  C236  S    
O62   C192  S    
C62   C70   T    
C165  H45   S    
C4    O6    A    
C204  H137  S    
C124  H4    S    
C241  C242  S    
C179  H77   S    
C27   C143  A    
C219  C220  S    
C125  H5    S    
C129  C145  A    
C193  C194  S    
C74   O66   S    
Cu8   O16   S    
C31   C147  A    
C2    C34   S    
Cu9   O35   S    
Cu10  O37   S    
Cu5   O15   S    
C89   O53   S    
C114  C130  A    
C129  H9    S    
C108  C124  A    
C105  Br1   S    
C191  H105  S    
C136  C152  A    
C81   O73   S    
Cu9   Cu10  S    
C206  H142  S    
C173  H64   S    
Cu11  O41   S    
C175  H69   S    
C112  Br8   S    
C244  H229  S    
C84   C100  A    
C169  C170  S    
C91   C107  A    
C194  H112  S    
Cu5   O25   S    
C183  H87   S    
C192  C193  S    
C182  H85   S    
C1    O1    A    
C197  H120  S    
Cu1   O7    S    
C80   O72   S    
C3    O7    A    
C16   C80   A    
C214  C215  S    
C13   C33   A    
C247  H236  S    
C220  H174  S    
C41   O33   A    
C248  H240  S    
C186  H95   S    
O56   C174  S    
C179  H79   S    
C219  H171  S    
C153  H18   S    
C104  O58   S    
C87   C103  A    
C46   O42   A    
C243  H227  S    
C218  H169  S    
C63   C71   T    
C188  H100  S    
C164  H43   S    
C32   C47   S    
C201  H130  S    
C196  H117  S    
C220  H173  S    
O74   C228  S    
C131  H11   S    
C158  H30   S    
C162  H39   S    
C47   O43   A    
C205  H138  S    
C177  C178  S    
C44   O36   A    
C205  C206  S    
C231  H199  S    
C42   O38   A    
C195  H116  S    
C83   O75   S    
C1    O5    A    
Cu7   O29   S    
C157  C158  S    
C239  H217  S    
C74   C90   A    
C11   C35   A    
C18   C38   A    
C5    O9    A    
C167  H49   S    
C168  H53   S    
O65   C201  S    
O66   C204  S    
C99   C115  A    
C8    O12   A    
C217  C218  S    
C76   O68   S    
C18   C82   A    
C205  H139  S    
C212  H154  S    
C86   O78   S    
O64   C198  S    
C29   C149  A    
C182  H84   S    
C200  H127  S    
C222  C223  S    
C32   C150  A    
C240  H221  S    
C178  H75   S    
C7    C39   S    
C99   O63   S    
C8    C40   S    
C226  H188  S    
C202  H131  S    
C190  H103  S    
C191  H107  S    
C159  H31   S    
Cu1   O23   S    
C234  C235  S    
C213  H158  S    
C14   C142  A    
C186  H94   S    
C44   O40   A    
C183  C184  S    
C73   O65   S    
C88   O80   S    
C200  H126  S    
C186  C187  S    
C208  H146  S    
C49   O17   A    
C216  H164  S    
C157  H26   S    
Cu2   O6    S    
C173  H63   S    
C203  H133  S    
C170  H57   S    
C78   C94   A    
C235  H208  S    
C210  H151  S    
C75   O67   S    
Cu2   O18   S    
Cu3   O3    S    
C176  H71   S    
C213  C214  S    
C189  H101  S    
C127  H7    S    
C123  C139  A    
C30   C152  A    
C49   C57   S    
C227  H189  S    
C126  C142  A    
C223  C224  S    
C156  H24   S    
C45   O47   A    
C121  C137  A    
C177  H74   S    
C52   C60   S    
C59   C67   T    
C53   C61   S    
C92   C108  A    
C243  C244  S    
C15   C79   A    
C208  H145  S    
C125  C141  A    
C215  H161  S    
C31   C46   S    
C55   C63   S    
C56   C64   S    
C131  C147  A    
Cu12  O45   S    
C21   C149  A    
C154  H19   S    
C118  C134  A    
C75   C91   A    
C160  H34   S    
C241  H223  S    
C230  H198  S    
C166  H47   S    
C180  H81   S    
C223  H180  S    
C231  C232  S    
C19   C83   A    
C88   C104  A    
O49   C153  S    
C193  H111  S    
O53   C165  S    
C2    O8    A    
C225  H186  S    
C228  H193  S    
C95   C111  A    
C239  H219  S    
C181  H82   S    
C102  O60   S    
C10   C34   A    
Cu3   O5    S    
C190  C191  S    
C217  H166  S    
C194  H114  S    
C48   O44   A    
C248  H239  S    
C27   C139  A    
C244  H230  S    
C169  H55   S    
C212  H156  S    
C25   C137  A    
C238  H215  S    
C126  H6    S    
Cu8   O28   S    
C23   C151  A    
C87   O79   S    
C185  H92   S    
C222  H178  S    
C116  C132  A    
C3    C35   S    
C167  H50   S    
C178  C179  S    
C106  C122  A    
C202  C203  S    
C224  H183  S    
C163  H41   S    
C110  C126  A    
C159  C160  S    
C15   C143  A    
Cu5   O31   S    
C54   O28   A    
C20   C84   A    
C217  H167  S    
C199  H125  S    
C164  H44   S    
C230  H196  S    
C86   C102  A    
C200  H128  S    
Cu3   O19   S    
C207  H143  S    
C185  H93   S    
C49   O19   A    
C216  C217  S    
Cu7   O13   S    
O71   C219  S    
C77   O69   S    
C245  H231  S    
C246  C247  S    
C247  C248  S    
C203  H135  S    
C181  C182  S    
O58   C180  S    
C196  H118  S    
C163  C164  S    
C128  H8    S    
O52   C162  S    
C84   O76   S    
C65   C72   S    
C121  H1    S    
C227  H191  S    
C174  C175  S    
C45   O41   A    
C79   O71   S    
C161  H35   S    
C92   O54   S    
C11   C75   A    
C27   C42   S    
C20   C148  A    
C215  H163  S    
C225  C226  S    
C243  H228  S    
O50   C156  S    
C157  H27   S    
Cu12  O47   S    
C165  H46   S    
C221  H175  S    
C242  H226  S    
C233  H203  S    
C51   C59   S    
Cu5   Cu7   S    
O69   C213  S    
C166  C167  S    
C89   C105  A    
C211  H152  S    
Cu3   O21   S    
C3    O3    A    
C189  C190  S    
O75   C231  S    
C93   C109  A    
C229  H194  S    
C245  H233  S    
Cu6   Cu8   S    
Cu9   O34   S    
Cu10  O38   S    
C165  C166  S    
C82   C98   A    
C119  Br15  S    
C100  C116  A    
C167  H51   S    
C107  C123  A    
C191  H106  S    
C209  H147  S    
Cu4   O4    S    
C162  H38   S    
C206  H141  S    
Cu11  O44   S    
Cu6   O10   S    
C237  H213  S    
Cu6   O14   S    
C183  H88   S    
C238  C239  S    
C192  H109  S    
C245  H232  S    
C29   C145  A    
C198  C199  S    
C61   C69   T    
C10   C138  A    
C97   O61   S    
C232  H202  S    
C132  H12   S    
C103  O59   S    
C214  H160  S    
C11   C139  A    
O68   C210  S    
C247  H237  S    
C24   C152  A    
Cu2   O22   S    
C225  H185  S    
C9    C137  A    
C68   C69   S    
C54   O26   A    
C12   C140  A    
C8    O14   A    
C156  H25   S    
C13   C141  A    
Cu1   Cu3   S    
Cu2   Cu4   S    
C207  C208  S    
C171  H60   S    
C160  C161  S    
C246  H234  S    
C188  H99   S    
C83   C99   A    
C236  H210  S    
C9    C33   A    
C96   O50   S    
C7    O11   A    
C214  H159  S    
C41   O39   A    
C51   O23   A    
C101  O57   S    
O60   C186  S    
C158  H29   S    
C21   C85   A    
C174  H66   S    
Cu6   O26   S    
Cu7   O11   S    
Cu8   O12   S    
O51   C159  S    
C95   O51   S    
O55   C171  S    
C54   C62   S    
O80   C246  S    
C94   C110  A    
C119  C135  A    
C120  C136  A    
C50   C58   S    
C202  H132  S    
C17   C145  A    
C210  H150  S    
C56   O30   A    
C240  H220  S    
O59   C183  S    
C47   O45   A    
C110  Br6   S    
C109  Br5   S    
C134  H14   S    
C223  H181  S    
C24   C88   A    
C122  C138  A    
C98   O64   S    
C229  C230  S    
C231  H200  S    
C222  H179  S    
Cu9   O36   S    
Cu1   O1    S    
C12   C76   A    
C244  C245  S    
C7    O15   A    
C159  H32   S    
Cu11  O42   S    
C111  Br7   S    
C234  H207  S    
C175  H68   S    
C124  C140  A    
C25   C141  A    
C57   C65   T    
C26   C138  A    
C182  H86   S    
C198  H122  S    
C155  H23   S    
C179  H78   S    
C197  H119  S    
C32   C148  A    
C240  C241  S    
C28   C43   S    
C101  C117  A    
C156  C157  S    
C203  H134  S    
C73   C89   A    
C220  C221  S    
C14   C36   A    
C133  H13   S    
C176  H70   S    
C189  H102  S    
C184  H90   S    
C48   O48   A    
C91   O55   S    
C227  H190  S    
C17   C81   A    
C22   C86   A    
C153  H17   S    
C19   C147  A    
C112  C128  A    
C90   C106  A    
C135  H15   S    
C218  H170  S    
C21   C37   A    
O70   C216  S    
C60   C68   T    
C215  H162  S    
O72   C222  S    
C236  H212  S    
C154  H20   S    
Cu10  O40   S    
C201  H129  S    
Cu12  O46   S    
C52   O24   A    
C51   O21   A    
C239  H218  S    
C104  C120  A    
C175  C176  S    
C134  C150  A    
Cu6   O30   S    
C162  C163  S    
C184  H89   S    
C242  H225  S    
C122  H2    S    
C230  H197  S    
C198  H123  S    
C180  H80   S    
Cu11  Cu12  S    
C28   C140  A    
C242  H224  S    
C43   O35   A    
C195  H115  S    
C197  H121  S    
C204  H136  S    
C1    C33   S    
C232  H201  S    
C115  C131  A    
C155  H21   S    
C79   C95   A    
C96   C112  A    
C173  H65   S    
C228  H192  S    
C168  H52   S    
C113  C129  A    
O78   C240  S    
C219  H172  S    
C56   O32   A    
C168  C169  S    
C190  H104  S    
C194  H113  S    
Cu1   O17   S    
C234  H206  S    
C155  H22   S    
C164  H42   S    
C153  C154  S    
C226  H187  S    
C2    O2    A    
Cu4   O8    S    
C212  H155  S    
O79   C243  S    
C58   C66   T    
C66   C71   S    
C211  H153  S    
C178  H76   S    
C201  C202  S    
C113  Br9   S    
C120  Br16  S    
C24   C38   A    
C115  Br11  S    
C12   C36   A    
C224  H182  S    
C52   O22   A    
C102  C118  A    
C82   O74   S    
C16   C34   A    
C14   C78   A    
C213  H157  S    
C23   C87   A    
C199  C200  S    
C43   O37   A    
C9    C73   A    
C26   C144  A    
C25   C44   S    
C15   C35   A    
C172  C173  S    
C235  H209  S    
C207  H144  S    
C30   C146  A    
C208  C209  S    
C216  H165  S    
Cu8   O32   S    
C13   C77   A    
C246  H235  S    
C29   C48   S    
C132  C148  A    
C114  Br10  S    
C170  H58   S    
C133  C149  A    
C4    C36   S    
C210  C211  S    
C206  H140  S    
C172  H61   S    
C50   O20   A    
C176  H72   S    
C127  C143  A    
C171  C172  S    
C221  H177  S    
O77   C237  S    
C174  H67   S    
C161  H36   S    
C177  H73   S    
C42   O34   A    
C128  C144  A    
C154  C155  S    
C53   O25   A    
C218  H168  S    
C100  O62   S    
C118  Br14  S    
C22   C40   A    
C6    O10   A    
C117  Br13  S    
C31   C151  A    
C46   O46   A    
C105  C121  A    
Cu7   O27   S    
Cu12  O48   S    
C17   C37   A    
C4    O4    A    
C221  H176  S    
C172  H62   S    
C233  H204  S    
C76   C92   A    
C109  C125  A    
C241  H222  S    
C187  H96   S    
C187  H97   S    
C166  H48   S    
C111  C127  A    
C180  C181  S    
C161  H37   S    
C28   C142  A    
C97   C113  A    
C160  H33   S    
Cu4   O24   S    
C195  C196  S    
C204  C205  S    
C85   C101  A    
C193  H110  S    
C77   C93   A    
C229  H195  S    
C93   O49   S    
Cu9   O33   S    
Cu10  O39   S    
C171  H59   S    
C228  C229  S    
C94   O52   S    
O76   C234  S    
C103  C119  A    
C78   O70   S    
C18   C146  A    
C233  H205  S    
C108  Br4   S    
C209  H148  S    
C158  H28   S    
C90   O56   S    
Cu11  O43   S    
C187  C188  S    
O61   C189  S    
C136  H16   S    
C237  H214  S    
C55   O29   A    
C226  C227  S    
O73   C225  S    
C169  H54   S    
C211  C212  S    
C236  H211  S    
C123  H3    S    
C238  H216  S    
C85   O77   S    
C192  H108  S    
C10   C74   A    
C185  H91   S    
C116  Br12  S    
C81   C97   A    
C23   C39   A    
Cu2   O2    S    
C53   O27   A    
C64   C72   T    
O57   C177  S    
C224  H184  S    
Cu5   O9    S    
C209  H149  S    
C163  H40   S    
C55   O31   A    
C181  H83   S    
C237  C238  S    
C19   C39   A    
C248  H238  S    
C184  C185  S    
C199  H124  S    
C67   C70   S    
C6    C38   S    
O63   C195  S    
C26   C41   S    
