data_mof_unit_62101.cif
_audit_creation_date              2012-12-10T18:24:15-0500
_audit_creation_method            fapswitch 2.2
_symmetry_space_group_name_H-M    P1
_symmetry_Int_Tables_number       1
_space_group_crystal_system       triclinic
_cell_length_a                    16.089332
_cell_length_b                    16.101197
_cell_length_c                    16.089169
_cell_angle_alpha                 95.884054
_cell_angle_beta                  84.42507
_cell_angle_gamma                 90.154521
_cell_volume                      4126.33840526

loop_
_atom_site_label
_atom_site_type_symbol
_atom_type_description
_atom_site_fract_x
_atom_site_fract_y
_atom_site_fract_z
_atom_type_partial_charge
C1    C     C_R   0.510733 0.724282 0.510767 0.506949
C2    C     C_1   0.484734 0.186406 0.484901 0.002684
C3    C     C_1   0.515012 0.483410 0.184661 0.018902
C4    C     C_R   0.489283 0.275713 0.489244 0.509193
C5    C     C_2   0.523075 0.474473 0.018856 -0.118430
C6    C     C_2   0.476924 0.525455 0.981129 -0.118718
C7    C     C_1   0.481356 0.520554 0.890848 -0.040309
C8    C     C_1   0.518644 0.479384 0.109138 -0.040000
C9    C     C_1   0.484983 0.516547 0.815326 0.018282
C10   C     C_R   0.510718 0.488174 0.274539 0.507833
C11   C     C_R   0.489265 0.511822 0.725450 0.507085
C12   C     C_1   0.111127 0.520576 0.520503 -0.039761
C13   C     C_R   0.724317 0.488153 0.488181 0.506605
C14   C     C_R   0.275680 0.511849 0.511810 0.508337
C15   C     C_1   0.813738 0.483384 0.483408 0.018219
C16   C     C_2   0.978682 0.474426 0.474455 -0.118392
C17   C     C_2   0.021319 0.525493 0.525405 -0.118813
C18   C     C_1   0.888873 0.479348 0.479372 -0.040422
C19   C     C_1   0.186261 0.516565 0.516507 0.018960
C20   C     C_1   0.514765 0.813596 0.514756 0.026445
C21   C     C_2   0.521558 0.978502 0.521215 -0.061339
C22   C     C_2   0.474753 0.021404 0.475487 0.100829
C23   C     C_1   0.480439 0.111362 0.480845 -0.047542
C24   C     C_1   0.517975 0.888647 0.517844 0.002473
H1    H     H_    0.988939 0.571494 0.571302 0.138922
H2    H     H_    0.011059 0.428423 0.428557 0.140101
H3    H     H_    0.563602 0.011129 0.562138 0.100125
H4    H     H_    0.435360 0.571379 0.017931 0.139538
H5    H     H_    0.564640 0.428550 0.982054 0.139884
H6    H     H_    0.435814 0.994478 0.360374 0.236929
H7    H     H_    0.358827 0.002459 0.439834 0.236990
N1    N     N_3   0.419031 0.978982 0.421256 -0.605421
O1    O     O_3   0.500000 0.500000 0.500000 -0.439436
O2    O     O_R   0.689040 0.536050 0.444000 -0.534500
O3    O     O_R   0.315570 0.560650 0.560630 -0.533275
O4    O     O_R   0.679800 0.444450 0.536560 -0.534980
O5    O     O_R   0.315590 0.458850 0.458810 -0.535451
O6    O     O_R   0.458170 0.444480 0.314880 -0.534848
O7    O     O_R   0.445130 0.560630 0.690220 -0.534715
O8    O     O_R   0.559450 0.679320 0.457680 -0.534024
O9    O     O_R   0.537250 0.315570 0.537220 -0.535144
O10   O     O_R   0.458120 0.689530 0.559970 -0.533933
O11   O     O_R   0.445170 0.315580 0.445130 -0.534477
O12   O     O_R   0.559480 0.536070 0.314410 -0.533079
O13   O     O_R   0.537220 0.458810 0.680490 -0.535570
Zn1   Zn    Zn3+2 0.430930 0.430930 0.430910 0.953618
Zn2   Zn    Zn3+2 0.575680 0.561790 0.430230 0.956015
Zn3   Zn    Zn3+2 0.562480 0.430910 0.562480 0.951777
Zn4   Zn    Zn3+2 0.430910 0.576380 0.576380 0.955887

loop_
_geom_bond_atom_site_label_1
_geom_bond_atom_site_label_2
_ccdc_geom_bond_type
C12   C17   S    
O3    Zn4   S    
O8    Zn2   S    
C2    C4    S    
C6    C7    S    
C4    O11   A    
C15   C18   T    
H7    N1    S    
O12   Zn2   S    
C10   O6    A    
C17   H1    S    
C21   H3    S    
C13   O2    A    
C3    C10   S    
C21   C22   D    
C14   O5    A    
C11   O7    A    
O1    Zn1   S    
C9    C11   S    
C22   N1    S    
C12   C19   T    
O7    Zn4   S    
O9    Zn3   S    
O4    Zn3   S    
C5    H5    S    
C13   C15   S    
C16   H2    S    
C5    C6    D    
O1    Zn2   S    
O11   Zn1   S    
O6    Zn1   S    
C5    C8    S    
C11   O13   A    
C4    O9    A    
O10   Zn4   S    
O1    Zn4   S    
H6    N1    S    
C1    O10   A    
C2    C23   T    
C13   O4    A    
C16   C18   S    
C3    C8    T    
C21   C24   S    
C14   O3    A    
C7    C9    T    
O1    Zn3   S    
C22   C23   S    
C1    C20   S    
O2    Zn2   S    
O13   Zn3   S    
C1    O8    A    
O5    Zn1   S    
C10   O12   A    
C14   C19   S    
C6    H4    S    
C20   C24   T    
C16   C17   D    
