data_mof_unit_68587.cif
_audit_creation_date              2012-12-10T16:51:32-0500
_audit_creation_method            fapswitch 2.2
_symmetry_space_group_name_H-M    P1
_symmetry_Int_Tables_number       1
_space_group_crystal_system       triclinic
_cell_length_a                    8.022593
_cell_length_b                    8.55139
_cell_length_c                    13.004916
_cell_angle_alpha                 98.006006
_cell_angle_beta                  104.641009
_cell_angle_gamma                 92.660523
_cell_volume                      851.701568293

loop_
_atom_site_label
_atom_site_type_symbol
_atom_type_description
_atom_site_fract_x
_atom_site_fract_y
_atom_site_fract_z
_atom_type_partial_charge
C1    C     C_R   0.044101 0.794232 0.501708 0.892933
C2    C     C_R   0.191600 0.534741 0.820480 -0.105403
C3    C     C_2   0.070342 0.960277 0.514429 -0.400518
C4    C     C_R   0.112218 0.504971 0.706161 0.820306
C5    C     C_2   0.933059 0.042959 0.501387 -0.377845
C6    C     C_R   0.957440 0.206766 0.502626 0.937137
C7    C     C_R   0.889843 0.494507 0.293557 0.874747
C8    C     C_R   0.889234 0.470133 0.005549 -0.294219
C9    C     C_R   0.829453 0.502116 0.179412 -0.344239
C10   C     C_R   0.124090 0.653638 0.879572 -0.264527
C11   C     C_R   0.216120 0.721370 0.981807 -0.138411
C12   C     C_R   0.437339 0.540595 0.974125 0.127184
C13   C     C_R   0.369685 0.662041 0.030040 -0.073138
C14   C     C_3   0.116179 0.748830 0.216792 0.158770
C15   C     C_3   0.301169 0.830921 0.255530 -0.335177
C16   C     C_3   0.331425 0.958032 0.354021 -0.959126
C17   C     C_R   0.574589 0.683617 0.617591 0.261763
C18   C     C_R   0.736904 0.772035 0.672454 -0.119282
C19   C     C_R   0.763101 0.904102 0.753477 -0.234542
C20   C     C_R   0.627561 0.957860 0.790553 -0.082961
C21   C     C_R   0.466994 0.880186 0.744894 -0.222763
C22   C     C_R   0.443214 0.749989 0.662351 -0.128197
C23   C     C_R   0.358065 0.483891 0.865662 0.077868
C24   C     C_3   0.527626 0.271506 0.182109 0.205338
C25   C     C_3   0.422658 0.171534 0.075902 -0.431704
C26   C     C_3   0.231567 0.199987 0.051873 -0.793745
C27   C     C_R   0.599800 0.495749 0.020697 -0.043858
C28   C     C_R   0.710764 0.452300 0.956694 0.015778
C29   C     C_R   0.636905 0.392131 0.848294 -0.199592
C30   C     C_R   0.456869 0.390504 0.806829 -0.200733
C31   C     C_R   0.651785 0.482762 0.128837 0.366489
C32   C     C_R   0.947344 0.525256 0.117044 0.435190
H1    H     H_    0.801205 0.989947 0.485121 0.189021
H2    H     H_    0.063176 0.749830 0.287347 0.157829
H3    H     H_    0.033939 0.821085 0.162339 0.073179
H4    H     H_    0.396453 0.741691 0.274062 0.270580
H5    H     H_    0.326855 0.893592 0.191805 0.176966
H6    H     H_    0.220388 0.032232 0.347694 0.274102
H7    H     H_    0.449637 0.035933 0.360786 0.239013
H8    H     H_    0.355659 0.901686 0.427304 0.291861
H9    H     H_    0.856517 0.748557 0.661785 0.207489
H10   H     H_    0.891556 0.963036 0.789199 0.128390
H11   H     H_    0.646957 0.057536 0.854697 0.133830
H12   H     H_    0.464156 0.369555 0.416976 0.178208
H13   H     H_    0.358421 0.921184 0.773718 0.135033
H14   H     H_    0.316471 0.717568 0.644072 0.210324
H15   H     H_    0.468561 0.245468 0.246874 0.143132
H16   H     H_    0.660258 0.230829 0.203685 0.050971
H17   H     H_    0.474479 0.196324 0.007915 0.217463
H18   H     H_    0.436202 0.044278 0.081626 0.167084
H19   H     H_    0.175461 0.166456 0.116378 0.246266
H20   H     H_    0.160603 0.127625 0.974030 0.216444
H21   H     H_    0.216098 0.326636 0.046210 0.307542
H22   H     H_    0.715478 0.340969 0.797852 0.165197
H23   H     H_    0.979392 0.447768 0.957663 0.183694
H24   H     H_    0.004328 0.701534 0.844608 0.170706
H25   H     H_    0.447298 0.719371 0.107160 0.122699
H26   H     H_    0.168268 0.821835 0.021727 0.144133
H27   H     H_    0.402146 0.323953 0.727600 0.187110
H28   H     H_    0.201635 0.015264 0.535188 0.187139
N1    N     N_2   0.434800 0.456690 0.470850 -0.156192
N2    N     N_2   0.565200 0.543310 0.529150 -0.118922
O1    O     O_R   0.893060 0.738880 0.507150 -0.640189
O2    O     O_3   0.528352 0.437416 0.179403 -0.585403
O3    O     O_R   0.172250 0.711130 0.488470 -0.649241
O4    O     O_R   0.944700 0.520730 0.667600 -0.650673
O5    O     O_R   0.223890 0.492980 0.648920 -0.655849
O6    O     O_R   0.827750 0.288870 0.511530 -0.631830
O7    O     O_R   0.106940 0.261120 0.492850 -0.618786
O8    O     O_R   0.776110 0.507020 0.351080 -0.584578
O9    O     O_R   0.055300 0.479270 0.332400 -0.571661
O10   O     O_3   0.116629 0.591100 0.162992 -0.592279
Zn1   Zn    Zn3+2 0.813580 0.518530 0.512470 0.922355
Zn2   Zn    Zn3+2 0.186420 0.481470 0.487530 0.934321

loop_
_geom_bond_atom_site_label_1
_geom_bond_atom_site_label_2
_ccdc_geom_bond_type
C14   H2    S    
C4    O5    A    
C2    C4    S    
C24   C25   S    
C26   H21   S    
N2    Zn1   S    
C29   C30   A    
C26   H20   S    
H12   N1    S    
O9    Zn2   S    
C11   H26   S    
C10   H24   S    
C6    O7    A    
C1    O3    A    
C19   C20   A    
C14   C15   S    
C19   H10   S    
O4    Zn1   S    
C30   H27   S    
C20   C21   A    
O8    Zn1   S    
C6    O6    A    
C17   C18   A    
C25   C26   S    
O7    Zn2   S    
C32   O10   S    
O5    Zn2   S    
C26   H19   S    
C3    H28   S    
C7    O8    A    
C4    O4    A    
C11   C13   A    
C12   C23   A    
C5    C6    S    
C8    C32   A    
C14   O10   S    
C16   H8    S    
C8    C28   A    
C1    O1    A    
C8    H23   S    
C28   C29   A    
C22   H14   S    
C21   H13   S    
C7    O9    A    
N1    N2    D    
C17   N2    S    
C25   H17   S    
C13   H25   S    
C29   H22   S    
C9    C31   A    
C12   C27   A    
C27   C31   A    
C15   C16   S    
C24   H16   S    
C23   C30   A    
C15   H4    S    
C27   C28   A    
C20   H11   S    
C12   C13   A    
C24   O2    S    
C18   C19   A    
C10   C11   A    
C18   H9    S    
C2    C23   A    
C7    C9    S    
C25   H18   S    
C15   H5    S    
C16   H7    S    
C9    C32   A    
C3    C5    D    
O6    Zn1   S    
C21   C22   A    
C24   H15   S    
O1    Zn1   S    
C31   O2    S    
C14   H3    S    
C2    C10   A    
O3    Zn2   S    
C17   C22   A    
N1    Zn2   S    
C16   H6    S    
C1    C3    S    
C5    H1    S    
