data_mof_unit_28900.cif
_audit_creation_date              2012-12-10T16:48:38-0500
_audit_creation_method            fapswitch 2.2
_symmetry_space_group_name_H-M    P1
_symmetry_Int_Tables_number       1
_space_group_crystal_system       triclinic
_cell_length_a                    7.767427
_cell_length_b                    8.584441
_cell_length_c                    10.480103
_cell_angle_alpha                 88.672678
_cell_angle_beta                  97.18144
_cell_angle_gamma                 93.582552
_cell_volume                      691.882991486

loop_
_atom_site_label
_atom_site_type_symbol
_atom_type_description
_atom_site_fract_x
_atom_site_fract_y
_atom_site_fract_z
_atom_type_partial_charge
C1    C     C_R   0.544817 0.794958 0.496563 0.981138
C2    C     C_2   0.431431 0.041676 0.504998 -0.386414
C3    C     C_3   0.620263 0.256514 0.144658 -0.342888
C4    C     C_3   0.678661 0.125039 0.066765 -0.908427
C5    C     C_3   0.295649 0.287724 0.856464 -0.332020
C6    C     C_3   0.191016 0.172567 0.935102 -0.911278
C7    C     C_R   0.455090 0.205048 0.503127 0.935333
C8    C     C_R   0.566697 0.481572 0.737221 0.925000
C9    C     C_R   0.428924 0.494375 0.262878 0.925942
C10   C     C_2   0.590472 0.439653 0.873346 -0.451078
C11   C     C_2   0.390967 0.458656 0.126906 -0.456294
C12   C     C_2   0.463461 0.359243 0.930156 0.197622
C13   C     C_2   0.484463 0.357202 0.070500 0.203946
C14   C     C_2   0.568321 0.958393 0.494157 -0.390392
H1    H     H_    0.289362 0.520658 0.069931 0.145176
H2    H     H_    0.076650 0.121836 0.872040 0.251360
H3    H     H_    0.209301 0.382048 0.821309 0.221528
H4    H     H_    0.328582 0.223565 0.772763 0.212547
H5    H     H_    0.697497 0.009670 0.483514 0.179855
H6    H     H_    0.302220 0.990443 0.515550 0.181657
H7    H     H_    0.985740 0.382652 0.406456 0.186814
H8    H     H_    0.014243 0.617238 0.593613 0.189895
H9    H     H_    0.711117 0.480228 0.930105 0.145380
H10   H     H_    0.566126 0.046691 0.028490 0.265017
H11   H     H_    0.746862 0.173124 0.986175 0.266149
H12   H     H_    0.770756 0.054679 0.130090 0.251346
H13   H     H_    0.738051 0.331177 0.179105 0.215950
H14   H     H_    0.565366 0.201386 0.228874 0.212920
H15   H     H_    0.270876 0.075800 0.974340 0.264479
H16   H     H_    0.142420 0.232481 0.015073 0.264574
N1    N     N_2   0.940600 0.458860 0.467170 -0.174933
N2    N     N_2   0.059400 0.541140 0.532830 -0.175328
O1    O     O_R   0.391630 0.738350 0.508060 -0.605618
O2    O     O_R   0.608370 0.261650 0.491940 -0.617583
O3    O     O_R   0.674540 0.711990 0.487010 -0.623494
O4    O     O_R   0.325460 0.288010 0.512990 -0.637635
O5    O     O_R   0.411370 0.508250 0.688780 -0.620380
O6    O     O_R   0.588630 0.491750 0.311220 -0.617331
O7    O     O_R   0.694270 0.481880 0.667740 -0.609075
O8    O     O_R   0.305730 0.518120 0.332260 -0.607918
Zn1   Zn    Zn3+2 0.311100 0.517600 0.514050 0.922106
Zn2   Zn    Zn3+2 0.688900 0.482400 0.485950 0.922348

loop_
_geom_bond_atom_site_label_1
_geom_bond_atom_site_label_2
_ccdc_geom_bond_type
C4    H12   S    
N2    Zn1   S    
C1    C14   S    
N1    Zn2   S    
C10   H9    S    
C11   C13   D    
C7    O4    A    
H8    N2    S    
N1    N2    D    
O2    Zn2   S    
O1    Zn1   S    
H7    N1    S    
C3    H13   S    
C4    H11   S    
C1    O1    A    
C9    C11   S    
O4    Zn1   S    
C10   C12   D    
C4    H10   S    
C9    O6    A    
C8    O7    A    
O6    Zn2   S    
O7    Zn2   S    
C11   H1    S    
O5    Zn1   S    
C5    C6    S    
C2    C14   D    
C7    O2    A    
C5    H3    S    
C8    O5    A    
C6    H2    S    
C3    C4    S    
C6    H15   S    
C12   C13   S    
C1    O3    A    
C5    C12   S    
C8    C10   S    
C3    H14   S    
O3    Zn2   S    
O8    Zn1   S    
C5    H4    S    
C6    H16   S    
C2    H6    S    
C14   H5    S    
C9    O8    A    
C2    C7    S    
C3    C13   S    
