data_mof_unit_36273.cif
_audit_creation_date              2012-12-10T19:04:12-0500
_audit_creation_method            fapswitch 2.2
_symmetry_space_group_name_H-M    P1
_symmetry_Int_Tables_number       1
_space_group_crystal_system       triclinic
_cell_length_a                    10.650057
_cell_length_b                    10.809633
_cell_length_c                    9.548577
_cell_angle_alpha                 90.113055
_cell_angle_beta                  89.858502
_cell_angle_gamma                 90.343402
_cell_volume                      1099.23760832

loop_
_atom_site_label
_atom_site_type_symbol
_atom_type_description
_atom_site_fract_x
_atom_site_fract_y
_atom_site_fract_z
_atom_type_partial_charge
C1    C     C_R   0.497325 0.262323 0.499894 0.785573
C2    C     C_3   0.959947 0.521469 0.369043 -0.178232
C3    C     C_3   0.040678 0.409263 0.413497 -0.300779
C4    C     C_3   0.122808 0.497249 0.501140 -0.101110
C5    C     C_R   0.490261 0.063871 0.625709 0.135422
C6    C     C_R   0.484007 0.129184 0.500108 -0.092683
C7    C     C_R   0.458482 0.064055 0.375644 -0.241195
C8    C     C_R   0.457622 0.934967 0.375971 -0.200417
C9    C     C_R   0.483406 0.870645 0.500391 -0.086585
C10   C     C_R   0.490187 0.936675 0.625721 0.147709
C11   C     C_3   0.584584 0.930687 0.740678 -0.499367
C12   C     C_R   0.259454 0.498468 0.500273 0.849057
C13   C     C_3   0.584700 0.071148 0.740910 -0.476918
C14   C     C_R   0.562458 0.590364 0.074013 0.193832
C15   C     C_R   0.428875 0.418020 0.074402 -0.084666
C16   C     C_R   0.428881 0.417986 0.925562 -0.037090
C17   C     C_R   0.562187 0.590735 0.926094 0.178692
C18   C     C_3   0.699193 0.618765 0.916738 -0.593716
C19   C     C_3   0.701002 0.614271 0.076302 0.309881
C20   C     C_R   0.497113 0.737655 0.500046 0.822092
C21   C     C_R   0.740753 0.500787 0.499971 0.835462
C22   C     C_3   0.039326 0.476524 0.629409 0.532991
C23   C     C_3   0.956080 0.387520 0.543914 -0.224119
C24   C     C_3   0.877661 0.500742 0.500400 -0.109141
C25   C     C_3   0.959574 0.589645 0.589766 -0.334614
C26   C     C_3   0.042670 0.607430 0.458963 0.499653
Cu1   Cu    Cu3+1 0.499990 0.499980 0.640670 0.962960
Cu2   Cu    Cu3+1 0.500010 0.500020 0.359330 0.965246
H1    H     H_    0.917029 0.297681 0.580313 0.135788
H2    H     H_    0.675296 0.890272 0.705952 0.188160
H3    H     H_    0.675493 0.112497 0.706368 0.193324
H4    H     H_    0.373167 0.350077 0.130205 0.135746
H5    H     H_    0.718472 0.709686 0.867826 0.195323
H6    H     H_    0.923555 0.662949 0.660589 0.137614
H7    H     H_    0.926946 0.541016 0.261493 0.153561
H8    H     H_    0.077002 0.336305 0.342417 0.160641
H9    H     H_    0.444847 0.112115 0.277469 0.158579
H10   H     H_    0.442659 0.886252 0.278231 0.166323
H11   H     H_    0.543837 0.889967 0.837425 0.196735
N1    N     N_R   0.500800 0.500930 0.147930 -0.211486
N2    N     N_R   0.500800 0.500890 0.852020 -0.178652
O1    O     O_R   0.500000 0.319640 0.618810 -0.588450
O2    O     O_R   0.500010 0.319680 0.381230 -0.597549
O3    O     O_R   0.316850 0.499950 0.618770 -0.545070
O4    O     O_R   0.316860 0.499990 0.381190 -0.578335
O5    O     O_R   0.499990 0.680320 0.618770 -0.579058
O6    O     O_R   0.500000 0.680360 0.381190 -0.562699
O7    O     O_R   0.683140 0.500010 0.618810 -0.593568
O8    O     O_R   0.683150 0.500050 0.381230 -0.576323
H12   H     H_    0.544586 0.111466 0.838314 0.195524
H13   H     H_    0.373220 0.349996 0.869773 0.154693
H14   H     H_    0.751300 0.541321 0.868392 0.185311
H15   H     H_    0.752497 0.532003 0.114616 0.099246
O9    O     O_3   0.739682 0.722850 0.150045 -0.573126
C27   C     C_3   0.683497 0.833886 0.104345 -0.304375
H16   H     H_    0.581958 0.824090 0.080805 0.144281
H17   H     H_    0.735234 0.872097 0.013047 0.165852
H18   H     H_    0.691843 0.903100 0.189773 0.182887
O10   O     O_3   0.093377 0.448773 0.760396 -0.564869
C28   C     C_3   0.000895 0.453448 0.865442 -0.334212
H19   H     H_    0.918590 0.393753 0.839659 0.150569
H20   H     H_    0.972141 0.550614 0.884786 0.174998
H21   H     H_    0.041783 0.418120 0.964231 0.186104
O11   O     O_3   0.098782 0.719799 0.416348 -0.584121
C29   C     C_3   0.004653 0.802394 0.373738 -0.289231
H22   H     H_    0.933538 0.817642 0.457508 0.152816
H23   H     H_    0.958862 0.769470 0.276065 0.206754
H24   H     H_    0.049131 0.893150 0.350593 0.182359

loop_
_geom_bond_atom_site_label_1
_geom_bond_atom_site_label_2
_ccdc_geom_bond_type
C2    H7    S    
Cu1   O7    S    
C4    C26   S    
C23   C24   S    
Cu2   O6    S    
C6    C7    A    
C12   O4    A    
C4    C12   S    
C4    C22   S    
C9    C10   A    
Cu1   N2    S    
C9    C20   S    
C5    C13   S    
Cu1   O1    S    
C16   H13   S    
C25   H6    S    
C27   H16   S    
C21   O7    A    
O11   C29   S    
C19   H15   S    
C21   O8    A    
C17   C18   S    
C7    H9    S    
C18   H14   S    
O10   C28   S    
C2    C26   S    
C11   H11   S    
C11   C13   S    
C14   C17   A    
C8    H10   S    
C3    H8    S    
C28   H21   S    
C16   N2    A    
Cu1   O5    S    
C14   C19   S    
C12   O3    A    
C1    O2    A    
C2    C3    S    
C27   H17   S    
C2    C24   S    
C5    C6    A    
C15   N1    A    
C18   H5    S    
C17   N2    A    
Cu2   O4    S    
C27   H18   S    
C20   O6    A    
C7    C8    A    
C10   C11   S    
Cu2   N1    S    
C14   N1    A    
C15   C16   A    
C1    C6    S    
C23   H1    S    
C1    O1    A    
C5    C10   A    
C29   H24   S    
C18   C19   S    
C24   C25   S    
C19   O9    S    
C28   H20   S    
C29   H22   S    
Cu2   O8    S    
C21   C24   S    
C22   O10   S    
C26   O11   S    
C22   C23   S    
C28   H19   S    
Cu2   O2    S    
C29   H23   S    
C25   C26   S    
O9    C27   S    
C3    C23   S    
Cu1   O3    S    
C13   H3    S    
C20   O5    A    
C3    C4    S    
C13   H12   S    
C11   H2    S    
C8    C9    A    
Cu1   Cu2   S    
C22   C25   S    
C15   H4    S    
