data_mof_unit_26972.cif
_audit_creation_date              2013-03-05T16:09:49-0500
_audit_creation_method            fapswitch 2.2
_symmetry_space_group_name_H-M    P1
_symmetry_Int_Tables_number       1
_space_group_crystal_system       triclinic
_cell_length_a                    8.375244
_cell_length_b                    15.473246
_cell_length_c                    26.788088
_cell_angle_alpha                 98.489582
_cell_angle_beta                  92.061919
_cell_angle_gamma                 81.028187
_cell_volume                      3391.18264248

loop_
_atom_site_label
_atom_site_type_symbol
_atom_site_description
_atom_site_fract_x
_atom_site_fract_y
_atom_site_fract_z
_atom_type_partial_charge
P1    P     P_3+3 0.071950 0.575820 0.612140 0.517141
O1    O     O_2   0.906480 0.548660 0.619050 -0.387872
O2    O     O_3   0.138490 0.548590 0.558870 -0.356430
O3    O     O_3   0.686300 0.382310 0.585700 -0.331675
O4    O     O_2   0.814402 0.456618 0.672193 -0.435933
O5    O     O_3   0.093865 0.683884 0.639106 -0.653557
O6    O     O_3   0.683456 0.327906 0.689206 -0.529532
H1    H     H_    0.851101 0.257804 0.636826 0.003869
C1    C     C_3   0.840719 0.185142 0.700022 -0.022225
H2    H     H_    0.971105 0.186430 0.701862 0.101192
P2    P     P_3+3 0.664370 0.290050 0.457240 0.478281
P3    P     P_3+3 0.142485 0.222204 0.561955 0.518194
O7    O     O_2   0.844040 0.276390 0.471470 -0.380304
O8    O     O_3   0.101510 0.335500 0.560330 -0.422909
O9    O     O_2   0.989727 0.185328 0.539396 -0.314333
O10   O     O_3   0.667357 0.260962 0.391736 -0.537209
O11   O     O_3   0.143287 0.210928 0.626418 -0.528635
C2    C     C_3   0.167420 0.291888 0.655459 0.323669
H3    H     H_    0.060734 0.342904 0.652076 0.120436
H4    H     H_    0.274224 0.315196 0.642348 0.160566
C3    C     C_3   0.195391 0.282992 0.711371 -0.830685
H5    H     H_    0.086165 0.313810 0.733445 0.227243
H6    H     H_    0.226532 0.212857 0.717312 0.312563
C4    C     C_3   0.245582 0.268386 0.405715 0.177089
H7    H     H_    0.356429 0.299149 0.412381 0.106884
H8    H     H_    0.179564 0.273033 0.441415 0.044740
C5    C     C_3   0.292584 0.170948 0.384096 0.197351
H9    H     H_    0.380309 0.137190 0.409459 0.023730
H10   H     H_    0.183811 0.138121 0.381958 0.086158
Ba1   Ba    Ba6+2 0.860050 0.456430 0.522530 1.642483
C6    C     C_3   0.963684 0.750337 0.635888 0.681652
H11   H     H_    0.847823 0.723890 0.629012 0.072682
C7    C     C_3   0.962984 0.814704 0.685812 -0.130633
H12   H     H_    0.875254 0.875821 0.685110 0.168265
H13   H     H_    0.083090 0.836880 0.692063 0.140264
C8    C     C_3   0.720500 0.325455 0.368410 0.387654
H14   H     H_    0.812946 0.358312 0.391258 0.097076
H15   H     H_    0.613267 0.374188 0.361709 0.087528
C9    C     C_3   0.794439 0.280816 0.318174 -0.738407
H16   H     H_    0.841047 0.328938 0.298110 0.193635
H17   H     H_    0.702654 0.250184 0.293702 0.287204
H18   H     H_    0.896729 0.228714 0.324772 0.274349
P4    P     P_3+3 0.117760 0.424110 0.387850 0.508949
O12   O     O_2   0.283210 0.451310 0.380920 -0.361728
O13   O     O_3   0.051220 0.451340 0.441120 -0.392862
O14   O     O_3   0.503410 0.617620 0.414290 -0.378900
O15   O     O_3   0.142841 0.309409 0.371445 -0.527258
P5    P     P_3+3 0.033619 0.776306 0.431883 0.598746
O16   O     O_3   0.617150 0.609960 0.527100 -0.410607
O17   O     O_3   0.088210 0.664420 0.439670 -0.390363
O18   O     O_2   0.176170 0.822210 0.455345 -0.279661
O19   O     O_3   0.046996 0.774536 0.366860 -0.504753
Ba2   Ba    Ba6+2 0.329780 0.543490 0.477460 1.662226
P6    P     P_3+3 0.667108 0.414021 0.652334 0.507628
C10   C     C_3   0.759519 0.247983 0.663299 0.876759
H19   H     H_    0.831301 0.115210 0.685636 0.153664
O20   O     O_3   0.572560 0.389960 0.472890 -0.406513
C11   C     C_3   0.482415 0.663932 0.628375 0.352272
H20   H     H_    0.377700 0.639398 0.607845 0.122935
H21   H     H_    0.589215 0.611224 0.623963 0.103191
C12   C     C_3   0.443730 0.691540 0.684530 -0.821259
H22   H     H_    0.410517 0.764341 0.693969 0.306117
H23   H     H_    0.340645 0.661714 0.695289 0.227873
H24   H     H_    0.549901 0.669759 0.707989 0.263391
P7    P     P_3+3 0.529441 0.722158 0.544662 0.530246
O21   O     O_2   0.345660 0.723580 0.528500 -0.287498
O22   O     O_3   0.517840 0.737935 0.609979 -0.503637
H25   H     H_    0.297264 0.317293 0.726520 0.281909
C13   C     C_3   0.989889 0.698441 0.342300 0.379296
H26   H     H_    0.076840 0.639083 0.348090 0.107484
H27   H     H_    0.870148 0.692579 0.356826 0.120800
C14   C     C_3   0.973617 0.700998 0.285774 -0.841290
H28   H     H_    0.080727 0.661408 0.265876 0.197589
H29   H     H_    0.866159 0.671421 0.271562 0.297892
H30   H     H_    0.958762 0.769499 0.276801 0.301259
P8    P     P_3+3 0.522884 0.587892 0.348405 0.455797
C15   C     C_3   0.416632 0.752724 0.338610 0.671582
O23   O     O_2   0.361015 0.560882 0.326858 -0.446838
O24   O     O_3   0.537896 0.682188 0.320701 -0.544582
H31   H     H_    0.324314 0.731102 0.360255 0.043108
C16   C     C_3   0.331805 0.792343 0.293395 0.085386
H32   H     H_    0.222520 0.839500 0.306110 0.150070
H33   H     H_    0.293169 0.738355 0.266016 0.079393
C17   C     C_R   0.033907 0.414397 0.176765 0.560912
O25   O     O_2   0.097892 0.354794 0.199419 -0.552833
N1    N     N_R   0.921734 0.481686 0.201085 -0.168479
C18   C     C_R   0.844199 0.546909 0.174185 0.532748
C19   C     C_2   0.731598 0.497341 0.271200 -0.123125
C20   C     C_3   0.696238 0.502181 0.327006 0.161113
C21   C     C_1   0.984914 0.478030 0.342062 0.266364
C22   C     C_2   0.020575 0.474276 0.293642 -0.209958
C23   C     C_2   0.886542 0.484233 0.254657 0.077796
C24   C     C_R   0.998227 0.480586 0.098843 -0.066629
C25   C     C_R   0.073638 0.413153 0.125571 -0.073182
C26   C     C_R   0.185030 0.345081 0.100098 -0.056159
C27   C     C_R   0.883163 0.547908 0.123392 -0.051724
C28   C     C_2   0.843085 0.517306 0.359180 -0.495949
H34   H     H_    0.145617 0.466436 0.282353 0.195378
H35   H     H_    0.240165 0.289945 0.118644 0.183202
C29   C     C_2   0.344900 0.474024 0.637567 -0.452257
C30   C     C_R   0.220083 0.427662 0.975656 -0.099604
C31   C     C_R   0.975708 0.537082 0.966513 -0.116853
C32   C     C_R   0.119523 0.484179 0.945912 0.046037
C33   C     C_R   0.372043 0.384069 0.955440 0.279770
C34   C     C_R   0.407901 0.386132 0.904913 -0.061498
C35   C     C_R   0.304659 0.436990 0.874316 -0.079738
C36   C     C_R   0.162591 0.487721 0.895195 -0.049406
C37   C     C_R   0.063483 0.542175 0.865295 -0.124291
C38   C     C_R   0.110491 0.548013 0.815779 0.626105
N2    N     N_R   0.248434 0.495932 0.794483 -0.175277
C39   C     C_R   0.343724 0.439652 0.823533 0.595845
C40   C     C_2   0.445164 0.494493 0.727246 -0.080415
C41   C     C_3   0.485003 0.492768 0.671974 0.140829
C42   C     C_1   0.200554 0.509614 0.653662 0.289099
C43   C     C_2   0.161487 0.504765 0.700824 -0.244468
C44   C     C_2   0.289748 0.498625 0.741704 0.058381
O26   O     O_2   0.461981 0.390651 0.805134 -0.508606
C45   C     C_R   0.164680 0.418051 0.024283 0.072551
C46   C     C_R   0.037717 0.480759 0.047366 0.106738
C47   C     C_R   0.950458 0.544111 0.019504 0.099379
C48   C     C_R   0.228081 0.346942 0.050355 -0.084345
H36   H     H_    0.542603 0.496519 0.754999 0.193949
H37   H     H_    0.523109 0.351484 0.890351 0.225588
H38   H     H_    0.308642 0.290557 0.032333 0.168390
O27   O     O_2   0.741042 0.604669 0.194436 -0.552365
C49   C     C_R   0.812537 0.616488 0.096976 -0.054014
H39   H     H_    0.630997 0.500488 0.244499 0.175997
H40   H     H_    0.729822 0.671901 0.115444 0.185550
C50   C     C_R   0.864754 0.579959 0.932767 0.471216
C51   C     C_R   0.914905 0.586841 0.884425 -0.137324
O28   O     O_2   0.028503 0.600577 0.791920 -0.518689
C52   C     C_R   0.848270 0.615380 0.046412 -0.079704
H41   H     H_    0.831542 0.623060 0.860208 0.223982
H42   H     H_    0.037341 0.508498 0.710655 0.223252
H43   H     H_    0.798183 0.672283 0.029041 0.184068
H44   H     H_    0.831291 0.554806 0.396854 0.164162
H45   H     H_    0.363301 0.442803 0.598717 0.182338
C53   C     C_R   0.832583 0.833121 0.459808 0.326342
C54   C     C_R   0.765766 0.926060 0.463007 -0.081105
C55   C     C_R   0.635378 0.112155 0.479705 -0.020708
C56   C     C_R   0.771998 0.079877 0.450833 -0.167451
C57   C     C_R   0.822301 0.989524 0.436298 0.484152
C58   C     C_R   0.569361 0.203826 0.485444 0.290267
H46   H     H_    0.830124 0.125161 0.433735 0.200154
C59   C     C_R   0.414588 0.228388 0.506001 -0.439304
C60   C     C_R   0.620933 0.808681 0.516008 0.243479
C61   C     C_R   0.569847 0.902242 0.525835 -0.146055
C62   C     C_R   0.631230 0.959091 0.496140 0.046453
C63   C     C_R   0.462357 0.942782 0.564936 0.476996
C64   C     C_R   0.357919 0.020269 0.556841 0.153829
C65   C     C_R   0.410557 0.079707 0.527413 -0.154525
C66   C     C_R   0.558467 0.050467 0.500792 0.081471
C67   C     C_R   0.332878 0.169358 0.527255 0.271302
C68   C     C_R   0.747267 0.777100 0.482020 -0.297140
H47   H     H_    0.361252 0.297220 0.508730 0.155248
H48   H     H_    0.788520 0.706554 0.475564 0.132781
S1    S     S_3+6 0.378959 0.156103 0.322509 0.066423
O29   O     O_2   0.385650 0.243433 0.305026 -0.266864
O30   O     O_2   0.547209 0.105983 0.324201 -0.165784
O31   O     O_3   0.264770 0.097714 0.281797 -0.471498
H49   H     H_    0.314991 0.094063 0.248493 0.399468
S2    S     S_3+6 0.009227 0.805898 0.585757 0.007236
O32   O     O_2   0.025803 0.738482 0.539436 -0.294900
O33   O     O_2   0.882676 0.882572 0.577958 -0.247625
O34   O     O_3   0.183733 0.845157 0.597218 -0.440648
H50   H     H_    0.240403 0.810074 0.622103 0.361107
N3    N     N_R   0.929212 0.772543 0.728568 0.273191
O35   O     O_R   0.032847 0.768005 0.765789 -0.292566
O36   O     O_R   0.788217 0.749346 0.732672 -0.350432
S3    S     S_3+6 0.610856 0.198441 0.627593 -0.030554
O37   O     O_2   0.520133 0.264421 0.597928 -0.384757
O38   O     O_2   0.692681 0.119886 0.593257 -0.278283
O39   O     O_3   0.481359 0.171273 0.666477 -0.494435
H51   H     H_    0.409070 0.137961 0.643997 0.405611
S4    S     S_3+6 0.768093 0.209690 0.763477 0.076063
O40   O     O_2   0.805113 0.298833 0.787021 -0.200131
O41   O     O_2   0.589027 0.209307 0.764488 -0.174473
O42   O     O_3   0.862727 0.132870 0.797134 -0.447567
H52   H     H_    0.834367 0.076067 0.779780 0.349358
N4    N     N_R   0.489349 0.819092 0.372092 0.232963
O43   O     O_R   0.644843 0.813641 0.374273 -0.397223
O44   O     O_R   0.401284 0.885064 0.398816 -0.361184
S5    S     S_3+6 0.456321 0.848794 0.260555 0.086570
O45   O     O_2   0.363758 0.878742 0.215504 -0.251243
O46   O     O_2   0.499982 0.927934 0.294632 -0.144283
O47   O     O_3   0.625436 0.780686 0.241027 -0.454952
H53   H     H_    0.686824 0.816649 0.223402 0.376456
N5    N     N_R   0.500664 0.347607 0.986736 0.235941
O48   O     O_R   0.598238 0.276552 0.969110 -0.338567
O49   O     O_R   0.537167 0.393058 0.029322 -0.360121
S6    S     S_3+6 0.652642 0.607171 0.942684 -0.031905
O50   O     O_2   0.609863 0.704983 0.959199 -0.266258
O51   O     O_2   0.564957 0.583302 0.893827 -0.292814
O52   O     O_3   0.591889 0.551538 0.986084 -0.506147
H54   H     H_    0.473768 0.571268 0.988734 0.376171
S7    S     S_3+6 0.915978 0.969085 0.376430 0.033976
O53   O     O_2   0.094407 0.943212 0.383130 -0.269845
O54   O     O_2   0.846128 0.899677 0.341287 -0.168830
O55   O     O_3   0.883822 0.061051 0.348636 -0.493900
H55   H     H_    0.991014 0.070306 0.337894 0.373812
N6    N     N_R   0.192460 0.028131 0.570770 0.280398
O56   O     O_R   0.153853 0.033725 0.617840 -0.282068
O57   O     O_R   0.086856 0.008104 0.535887 -0.316503
S8    S     S_3+6 0.525371 0.934870 0.629138 0.033805
O58   O     O_2   0.386517 0.930482 0.662084 -0.249142
O59   O     O_2   0.651845 0.857630 0.632211 -0.306309
O60   O     O_3   0.619287 0.017506 0.655276 -0.463387
H56   H     H_    0.634833 0.009630 0.691276 0.377238

loop_
_geom_bond_atom_site_label_1
_geom_bond_atom_site_label_2
_geom_bond_distance
_ccdc_geom_bond_type
Ba1   O20   2.960027 S    
S1    O29   1.503603 D    
C5    H10   1.105972 S    
C2    C3    1.530606 S    
O2    Ba2   2.736803 S    
N6    O56   1.300125 A    
Ba1   O13   2.736217 S    
C61   C62   1.431048 A    
C31   C50   1.430119 A    
O6    C10   1.396250 S    
P3    C67   1.884381 S    
S5    O45   1.502630 D    
O14   P8    1.763735 S    
C42   C43   1.331981 D    
C63   C64   1.409128 A    
S4    O41   1.501895 D    
O34   H50   0.983893 S    
C7    N3    1.455658 S    
O39   H51   0.987094 S    
C24   C25   1.408107 A    
O16   P7    1.777872 S    
C30   C45   1.434055 A    
C8    H14   1.108758 S    
C61   C63   1.413790 A    
P8    O23   1.547552 D    
C2    H3    1.106802 S    
C19   H39   1.085358 S    
C14   H30   1.108442 S    
C54   C57   1.441274 A    
C26   H35   1.083348 S    
C35   C36   1.404174 A    
C11   H21   1.109426 S    
C43   C44   1.508799 S    
P6    C41   1.837515 S    
C37   C38   1.416565 A    
C34   H37   1.083789 S    
N5    O49   1.301771 A    
P1    O1    1.534450 D    
C13   H27   1.110067 S    
C45   C46   1.415237 A    
C40   C41   1.524942 S    
C48   H38   1.079329 S    
O19   C13   1.404365 S    
C31   C32   1.425604 A    
N2    C39   1.392672 Am   
O12   Ba2   2.808272 S    
P4    Ba2   3.425599 S    
P5    O18   1.550363 D    
C19   C23   1.361728 D    
P2    Ba1   3.486089 S    
P7    O22   1.734726 S    
P3    O11   1.760755 S    
C38   O28   1.220347 D    
C65   C66   1.428758 A    
C4    C5    1.528697 S    
C1    S4    1.793171 S    
C1    C10   1.550394 S    
C15   C16   1.539193 S    
S4    O42   1.680823 S    
P4    O15   1.745625 S    
C1    H2    1.094506 S    
C55   C66   1.422062 A    
C21   C28   1.312390 D    
C37   C51   1.400646 A    
P8    C20   1.852104 S    
C59   C67   1.415380 A    
C53   C68   1.411413 A    
C11   C12   1.533783 S    
P5    O17   1.761432 S    
O52   H54   0.990657 S    
C6    S2    1.779892 S    
O13   Ba2   2.981264 S    
O55   H55   0.990025 S    
S1    O30   1.501358 D    
C3    H5    1.110634 S    
S8    O58   1.500704 D    
N6    O57   1.300777 A    
C13   H26   1.106030 S    
O8    Ba1   2.801453 S    
S7    O55   1.682476 S    
H1    C10   1.105282 S    
C33   C34   1.402930 A    
C16   H33   1.107598 S    
N3    O35   1.300703 A    
N4    O44   1.298422 A    
C16   H32   1.107676 S    
C9    H18   1.109447 S    
S2    O33   1.496540 D    
C35   C39   1.418493 A    
C15   O24   1.409802 S    
C33   N5    1.437596 S    
Ba1   Ba2   4.607001 S    
C54   C62   1.441191 A    
O17   Ba2   2.801894 S    
C9    H16   1.104359 S    
O60   H56   0.991253 S    
C15   N4    1.453878 S    
O42   H52   0.990732 S    
O7    Ba1   2.937311 S    
O6    P6    1.758353 S    
C17   O25   1.222181 D    
C29   C42   1.307836 D    
C4    H7    1.105058 S    
N3    O36   1.299449 A    
C29   H45   1.086327 S    
C56   H46   1.074681 S    
C22   C23   1.511213 S    
Ba2   O20   2.866781 S    
N1    C18   1.391452 Am   
S7    O53   1.496994 D    
C11   H20   1.105981 S    
P4    C21   1.831088 S    
C8    C9    1.524376 S    
S6    O50   1.503084 D    
C20   C28   1.504716 S    
N5    O48   1.301462 A    
P1    O2    1.526727 S    
C45   C48   1.413623 A    
O2    Ba1   2.980502 S    
P4    O12   1.534664 D    
S6    O51   1.503780 D    
C40   H36   1.084939 S    
S2    O34   1.670000 S    
P2    O10   1.746069 S    
O4    P6    1.530402 D    
C6    H11   1.109831 S    
C60   C68   1.401426 A    
S8    O60   1.659399 S    
C49   C52   1.394750 A    
C36   C37   1.404891 A    
C18   C27   1.413423 A    
C6    C7    1.544671 S    
O11   C2    1.412531 S    
C27   C49   1.404461 A    
C25   C26   1.404461 A    
C1    H19   1.107671 S    
C17   C25   1.419446 A    
C55   C56   1.388619 A    
C55   C58   1.427742 A    
Ba2   O21   2.937632 S    
P4    O13   1.526729 S    
C63   S8    1.796684 S    
O47   H53   0.990561 S    
C14   H29   1.103060 S    
Ba1   O16   2.867365 S    
S8    O59   1.478219 D    
C24   C27   1.405895 A    
C3    H6    1.109404 S    
C3    H25   1.107731 S    
S5    O47   1.677901 S    
C51   H41   1.084014 S    
C5    S1    1.794466 S    
P1    C42   1.831082 S    
C16   S5    1.789253 S    
N2    C44   1.475631 S    
C40   C44   1.360656 D    
C13   C14   1.521242 S    
C31   C47   1.428423 A    
N4    O43   1.291607 A    
C60   C61   1.431971 A    
C15   H31   1.102796 S    
C58   C59   1.401400 A    
C49   H40   1.083490 S    
C10   S3    1.745932 S    
C18   O27   1.220343 D    
O3    P6    1.786129 S    
C47   C52   1.408353 A    
C4    O15   1.389578 S    
C68   H48   1.082462 S    
C12   H23   1.105846 S    
C29   C41   1.503298 S    
C62   C66   1.438985 A    
C17   N1    1.389162 Am   
C14   H28   1.109378 S    
C46   C47   1.416130 A    
C43   H42   1.072508 S    
S1    O31   1.680399 S    
S2    O32   1.494039 D    
C34   C35   1.402131 A    
C64   N6    1.430241 S    
P5    C53   1.897945 S    
O1    Ba1   2.807908 S    
O31   H49   0.990331 S    
C8    H15   1.106598 S    
P3    O9    1.548499 D    
C50   C51   1.399504 A    
S6    O52   1.681143 S    
C11   O22   1.387498 S    
S4    O40   1.502965 D    
N1    C23   1.469016 S    
C56   C57   1.396799 A    
O10   C8    1.388174 S    
C12   H24   1.108164 S    
P2    O7    1.528940 D    
C4    H8    1.109424 S    
C26   C48   1.398441 A    
C21   C22   1.332369 D    
S3    O38   1.499522 D    
C52   H43   1.076793 S    
O16   Ba2   2.959173 S    
C50   S6    1.780845 S    
O14   Ba2   2.750336 S    
P1    Ba1   3.425100 S    
C7    H13   1.111852 S    
C7    H12   1.105466 S    
O5    C6    1.386801 S    
C2    H4    1.101906 S    
C65   C67   1.437926 A    
C22   H34   1.084092 S    
C12   H22   1.110617 S    
S7    O54   1.496562 D    
C53   C54   1.450726 A    
C39   O26   1.220368 D    
C59   H47   1.081762 S    
P3    O8    1.739740 S    
P5    O19   1.745359 S    
P8    O24   1.754745 S    
C19   C20   1.523149 S    
C9    H17   1.109495 S    
S5    O46   1.500705 D    
C30   C32   1.427127 A    
P7    O21   1.581583 D    
S3    O37   1.485015 D    
C38   N2    1.389568 Am   
P1    O5    1.755277 S    
C57   S7    1.775092 S    
C64   C65   1.423800 A    
C32   C36   1.429108 A    
C30   C33   1.428993 A    
C24   C46   1.430081 A    
C28   H44   1.086893 S    
P7    C60   1.906417 S    
P2    O20   1.618022 S    
P2    C58   1.912062 S    
O3    Ba1   2.750860 S    
C5    H9    1.106087 S    
S3    O39   1.670568 S    
