data_mof_unit_23611.cif
_audit_creation_date              2012-12-10T16:53:57-0500
_audit_creation_method            fapswitch 2.2
_symmetry_space_group_name_H-M    P1
_symmetry_Int_Tables_number       1
_space_group_crystal_system       triclinic
_cell_length_a                    7.771589
_cell_length_b                    8.562813
_cell_length_c                    10.62127
_cell_angle_alpha                 91.241551
_cell_angle_beta                  85.141383
_cell_angle_gamma                 93.839064
_cell_volume                      702.599003329

loop_
_atom_site_label
_atom_site_type_symbol
_atom_type_description
_atom_site_fract_x
_atom_site_fract_y
_atom_site_fract_z
_atom_type_partial_charge
Br1   Br    Br    0.582089 0.843064 0.847743 -0.526432
Br2   Br    Br    0.574194 0.844427 0.151961 -0.519972
C1    C     C_R   0.545928 0.794789 0.497140 1.036799
C2    C     C_3   0.314716 0.527968 0.940828 -0.363897
C3    C     C_3   0.313260 0.527006 0.083654 -0.375294
C4    C     C_3   0.560427 0.348057 0.921758 -0.444615
C5    C     C_3   0.626694 0.642444 0.921681 0.094571
C6    C     C_3   0.500908 0.505972 0.878782 0.034107
C7    C     C_3   0.498547 0.506112 0.121782 0.033010
C8    C     C_3   0.559640 0.348277 0.065910 -0.442438
C9    C     C_3   0.624287 0.643395 0.068296 0.105840
C10   C     C_2   0.570084 0.958408 0.495801 -0.290871
C11   C     C_2   0.429981 0.041632 0.505837 -0.338800
C12   C     C_R   0.500733 0.501179 0.742218 0.905159
C13   C     C_R   0.454092 0.205217 0.503497 0.960532
C14   C     C_R   0.499012 0.501170 0.257940 0.904058
H1    H     H_    0.222977 0.431627 0.910396 0.182597
H2    H     H_    0.263596 0.638111 0.123700 0.226936
H3    H     H_    0.222484 0.429345 0.120955 0.177373
H4    H     H_    0.472558 0.249416 0.890272 0.221567
H5    H     H_    0.472259 0.249128 0.104518 0.221690
H6    H     H_    0.760352 0.619382 0.882646 0.108966
H7    H     H_    0.757566 0.622591 0.092248 0.116200
H8    H     H_    0.693147 0.328308 0.878902 0.200348
H9    H     H_    0.692322 0.329222 0.092072 0.200212
H10   H     H_    0.702292 0.009775 0.486175 0.179161
H11   H     H_    0.297782 0.990238 0.515497 0.180805
H12   H     H_    0.014064 0.382503 0.404361 0.190965
H13   H     H_    0.985938 0.617523 0.595625 0.199260
H14   H     H_    0.266832 0.640154 0.911444 0.224549
N1    N     N_2   0.950330 0.457950 0.465890 -0.174000
N2    N     N_2   0.049670 0.542050 0.534110 -0.173944
O1    O     O_R   0.389250 0.738570 0.508370 -0.607689
O2    O     O_R   0.678390 0.711620 0.486510 -0.616490
O3    O     O_R   0.355430 0.513500 0.696140 -0.622486
O4    O     O_R   0.644580 0.486550 0.674270 -0.634008
O5    O     O_R   0.321610 0.288380 0.513490 -0.631703
O6    O     O_R   0.610750 0.261430 0.491630 -0.611438
O7    O     O_R   0.355420 0.513450 0.325730 -0.628537
O8    O     O_R   0.644570 0.486500 0.303860 -0.628006
Zn1   Zn    Zn3+2 0.306940 0.517990 0.514600 0.961561
Zn2   Zn    Zn3+2 0.693060 0.482010 0.485400 0.964352

loop_
_geom_bond_atom_site_label_1
_geom_bond_atom_site_label_2
_ccdc_geom_bond_type
C4    C8    S    
C5    C9    S    
N2    Zn1   S    
C13   O6    A    
C3    C7    S    
C3    H3    S    
N1    Zn2   S    
C5    H6    S    
C4    H4    S    
C7    C8    S    
O4    Zn2   S    
N1    N2    D    
O2    Zn2   S    
C2    C6    S    
O1    Zn1   S    
O8    Zn2   S    
C1    C10   S    
C4    H8    S    
C5    C6    S    
O7    Zn1   S    
O5    Zn1   S    
C7    C9    S    
C14   O8    A    
C4    C6    S    
Br2   C9    S    
C8    H9    S    
C9    H7    S    
C7    C14   S    
O6    Zn2   S    
H13   N2    S    
C11   C13   S    
C8    H5    S    
C12   O4    A    
O3    Zn1   S    
C2    H14   S    
C2    H1    S    
C14   O7    A    
C10   C11   D    
C12   O3    A    
C1    O1    A    
C13   O5    A    
C6    C12   S    
C3    H2    S    
C1    O2    A    
Br1   C5    S    
H12   N1    S    
C11   H11   S    
C10   H10   S    
C2    C3    S    
