data_mof_unit_67014.cif
_audit_creation_date              2012-12-11T17:41:05-0500
_audit_creation_method            fapswitch 2.2
_symmetry_space_group_name_H-M    P1
_symmetry_Int_Tables_number       1
_space_group_crystal_system       triclinic
_cell_length_a                    8.280809
_cell_length_b                    12.751593
_cell_length_c                    14.3983
_cell_angle_alpha                 93.891226
_cell_angle_beta                  90.491788
_cell_angle_gamma                 98.803831
_cell_volume                      1498.71313081

loop_
_atom_site_label
_atom_site_type_symbol
_atom_type_description
_atom_site_fract_x
_atom_site_fract_y
_atom_site_fract_z
_atom_type_partial_charge
Ba1   Ba    Ba6+2 0.855630 0.555280 0.454520 1.613640
Ba2   Ba    Ba6+2 0.334200 0.444810 0.545490 1.627172
C1    C     C_3   0.611283 0.942069 0.183036 -0.429024
C2    C     C_3   0.649653 0.850474 0.237109 0.351934
C3    C     C_3   0.464656 0.302696 0.262028 0.334468
C4    C     C_3   0.401361 0.270296 0.162501 -0.218629
C5    C     C_3   0.058523 0.202608 0.802504 0.377822
C6    C     C_3   0.060989 0.162801 0.899711 -0.375763
C7    C     C_3   0.545234 0.146145 0.794054 0.339579
C8    C     C_3   0.587470 0.085259 0.876089 -0.424599
C9    C     C_R   0.982254 0.445589 0.059662 -0.036077
C10   C     C_R   0.182831 0.494228 0.193652 0.038725
C11   C     C_R   0.341921 0.538096 0.221337 -0.305855
C12   C     C_3   0.143689 0.811006 0.202160 0.358900
C13   C     C_R   0.453249 0.588454 0.160542 0.026039
C14   C     C_R   0.407098 0.594977 0.067065 -0.008065
C15   C     C_R   0.247073 0.550095 0.034664 0.011341
C16   C     C_R   0.135177 0.496209 0.097047 -0.037857
C17   C     C_R   0.050964 0.502487 0.902063 -0.027249
C18   C     C_R   0.939587 0.448837 0.964220 0.003805
C19   C     C_R   0.008842 0.499606 0.804213 0.023406
C20   C     C_R   0.858099 0.442915 0.773410 -0.276579
C21   C     C_R   0.743261 0.399479 0.835951 0.012236
C22   C     C_R   0.784106 0.400886 0.930467 -0.156960
C23   C     C_3   0.134374 0.853550 0.106563 -0.377441
C24   C     C_R   0.199722 0.556122 0.939856 -0.046533
C25   C     C_R   0.768530 0.177690 0.531602 -0.284928
C26   C     C_R   0.434571 0.813585 0.458211 -0.218140
C27   C     C_R   0.404442 0.995025 0.434394 -0.110395
C28   C     C_R   0.341273 0.887951 0.427582 0.009380
C29   C     C_R   0.573167 0.847477 0.516673 0.059989
C30   C     C_R   0.633438 0.960105 0.530286 -0.049970
C31   C     C_R   0.553264 0.032525 0.481715 -0.068272
C32   C     C_R   0.619633 0.141921 0.485403 0.042572
C33   C     C_R   0.849582 0.108607 0.578239 0.016383
C34   C     C_3   0.234769 0.761478 0.659694 0.272321
C35   C     C_R   0.771078 0.004657 0.588700 0.013531
C36   C     C_3   0.279272 0.879799 0.686839 -0.390669
C37   C     C_3   0.969173 0.238271 0.342992 0.274883
C38   C     C_3   0.961262 0.119233 0.322045 -0.358006
C39   C     C_3   0.774079 0.689526 0.730165 0.342297
C40   C     C_3   0.778248 0.709721 0.835791 -0.244543
H1    H     H_    0.739462 0.881603 0.293911 0.078602
H2    H     H_    0.384113 0.893340 0.736991 0.110453
H3    H     H_    0.312489 0.924260 0.624609 0.083942
H4    H     H_    0.173928 0.910638 0.720072 0.141593
H5    H     H_    0.847775 0.255755 0.363765 0.008360
H6    H     H_    0.059279 0.262872 0.400776 0.083082
H7    H     H_    0.872469 0.091617 0.264420 0.115639
H8    H     H_    0.922438 0.075970 0.384232 0.085518
H9    H     H_    0.083574 0.101274 0.301392 0.140675
H10   H     H_    0.897617 0.710486 0.702891 0.043270
H11   H     H_    0.726255 0.604595 0.711639 0.003826
H12   H     H_    0.565743 0.002177 0.231296 0.097311
H13   H     H_    0.808582 0.639555 0.869552 0.061989
H14   H     H_    0.654551 0.723173 0.855937 0.141520
H15   H     H_    0.534208 0.814972 0.268658 -0.044298
H16   H     H_    0.515976 0.912258 0.128919 0.114336
H17   H     H_    0.364421 0.333652 0.300784 0.002123
H18   H     H_    0.571320 0.367116 0.260791 0.040175
H19   H     H_    0.285800 0.213154 0.163959 0.123311
H20   H     H_    0.374532 0.341699 0.129084 0.056452
H21   H     H_    0.722411 0.979494 0.148188 0.128341
H22   H     H_    0.163271 0.793525 0.052181 0.069861
H23   H     H_    0.143963 0.278638 0.801774 0.102195
H24   H     H_    0.932756 0.217611 0.787380 -0.082913
H25   H     H_    0.185653 0.148587 0.918597 0.151079
H26   H     H_    0.023583 0.222923 0.951203 0.069942
H27   H     H_    0.974810 0.087292 0.902420 0.102091
H28   H     H_    0.659528 0.177753 0.758854 -0.060797
H29   H     H_    0.470191 0.090206 0.742502 0.067950
H30   H     H_    0.673567 0.138297 0.924548 0.106890
H31   H     H_    0.645563 0.015888 0.852411 0.078265
H32   H     H_    0.058723 0.734642 0.202334 0.096203
H33   H     H_    0.474738 0.055680 0.913599 0.128639
H34   H     H_    0.382147 0.529273 0.291436 0.045360
H35   H     H_    0.693559 0.365924 0.977494 0.067871
H36   H     H_    0.825002 0.438850 0.700245 0.067849
H37   H     H_    0.895606 0.401854 0.103965 0.095652
H38   H     H_    0.280161 0.601766 0.894082 0.110835
H39   H     H_    0.333955 0.047805 0.402464 0.106506
H40   H     H_    0.823451 0.260180 0.529981 0.057278
H41   H     H_    0.270647 0.796629 0.214522 -0.067068
H42   H     H_    0.009485 0.871367 0.093569 0.146163
H43   H     H_    0.222922 0.927862 0.102908 0.107681
H44   H     H_    0.343394 0.730759 0.631742 0.035577
H45   H     H_    0.136026 0.750275 0.605729 0.056629
O1    O     O_2   0.887370 0.460630 0.272300 -0.458182
O2    O     O_3   0.667422 0.751742 0.694392 -0.646674
O3    O     O_3   0.098117 0.885667 0.269275 -0.604675
O4    O     O_2   0.302330 0.539400 0.727760 -0.438999
O5    O     O_3   0.060300 0.548700 0.611500 -0.511850
O6    O     O_3   0.519500 0.346920 0.670840 -0.459102
O7    O     O_3   0.183404 0.710112 0.739424 -0.649190
O8    O     O_3   0.614310 0.373510 0.452640 -0.481032
O9    O     O_3   0.100780 0.295230 0.623970 -0.486773
O10   O     O_2   0.187843 0.113168 0.563385 -0.470054
O11   O     O_3   0.107121 0.126183 0.737811 -0.596093
O12   O     O_3   0.129410 0.451380 0.388510 -0.505739
O13   O     O_3   0.575400 0.626570 0.547370 -0.492541
O14   O     O_2   0.344320 0.238700 0.455090 -0.466211
O15   O     O_3   0.511142 0.214390 0.302486 -0.651796
O16   O     O_2   0.416389 0.421674 0.832491 -0.491361
O17   O     O_3   0.451140 0.223602 0.826577 -0.588786
O18   O     O_3   0.670210 0.653170 0.329170 -0.496381
O19   O     O_2   0.792482 0.588670 0.169121 -0.489063
O20   O     O_3   0.013664 0.289318 0.262079 -0.643076
O21   O     O_3   0.717611 0.778688 0.176334 -0.598077
O22   O     O_2   0.845380 0.761330 0.544970 -0.478474
O23   O     O_3   0.088930 0.704860 0.376040 -0.494748
O24   O     O_2   0.004486 0.888853 0.442224 -0.475792
P1    P     P_3+3 0.054400 0.427280 0.286870 0.966491
P2    P     P_3+3 0.668300 0.742890 0.573060 0.961513
P3    P     P_3+3 0.132279 0.843666 0.379909 0.953856
P4    P     P_3+3 0.135310 0.572810 0.713130 0.953475
P5    P     P_3+3 0.059341 0.158003 0.625277 0.966411
P6    P     P_3+3 0.657154 0.648789 0.208568 0.944918
P7    P     P_3+3 0.526131 0.240624 0.423321 0.935095
P8    P     P_3+3 0.534903 0.348902 0.792113 0.965480
C41   C     C_3   0.896701 0.807819 0.871930 -0.444801
H46   H     H_    0.883231 0.819543 0.948250 0.133994
H47   H     H_    0.024758 0.797697 0.857964 0.162605
H48   H     H_    0.868584 0.879938 0.840725 0.139646
C42   C     C_3   0.524832 0.220084 0.103443 -0.393633
H49   H     H_    0.484532 0.214569 0.029418 0.133419
H50   H     H_    0.647787 0.268829 0.111234 0.118723
H51   H     H_    0.531992 0.138855 0.124300 0.150658
C43   C     C_3   0.528102 0.646053 0.000337 -0.404537
H52   H     H_    0.537780 0.587912 0.940632 0.125743
H53   H     H_    0.485143 0.718679 0.977412 0.100216
H54   H     H_    0.654016 0.669097 0.027755 0.157105
C44   C     C_3   0.797767 0.962742 0.680826 -0.357870
H55   H     H_    0.840518 0.026762 0.734534 0.088025
H56   H     H_    0.677943 0.929847 0.708063 0.114360
H57   H     H_    0.889003 0.907786 0.676088 0.140530
C45   C     C_3   0.380163 0.699094 0.425895 -0.247116
H58   H     H_    0.466039 0.645800 0.419274 0.159707
H59   H     H_    0.284912 0.661241 0.471919 0.125613
H60   H     H_    0.349319 0.695944 0.350972 0.044220

loop_
_geom_bond_atom_site_label_1
_geom_bond_atom_site_label_2
_ccdc_geom_bond_type
C32   P7    S    
C39   O2    S    
C9    C16   A    
C5    O11   S    
O20   P1    S    
C17   C18   A    
C4    C42   S    
C19   P4    S    
C43   H52   S    
Ba1   O12   S    
C5    C6    S    
C37   O20   S    
C2    O21   S    
C6    H27   S    
C15   C24   A    
C12   H32   S    
C4    H19   S    
C42   H50   S    
Ba2   O8    S    
C17   C19   A    
C7    O17   S    
Ba1   P1    S    
C21   P8    S    
C3    C4    S    
C40   H13   S    
C1    H12   S    
C13   C14   A    
C27   C31   A    
Ba1   Ba2   S    
C39   C40   S    
C17   C24   A    
C12   O3    S    
C36   H3    S    
Ba1   O22   S    
C18   C22   A    
C44   H55   S    
C2    H15   S    
C23   H42   S    
C21   C22   A    
C7    C8    S    
O23   P3    S    
C39   H10   S    
O15   P7    S    
C41   H48   S    
O22   P2    D    
O17   P8    S    
C40   H14   S    
Ba1   O1    S    
Ba2   O13   S    
C25   C32   A    
C19   C20   A    
O18   P6    S    
Ba1   P2    S    
C12   H41   S    
C45   H60   S    
Ba1   O13   S    
C41   H47   S    
C36   H2    S    
C31   C32   A    
C26   C29   A    
O8    P7    S    
O2    P2    S    
C9    C18   A    
C42   H49   S    
C3    H17   S    
C7    H28   S    
C20   H36   S    
C45   H59   S    
C37   C38   S    
C14   C15   A    
Ba2   O14   S    
C25   C33   A    
C24   H38   S    
C13   P6    S    
C23   H22   S    
C27   H39   S    
C27   C28   A    
Ba1   O23   S    
C5    H23   S    
Ba2   P4    S    
C22   H35   S    
O11   P5    S    
C29   C30   A    
C11   H34   S    
Ba1   O8    S    
C23   H43   S    
C15   C16   A    
C33   P5    S    
C30   C35   A    
O10   P5    D    
Ba2   O5    S    
C14   C43   S    
C39   H11   S    
C9    H37   S    
C42   H51   S    
Ba2   O12   S    
C6    H26   S    
Ba1   O5    S    
C11   C13   A    
O19   P6    D    
O14   P7    D    
C1    C2    S    
C43   H54   S    
C10   P1    S    
C41   H46   S    
C37   H5    S    
C28   P3    S    
C3    O15   S    
C3    H18   S    
C33   C35   A    
C26   C45   S    
O21   P6    S    
C25   H40   S    
Ba2   O6    S    
O16   P8    D    
O13   P2    S    
C7    H29   S    
C45   H58   S    
C43   H53   S    
O7    P4    S    
C2    H1    S    
C1    H21   S    
C38   H9    S    
C35   C44   S    
C34   H44   S    
C30   C31   A    
C4    H20   S    
C34   C36   S    
C26   C28   A    
C5    H24   S    
C40   C41   S    
C44   H57   S    
C38   H8    S    
O12   P1    S    
Ba2   O9    S    
C8    H31   S    
O4    P4    D    
O24   P3    D    
O3    P3    S    
C12   C23   S    
Ba2   O4    S    
O5    P4    S    
C36   H4    S    
O1    P1    D    
C1    H16   S    
C34   O7    S    
C34   H45   S    
C10   C11   A    
C6    H25   S    
C44   H56   S    
C10   C16   A    
C20   C21   A    
O9    P5    S    
O6    P8    S    
C29   P2    S    
C38   H7    S    
Ba1   O18   S    
C37   H6    S    
C8    H33   S    
C8    H30   S    
