data_mof_unit_59051.cif
_audit_creation_date              2012-12-10T19:44:34-0500
_audit_creation_method            fapswitch 2.2
_symmetry_space_group_name_H-M    P1
_symmetry_Int_Tables_number       1
_space_group_crystal_system       triclinic
_cell_length_a                    8.63315
_cell_length_b                    14.934561
_cell_length_c                    14.176713
_cell_angle_alpha                 90.19355
_cell_angle_beta                  97.819239
_cell_angle_gamma                 90.016312
_cell_volume                      1810.8306139

loop_
_atom_site_label
_atom_site_type_symbol
_atom_type_description
_atom_site_fract_x
_atom_site_fract_y
_atom_site_fract_z
_atom_type_partial_charge
C1    C     C_R   0.501284 0.327774 0.499945 0.866319
C2    C     C_R   0.501522 0.672259 0.500281 0.866966
C3    C     C_R   0.482137 0.420073 0.103277 -0.276371
C4    C     C_R   0.589637 0.562333 0.902257 -0.277896
C5    C     C_R   0.481811 0.421614 0.202470 0.018186
C6    C     C_R   0.587461 0.561307 0.802852 0.030549
C7    C     C_R   0.518886 0.578285 0.206066 0.007982
C8    C     C_R   0.413565 0.438354 0.788129 0.015703
C9    C     C_R   0.519073 0.579764 0.106873 -0.276922
C10   C     C_R   0.411591 0.437362 0.887157 -0.275842
C11   C     C_R   0.500615 0.499912 0.053229 0.141014
C12   C     C_R   0.500558 0.499902 0.946544 0.136480
C13   C     C_R   0.201933 0.501892 0.476109 0.966728
C14   C     C_R   0.798027 0.498266 0.523850 0.961782
C15   C     C_2   0.040433 0.518588 0.467167 -0.018968
C16   C     C_2   0.959379 0.481492 0.532618 -0.011594
C17   C     C_R   0.446309 0.091022 0.564001 -0.216141
C18   C     C_R   0.450591 0.908951 0.425860 -0.217824
C19   C     C_R   0.434772 0.183105 0.563299 -0.207537
C20   C     C_R   0.439135 0.816856 0.424579 -0.211590
C21   C     C_R   0.512474 0.232081 0.500500 -0.061119
C22   C     C_R   0.512863 0.768026 0.501578 -0.061403
C23   C     C_R   0.605091 0.189845 0.439987 -0.203877
C24   C     C_R   0.601640 0.810512 0.578867 -0.199452
C25   C     C_R   0.620484 0.097216 0.441648 0.218179
C26   C     C_R   0.616854 0.903164 0.579942 0.218965
C27   C     C_R   0.538583 0.048313 0.503737 0.105544
C28   C     C_R   0.538811 0.951870 0.502905 0.106279
H1    H     H_    0.382301 0.052713 0.610805 0.147911
H2    H     H_    0.389524 0.947107 0.367350 0.147171
H3    H     H_    0.363108 0.215984 0.610152 0.148428
H4    H     H_    0.370496 0.783876 0.364692 0.150851
H5    H     H_    0.666977 0.229285 0.392968 0.148799
H6    H     H_    0.660636 0.771277 0.637221 0.144170
H7    H     H_    0.470209 0.356306 0.066556 0.133593
H8    H     H_    0.662686 0.610976 0.943968 0.134078
H9    H     H_    0.467406 0.359548 0.239267 0.132418
H10   H     H_    0.656664 0.609450 0.769874 0.120420
H11   H     H_    0.533528 0.640357 0.245657 0.133882
H12   H     H_    0.345629 0.389574 0.743590 0.122300
H13   H     H_    0.531350 0.643494 0.072581 0.133621
H14   H     H_    0.339017 0.388520 0.916505 0.135039
N1    N     N_R   0.500000 0.499980 0.252470 -0.091791
N2    N     N_R   0.500000 0.500020 0.747530 -0.091652
O1    O     O_R   0.500010 0.369070 0.579480 -0.625635
O2    O     O_R   0.499990 0.630930 0.420520 -0.637077
O3    O     O_R   0.500010 0.369060 0.420520 -0.636768
O4    O     O_R   0.499990 0.630940 0.579480 -0.626735
O5    O     O_R   0.271750 0.500000 0.560890 -0.621787
O6    O     O_R   0.728250 0.500000 0.439110 -0.619758
O7    O     O_R   0.271750 0.499990 0.401930 -0.615916
O8    O     O_R   0.728250 0.500010 0.598070 -0.623585
Zn1   Zn    Zn3+2 0.500000 0.500010 0.606140 0.937595
Zn2   Zn    Zn3+2 0.500000 0.499990 0.393860 0.934069
C29   C     C_3   0.977454 0.589834 0.395167 -0.895969
H15   H     H_    0.073589 0.627176 0.368050 0.233498
H16   H     H_    0.905907 0.558382 0.332789 0.270124
H17   H     H_    0.907106 0.640155 0.428615 0.234023
C30   C     C_3   0.022102 0.410419 0.604737 -0.914941
H18   H     H_    0.925866 0.371740 0.630099 0.240958
H19   H     H_    0.095837 0.361101 0.572439 0.230380
H20   H     H_    0.089693 0.442677 0.667946 0.262570
C31   C     C_3   0.724662 0.051978 0.378828 -0.940750
H21   H     H_    0.814338 0.011325 0.423144 0.248961
H22   H     H_    0.654220 0.007799 0.326419 0.243841
H23   H     H_    0.786094 0.101416 0.338745 0.238563
C32   C     C_3   0.716727 0.948647 0.661763 -0.939551
H24   H     H_    0.808294 0.989481 0.634321 0.248144
H25   H     H_    0.643508 0.992686 0.700762 0.245363
H26   H     H_    0.775727 0.899357 0.713099 0.237003

loop_
_geom_bond_atom_site_label_1
_geom_bond_atom_site_label_2
_ccdc_geom_bond_type
C2    C22   S    
C11   C12   S    
C6    H10   S    
C18   C28   A    
C1    C21   S    
C18   H2    S    
C5    H9    S    
C10   H14   S    
C20   C22   A    
C17   H1    S    
N1    Zn2   S    
C26   C28   A    
C13   C15   S    
C3    H7    S    
C29   H15   S    
O7    Zn2   S    
C19   H3    S    
O2    Zn2   S    
C31   H22   S    
C5    N1    A    
C31   H23   S    
O1    Zn1   S    
C30   H18   S    
C6    N2    A    
C4    H8    S    
C2    O2    A    
C9    C11   A    
C1    O1    A    
O6    Zn2   S    
C10   C12   A    
O3    Zn2   S    
C13   O5    A    
C26   C32   S    
C8    C10   A    
C19   C21   A    
C24   C26   A    
C22   C24   A    
C29   H16   S    
C21   C23   A    
C20   H4    S    
O4    Zn1   S    
C14   C16   S    
C30   H19   S    
O5    Zn1   S    
C4    C12   A    
C14   O8    A    
C14   O6    A    
C25   C27   A    
C32   H24   S    
C17   C27   A    
C8    N2    A    
C23   C25   A    
C3    C11   A    
O8    Zn1   S    
C18   C20   A    
C4    C6    A    
C2    O4    A    
C25   C31   S    
C29   H17   S    
C32   H25   S    
C27   C28   S    
C7    C9    A    
C3    C5    A    
C7    H11   S    
C1    O3    A    
C30   H20   S    
C8    H12   S    
C32   H26   S    
C17   C19   A    
C13   O7    A    
C9    H13   S    
N2    Zn1   S    
C15   C16   D    
C24   H6    S    
C31   H21   S    
C7    N1    A    
C23   H5    S    
C16   C30   S    
C15   C29   S    
