data_mof_unit_42761.cif
_audit_creation_date              2013-03-05T15:55:31-0500
_audit_creation_method            fapswitch 2.2
_symmetry_space_group_name_H-M    P1
_symmetry_Int_Tables_number       1
_space_group_crystal_system       triclinic
_cell_length_a                    20.118341
_cell_length_b                    7.260115
_cell_length_c                    13.660314
_cell_angle_alpha                 89.960948
_cell_angle_beta                  103.065598
_cell_angle_gamma                 90.114668
_cell_volume                      1943.58843064

loop_
_atom_site_label
_atom_site_type_symbol
_atom_site_description
_atom_site_fract_x
_atom_site_fract_y
_atom_site_fract_z
_atom_type_partial_charge
O1    O     O_R   0.449560 0.506810 0.599700 -0.581588
O2    O     O_R   0.550440 0.006810 0.400300 -0.592205
O3    O     O_R   0.587960 0.180060 0.595760 -0.593950
O4    O     O_R   0.412040 0.680060 0.404240 -0.591592
C1    C     C_R   0.615349 0.345070 0.616417 0.982245
C2    C     C_R   0.384451 0.844121 0.384209 0.989468
O5    O     O_R   0.452380 0.177430 0.611700 -0.567984
O6    O     O_R   0.547620 0.677430 0.388300 -0.564450
O7    O     O_R   0.413900 0.001890 0.416350 -0.573871
O8    O     O_R   0.586100 0.501890 0.583650 -0.565947
C3    C     C_R   0.436443 0.345652 0.637539 1.003981
C4    C     C_R   0.564465 0.845511 0.363379 1.013520
O9    O     O_3   0.487530 0.337490 0.435890 -0.289598
O10   O     O_3   0.512470 0.837490 0.564110 -0.284583
V1    V     V_3+5 0.502310 0.064660 0.511890 1.271626
V2    V     V_3+5 0.497690 0.564660 0.488110 1.278512
C5    C     C_R   0.606409 0.846249 0.109266 0.848367
C6    C     C_R   0.394372 0.346975 0.891567 0.848379
H1    H     H_    0.514213 0.850510 0.163307 0.163804
H2    H     H_    0.486670 0.331583 0.838067 0.164593
H3    H     H_    0.688636 0.857018 0.981410 0.206182
H4    H     H_    0.311393 0.330498 0.017884 0.207862
C7    C     C_R   0.603537 0.851113 0.285102 -0.224559
C8    C     C_R   0.397937 0.354381 0.716176 -0.224957
C9    C     C_R   0.929802 0.842151 0.311823 -0.247007
C10   C     C_R   0.071375 0.394207 0.688036 -0.241760
C11   C     C_R   0.895343 0.792075 0.384701 -0.145754
C12   C     C_R   0.106828 0.443307 0.615983 -0.145384
C13   C     C_R   0.824752 0.761773 0.359546 0.348427
C14   C     C_R   0.177873 0.462962 0.641109 0.354483
C15   C     C_R   0.786300 0.812070 0.262020 -0.067515
C16   C     C_R   0.215381 0.406107 0.738267 -0.063355
C17   C     C_R   0.822556 0.843101 0.185084 -0.099822
C18   C     C_R   0.178334 0.371337 0.814334 -0.101783
C19   C     C_R   0.713525 0.828266 0.237433 0.039072
C20   C     C_R   0.288025 0.384650 0.763228 0.034307
C21   C     C_R   0.678198 0.839583 0.135075 -0.147517
C22   C     C_R   0.322736 0.362272 0.865353 -0.146838
C23   C     C_R   0.714865 0.848390 0.059848 -0.267516
C24   C     C_R   0.285591 0.348566 0.939772 -0.269897
C25   C     C_R   0.785672 0.855750 0.083949 0.665661
C26   C     C_R   0.214779 0.346461 0.915034 0.662617
C27   C     C_R   0.674985 0.845708 0.311481 -0.065678
C28   C     C_R   0.326974 0.371281 0.689493 -0.046203
C29   C     C_R   0.569476 0.848458 0.184101 -0.303269
C30   C     C_R   0.431629 0.344632 0.817128 -0.301528
C31   C     C_R   0.894820 0.856665 0.211746 -0.146288
C32   C     C_R   0.105820 0.367516 0.787713 -0.146275
H5    H     H_    0.699859 0.859797 0.389811 0.180658
H6    H     H_    0.303105 0.365923 0.610581 0.193146
H7    H     H_    0.984948 0.853859 0.332232 0.138769
H8    H     H_    0.016072 0.392563 0.667587 0.140887
H9    H     H_    0.925006 0.760536 0.459317 0.164969
H10   H     H_    0.077968 0.481620 0.541906 0.161914
C33   C     C_R   0.204925 0.003164 0.254180 -0.183725
C34   C     C_R   0.792844 0.511858 0.753872 -0.159488
H11   H     H_    0.170844 0.116897 0.258143 0.174286
H12   H     H_    0.825513 0.631048 0.755217 0.189654
C35   C     C_R   0.269005 0.998632 0.321618 0.395183
C36   C     C_R   0.728348 0.511282 0.687622 0.414475
C37   C     C_R   0.314371 0.850690 0.318040 -0.281647
C38   C     C_R   0.685016 0.354807 0.683729 -0.320963
C39   C     C_R   0.292017 0.706177 0.249647 -0.079479
C40   C     C_R   0.708891 0.204311 0.746936 -0.079027
H13   H     H_    0.325122 0.590542 0.245112 0.158476
H14   H     H_    0.676714 0.085020 0.748171 0.176474
C41   C     C_R   0.227057 0.709127 0.185395 -0.078049
C42   C     C_R   0.774132 0.205183 0.810141 -0.073690
H15   H     H_    0.211824 0.595792 0.133666 0.179891
H16   H     H_    0.790688 0.085989 0.856622 0.204966
C43   C     C_R   0.183013 0.858510 0.186241 -0.169238
C44   C     C_R   0.816783 0.359256 0.814595 -0.208686
O11   O     O_R   0.913920 0.203370 0.916260 -0.575070
O12   O     O_R   0.086080 0.703370 0.083740 -0.583210
O13   O     O_R   0.047620 0.535540 0.888290 -0.601241
O14   O     O_R   0.952380 0.035540 0.111710 -0.593374
C45   C     C_R   0.064466 0.368972 0.863321 1.045226
C46   C     C_R   0.935814 0.868121 0.136611 1.053880
O15   O     O_R   0.912040 0.532780 0.904220 -0.580471
O16   O     O_R   0.087960 0.032780 0.095780 -0.568366
O17   O     O_R   0.949550 0.708160 0.099720 -0.581696
O18   O     O_R   0.050450 0.208160 0.900280 -0.568384
C47   C     C_R   0.885550 0.364725 0.883209 0.934534
C48   C     C_R   0.114425 0.864823 0.116987 0.927553
O19   O     O_3   0.012480 0.375300 0.064060 -0.281782
O20   O     O_3   0.987520 0.875300 0.935940 -0.281299
V3    V     V_3+5 0.997690 0.648180 0.988110 1.243234
V4    V     V_3+5 0.002310 0.148180 0.011890 1.254300
N1    N     N_R   0.284854 0.137959 0.397678 0.229091
O21   O     O_R   0.269272 0.309050 0.375291 -0.385977
O22   O     O_R   0.303161 0.089918 0.491675 -0.391069
N2    N     N_R   0.709603 0.668138 0.623157 0.246512
O23   O     O_R   0.731062 0.831390 0.654605 -0.423303
O24   O     O_R   0.684812 0.644510 0.527648 -0.363275
F1    F     F_    0.571902 0.851393 0.011570 -0.690604
F2    F     F_    0.428286 0.330193 0.989129 -0.690988
N3    N     N_R   0.796437 0.647193 0.425603 0.239111
O25   O     O_R   0.754873 0.514516 0.387835 -0.367056
O26   O     O_R   0.824718 0.643772 0.521237 -0.391503
N4    N     N_R   0.208639 0.567761 0.573561 0.223097
O27   O     O_R   0.185133 0.554912 0.476886 -0.364575
O28   O     O_R   0.251309 0.699775 0.608412 -0.373966
F3    F     F_    0.817292 0.872946 0.006631 -0.731838
F4    F     F_    0.182843 0.318869 0.991348 -0.721680

loop_
_geom_bond_atom_site_label_1
_geom_bond_atom_site_label_2
_geom_bond_distance
_ccdc_geom_bond_type
C22   C24   1.394572 A    
C39   H13   1.083128 S    
C7    C29   1.395006 A    
C33   C35   1.405317 A    
C11   C13   1.400575 A    
C6    F2    1.358501 S    
O1    C3    1.328679 A    
O16   C48   1.336669 A    
O2    C4    1.331095 A    
C2    O7    1.317619 A    
O15   V3    2.021657 S    
N3    O25   1.302176 A    
C23   C25   1.388591 A    
O5    C3    1.331287 A    
C4    C7    1.463827 S    
C16   C20   1.432462 A    
C2    C37   1.493705 S    
C19   C21   1.420466 A    
C5    C29   1.393154 A    
O18   V4    2.029071 S    
C14   N4    1.438341 S    
C3    C8    1.461026 S    
C7    C27   1.401280 A    
C36   C38   1.424252 A    
C35   N1    1.433432 S    
C37   C39   1.409026 A    
N4    O27   1.301530 A    
C38   C40   1.408309 A    
C34   C44   1.402764 A    
C18   C26   1.416563 A    
C15   C17   1.425823 A    
C5    F1    1.358493 S    
O12   V3    1.994197 S    
N1    O22   1.300823 A    
C19   C27   1.412629 A    
C9    C31   1.392996 A    
C10   C32   1.394751 A    
C24   C26   1.387883 A    
O6    V2    2.037823 S    
C13   C15   1.428675 A    
C6    C30   1.393106 A    
N4    O28   1.301819 A    
N3    O26   1.301904 A    
C36   N2    1.436929 S    
C39   C41   1.400089 A    
C35   C37   1.418858 A    
O14   C46   1.324097 A    
C14   C16   1.431416 A    
O4    C2    1.317267 A    
C12   H10   1.083080 S    
O20   V3    1.789552 S    
C27   H5    1.078727 S    
O5    V1    2.040184 S    
H1    C29   1.083640 S    
C25   F3    1.356116 S    
C41   H15   1.082672 S    
C16   C18   1.431078 A    
C32   C45   1.465464 S    
O4    V2    2.023764 S    
C9    H7    1.084251 S    
O11   V4    1.995272 S    
C10   H8    1.084209 S    
H3    C23   1.083905 S    
C42   C44   1.401382 A    
H4    C24   1.083915 S    
N2    O24   1.298503 A    
O1    V2    2.025466 S    
C5    C21   1.408056 A    
O2    V1    2.026700 S    
O13   C45   1.322151 A    
O17   V3    2.030350 S    
O13   V3    2.039911 S    
C33   H11   1.083502 S    
C8    C28   1.396946 A    
C15   C19   1.431284 A    
C20   C28   1.412535 A    
C18   C32   1.421723 A    
C40   C42   1.398520 A    
O3    V1    2.021553 S    
C43   C48   1.486979 S    
O19   V4    1.789693 S    
C28   H6    1.077064 S    
O14   V4    2.037552 S    
O12   C48   1.336555 A    
O3    C1    1.321342 A    
C26   F4    1.357100 S    
C11   H9    1.082916 S    
C9    C11   1.383622 A    
C10   C12   1.385819 A    
C13   N3    1.435358 S    
C8    C30   1.394150 A    
C20   C22   1.421248 A    
C6    C22   1.408867 A    
C17   C25   1.415730 A    
C1    O8    1.313688 A    
O16   V4    2.023864 S    
O8    V2    2.006861 S    
O15   C47   1.335575 A    
C46   O17   1.320634 A    
C45   O18   1.326548 A    
C17   C31   1.419871 A    
C12   C14   1.399493 A    
N2    O23   1.300186 A    
C34   H12   1.083233 S    
C1    C38   1.493966 S    
C41   C43   1.403573 A    
O7    V1    2.005652 S    
C33   C43   1.404663 A    
C44   C47   1.485805 S    
C34   C36   1.404183 A    
C21   C23   1.395250 A    
O9    V2    1.790278 S    
C42   H16   1.080619 S    
O10   V1    1.790136 S    
C31   C46   1.457006 S    
N1    O21   1.300928 A    
O11   C47   1.336921 A    
H2    C30   1.083590 S    
O6    C4    1.330332 A    
C40   H14   1.082636 S    
