data_mof_unit_41201.cif
_audit_creation_date              2012-12-11T15:12:52-0500
_audit_creation_method            fapswitch 2.2
_symmetry_space_group_name_H-M    P1
_symmetry_Int_Tables_number       1
_space_group_crystal_system       triclinic
_cell_length_a                    22.420261
_cell_length_b                    6.935917
_cell_length_c                    19.23127
_cell_angle_alpha                 90.004465
_cell_angle_beta                  99.368317
_cell_angle_gamma                 90.00821
_cell_volume                      2950.67281509

loop_
_atom_site_label
_atom_site_type_symbol
_atom_type_description
_atom_site_fract_x
_atom_site_fract_y
_atom_site_fract_z
_atom_type_partial_charge
O1    O     O_R   0.448420 0.506120 0.415750 -0.531031
O2    O     O_R   0.551580 0.006120 0.584250 -0.530552
O3    O     O_R   0.436490 0.174470 0.555610 -0.531115
O4    O     O_R   0.563510 0.674470 0.444390 -0.531417
C1    C     C_R   0.421252 0.344311 0.576005 0.713809
C2    C     C_R   0.578719 0.844316 0.423965 0.713335
O5    O     O_R   0.441310 0.176330 0.414520 -0.543415
O6    O     O_R   0.558690 0.676330 0.585480 -0.543524
O7    O     O_R   0.556430 0.007110 0.442150 -0.535585
O8    O     O_R   0.443570 0.507110 0.557850 -0.535713
C3    C     C_R   0.426794 0.345966 0.387976 0.824956
C4    C     C_R   0.573264 0.846029 0.611985 0.824649
O9    O     O_3   0.537770 0.339560 0.509230 -0.373454
O10   O     O_3   0.462230 0.839560 0.490770 -0.373457
V1    V     V_3+5 0.492990 0.064280 0.498290 1.510026
V2    V     V_3+5 0.507010 0.564280 0.501710 1.509172
C5    C     C_R   0.868452 0.784015 0.701643 0.322429
C6    C     C_R   0.131530 0.289244 0.298986 0.323017
H1    H     H_    0.785313 0.735278 0.586248 0.170065
H2    H     H_    0.214660 0.244046 0.414606 0.169460
C7    C     C_R   0.886077 0.925598 0.819133 -0.252308
C8    C     C_R   0.114030 0.426063 0.180786 -0.252007
C9    C     C_R   0.589453 0.899424 0.740605 0.477545
C10   C     C_R   0.410655 0.396040 0.259176 0.477085
C11   C     C_R   0.625891 0.919441 0.806048 0.540296
C12   C     C_R   0.374217 0.414798 0.193681 0.540417
C13   C     C_R   0.688928 0.908343 0.812979 0.207905
C14   C     C_R   0.311158 0.405120 0.186842 0.207803
C15   C     C_R   0.717224 0.889840 0.751981 -0.065341
C16   C     C_R   0.282864 0.389483 0.247943 -0.065512
C17   C     C_R   0.678987 0.853216 0.685810 -0.073948
C18   C     C_R   0.321075 0.354529 0.314258 -0.073864
C19   C     C_R   0.781863 0.892219 0.754815 0.098595
C20   C     C_R   0.218233 0.393119 0.245152 0.098652
C21   C     C_R   0.805995 0.821311 0.695898 -0.053183
C22   C     C_R   0.194041 0.325359 0.304473 -0.054007
C23   C     C_R   0.767458 0.782709 0.632442 -0.132494
C24   C     C_R   0.232549 0.288830 0.368119 -0.133534
C25   C     C_R   0.705382 0.805532 0.626753 -0.116165
C26   C     C_R   0.294653 0.310146 0.373600 -0.115080
C27   C     C_R   0.823636 0.959689 0.813799 -0.308437
C28   C     C_R   0.176512 0.459079 0.185886 -0.308217
C29   C     C_R   0.907604 0.831604 0.763620 0.498504
C30   C     C_R   0.092427 0.334546 0.236741 0.500055
C31   C     C_R   0.614936 0.861134 0.680306 -0.321608
C32   C     C_R   0.385129 0.360733 0.319655 -0.321658
H3    H     H_    0.809003 0.036413 0.856717 0.205077
H4    H     H_    0.191199 0.533984 0.142613 0.204869
H5    H     H_    0.677952 0.776400 0.576117 0.095871
H6    H     H_    0.322066 0.282503 0.424364 0.094877
C33   C     C_3   0.789173 0.697903 0.234884 0.265711
C34   C     C_3   0.210644 0.197864 0.764933 0.265564
C35   C     C_3   0.807165 0.047017 0.275706 0.291802
C36   C     C_3   0.192651 0.546928 0.724104 0.292107
C37   C     C_3   0.759672 0.014514 0.325860 -0.401946
C38   C     C_3   0.240133 0.514409 0.673932 -0.402085
H7    H     H_    0.803483 0.198804 0.256471 0.097288
H8    H     H_    0.196355 0.698725 0.743334 0.097204
H9    H     H_    0.781473 0.953409 0.377161 0.220233
H10   H     H_    0.218313 0.453254 0.622639 0.220121
H11   H     H_    0.739988 0.156122 0.337300 0.167987
H12   H     H_    0.259816 0.656018 0.662475 0.167932
C39   C     C_1   0.624317 0.852098 0.378350 -0.137563
C40   C     C_1   0.375585 0.352076 0.621540 -0.137864
C41   C     C_3   0.792219 0.913085 0.209357 -0.021429
C42   C     C_3   0.207612 0.413057 0.790457 -0.021779
C43   C     C_3   0.738082 0.676707 0.281329 0.494895
C44   C     C_3   0.261733 0.176660 0.718484 0.494802
C45   C     C_3   0.708961 0.875292 0.292963 -0.033105
C46   C     C_3   0.290857 0.375257 0.706835 -0.032808
C47   C     C_3   0.680474 0.956284 0.220080 -0.532752
C48   C     C_3   0.319350 0.456306 0.779717 -0.533152
C49   C     C_3   0.728109 0.970012 0.169156 0.778929
C50   C     C_3   0.271722 0.470077 0.830643 0.779450
C51   C     C_1   0.662284 0.859727 0.339889 0.095816
C52   C     C_1   0.337562 0.359699 0.659936 0.095637
C53   C     C_1   0.837939 0.934503 0.161022 0.078522
C54   C     C_1   0.161926 0.434473 0.838825 0.078971
C55   C     C_1   0.875435 0.943718 0.121852 -0.192138
C56   C     C_1   0.124484 0.443718 0.878057 -0.191395
H13   H     H_    0.642238 0.862587 0.196269 0.200729
H14   H     H_    0.357578 0.362633 0.803534 0.200797
H15   H     H_    0.775898 0.601697 0.188383 0.053548
H16   H     H_    0.223907 0.101685 0.811437 0.053344
H17   H     H_    0.702389 0.578655 0.254157 0.040364
H18   H     H_    0.297425 0.078656 0.745662 0.040430
H19   H     H_    0.661036 0.101235 0.227363 0.193916
H20   H     H_    0.338799 0.601251 0.772426 0.193762
O11   O     O_R   0.056480 0.288780 0.942210 -0.544772
O12   O     O_R   0.943520 0.788780 0.057790 -0.544676
O13   O     O_R   0.058700 0.616820 0.085490 -0.548812
O14   O     O_R   0.941300 0.116820 0.914510 -0.548932
C57   C     C_R   0.072750 0.447031 0.112550 0.787772
C58   C     C_R   0.927288 0.946986 0.887416 0.787770
O15   O     O_R   0.063520 0.618570 0.944410 -0.526112
O16   O     O_R   0.936480 0.118570 0.055590 -0.526196
O17   O     O_R   0.948420 0.787670 0.915740 -0.518710
O18   O     O_R   0.051580 0.287670 0.084260 -0.519095
C59   C     C_R   0.078962 0.450395 0.923944 0.734317
C60   C     C_R   0.921019 0.950388 0.076035 0.734008
O19   O     O_3   0.962260 0.453430 0.990800 -0.370910
O20   O     O_3   0.037740 0.953430 0.009200 -0.370960
V3    V     V_3+5 0.007000 0.728750 0.001710 1.459051
V4    V     V_3+5 0.993000 0.228750 0.998290 1.458641
F1    F     F_    0.966726 0.780785 0.770340 -0.728721
F2    F     F_    0.033279 0.284233 0.230281 -0.728520
O21   O     O_3   0.845355 0.639083 0.274834 -0.497336
C61   C     C_3   0.884887 0.554898 0.232722 0.153940
H21   H     H_    0.870926 0.573983 0.174938 0.087808
H22   H     H_    0.887348 0.397364 0.242019 0.138810
C62   C     C_3   0.947927 0.639777 0.253852 -0.601565
H23   H     H_    0.967758 0.591235 0.307692 0.221120
H24   H     H_    0.977414 0.593506 0.215944 0.201804
H25   H     H_    0.946057 0.799575 0.253204 0.236311
O22   O     O_3   0.154456 0.139051 0.724981 -0.497278
C63   C     C_3   0.114941 0.054653 0.767071 0.154907
H26   H     H_    0.128830 0.074043 0.824851 0.087876
H27   H     H_    0.112603 0.897080 0.757841 0.138581
C64   C     C_3   0.051851 0.138971 0.745822 -0.604702
H28   H     H_    0.032243 0.091035 0.691828 0.220596
H29   H     H_    0.022247 0.091631 0.783453 0.201674
H30   H     H_    0.053585 0.298784 0.746796 0.236280
O23   O     O_3   0.866911 0.011271 0.310793 -0.518000
C65   C     C_3   0.885465 0.148035 0.364766 0.087469
H31   H     H_    0.871447 0.099429 0.414718 0.144279
H32   H     H_    0.866728 0.294835 0.352269 0.167328
C66   C     C_3   0.953954 0.161332 0.377128 -0.647742
H33   H     H_    0.969504 0.264330 0.420519 0.184776
H34   H     H_    0.973532 0.017112 0.391566 0.223790
H35   H     H_    0.969742 0.211698 0.328514 0.272904
O24   O     O_3   0.132888 0.511153 0.689041 -0.517806
C67   C     C_3   0.114315 0.647931 0.635089 0.086464
H36   H     H_    0.128211 0.599147 0.585091 0.144286
H37   H     H_    0.133169 0.794648 0.647521 0.167150
C68   C     C_3   0.045827 0.661670 0.622895 -0.645464
H38   H     H_    0.030298 0.765164 0.579674 0.184128
H39   H     H_    0.026097 0.517730 0.608276 0.224016
H40   H     H_    0.030154 0.711655 0.671627 0.272431
F3    F     F_    0.712454 0.840293 0.113893 -0.751653
F4    F     F_    0.287368 0.340466 0.885933 -0.751175
O25   O     O_3   0.730322 0.161844 0.143372 -0.587895
C69   C     C_3   0.683617 0.197367 0.085924 0.133110
H41   H     H_    0.639327 0.138268 0.095031 0.171754
H42   H     H_    0.695727 0.132844 0.037113 0.206993
C70   C     C_3   0.676532 0.413562 0.075125 -0.651611
H43   H     H_    0.720148 0.477340 0.066678 0.240354
H44   H     H_    0.641759 0.443736 0.028336 0.217522
H45   H     H_    0.662357 0.480690 0.122265 0.241224
O26   O     O_3   0.269516 0.661951 0.856396 -0.587820
C71   C     C_3   0.316225 0.697589 0.913834 0.132790
H46   H     H_    0.360517 0.638575 0.904719 0.171631
H47   H     H_    0.304127 0.633069 0.962652 0.206988
C72   C     C_3   0.323286 0.913799 0.924624 -0.651932
H48   H     H_    0.279654 0.977469 0.933044 0.240449
H49   H     H_    0.358041 0.944074 0.971426 0.217783
H50   H     H_    0.337470 0.980930 0.877490 0.241265
O27   O     O_3   0.891009 0.693950 0.647141 -0.544213
C73   C     C_3   0.894902 0.493115 0.660417 0.125496
H51   H     H_    0.858302 0.437906 0.688240 0.101227
H52   H     H_    0.939353 0.459040 0.692868 0.166875
C74   C     C_3   0.889698 0.385129 0.590760 -0.717307
H53   H     H_    0.924388 0.436503 0.560040 0.228483
H54   H     H_    0.896160 0.228235 0.600884 0.189454
H55   H     H_    0.844223 0.408840 0.559209 0.228574
O28   O     O_3   0.108779 0.203474 0.354170 -0.544102
C75   C     C_3   0.105718 0.001545 0.343287 0.123286
H56   H     H_    0.142897 0.944612 0.316770 0.101587
H57   H     H_    0.061670 0.963804 0.310628 0.165817
C76   C     C_3   0.110493 0.899990 0.414165 -0.716080
H58   H     H_    0.075502 0.954526 0.443868 0.229335
H59   H     H_    0.104213 0.742292 0.405906 0.188955
H60   H     H_    0.155775 0.926263 0.445838 0.229370
F5    F     F_    0.528486 0.911883 0.736285 -0.639586
F6    F     F_    0.471645 0.406779 0.263390 -0.639684
O29   O     O_3   0.721510 0.906386 0.880453 -0.538074
C77   C     C_3   0.732235 0.712893 0.902123 0.150140
H61   H     H_    0.747518 0.622010 0.860476 0.102925
H62   H     H_    0.690371 0.649325 0.916636 0.168561
C78   C     C_3   0.781822 0.707795 0.966331 -0.688337
H63   H     H_    0.768353 0.795003 0.009530 0.270795
H64   H     H_    0.790093 0.556839 0.984548 0.173167
H65   H     H_    0.824431 0.767184 0.952794 0.195940
O30   O     O_3   0.278536 0.401913 0.119396 -0.537683
C79   C     C_3   0.267463 0.208035 0.098406 0.150485
H66   H     H_    0.251830 0.118964 0.140304 0.102772
H67   H     H_    0.309263 0.142865 0.084335 0.167876
C80   C     C_3   0.218052 0.202205 0.034024 -0.689668
H68   H     H_    0.231856 0.287718 0.990598 0.270977
H69   H     H_    0.209552 0.050889 0.016318 0.173032
H70   H     H_    0.175486 0.263083 0.047140 0.196719
F7    F     F_    0.599665 0.944935 0.864212 -0.610353
F8    F     F_    0.400454 0.437566 0.135388 -0.609947
F9    F     F_    0.760544 0.592452 0.345759 -0.666890
F10   F     F_    0.239267 0.092336 0.654060 -0.667359

loop_
_geom_bond_atom_site_label_1
_geom_bond_atom_site_label_2
_ccdc_geom_bond_type
C68   H40   S    
C73   H52   S    
O28   C75   S    
C9    C31   A    
C37   H9    S    
C13   C15   A    
C48   C50   S    
C44   H18   S    
C76   H58   S    
C35   C37   S    
C62   H23   S    
O1    C3    A    
C10   F6    S    
C74   H55   S    
C2    O7    A    
C5    C29   A    
C74   H53   S    
O3    V1    S    
O23   C65   S    
C49   O25   S    
C61   H21   S    
O5    C3    A    
C36   O24   S    
O27   C73   S    
O11   C59   A    
C61   C62   S    
C21   C23   A    
C14   O30   S    
C10   C12   A    
C38   H12   S    
C33   C41   S    
O15   C59   A    
C64   H30   S    
C7    C58   S    
O22   C63   S    
C42   C50   S    
C15   C19   A    
C41   C49   S    
C79   H66   S    
C45   C47   S    
C29   F1    S    
C34   H16   S    
C80   H70   S    
H1    C23   S    
C73   C74   S    
C48   H20   S    
C7    C29   A    
O25   C69   S    
C77   C78   S    
C8    C30   A    
C17   C25   A    
C67   H36   S    
C71   C72   S    
C20   C28   A    
O21   C61   S    
C50   O26   S    
O10   V2    S    
C72   H49   S    
C35   C41   S    
C34   C44   S    
C78   H65   S    
O6    V2    S    
C53   C55   T    
C47   H19   S    
O2    C4    A    
C69   H42   S    
O19   V3    S    
C24   C26   A    
C75   H57   S    
C76   H59   S    
C69   C70   S    
C75   H56   S    
O12   C60   A    
C74   H54   S    
C6    O28   S    
O15   V3    S    
C70   H43   S    
C64   H29   S    
C40   C52   T    
C42   C54   S    
C36   C38   S    
C43   H17   S    
C41   C53   S    
C70   H44   S    
C55   C60   S    
C68   H38   S    
O4    C2    A    
C11   F7    S    
C13   O29   S    
C47   C49   S    
C16   C20   A    
C33   C43   S    
O5    V1    S    
C49   F3    S    
C58   O17   A    
C50   F4    S    
C38   H10   S    
C1    C40   S    
C43   C45   S    
C2    C39   S    
O4    V2    S    
O30   C79   S    
C66   H34   S    
C6    C30   A    
O13   C57   A    
H2    C24   S    
O29   C77   S    
O6    C4    A    
C5    O27   S    
O14   C58   A    
C27   H3    S    
C54   C56   T    
C62   H24   S    
O1    V2    S    
C28   H4    S    
C72   H50   S    
O20   V4    S    
O2    V1    S    
O17   V3    S    
C63   H27   S    
C65   C66   S    
C7    C27   A    
C67   H37   S    
C77   H61   S    
C25   H5    S    
C9    F5    S    
O19   V4    S    
C38   C46   S    
O9    V1    S    
O11   V4    S    
C46   C52   S    
C73   H51   S    
C76   H60   S    
C71   H47   S    
C56   C59   S    
C33   H15   S    
C70   H45   S    
C34   C42   S    
C65   H32   S    
C36   H8    S    
C34   O22   S    
C68   H39   S    
C12   F8    S    
C69   H41   S    
C18   C32   A    
O13   V3    S    
C4    C31   S    
O3    C1    A    
C23   C25   A    
C35   H7    S    
C46   C48   S    
C64   H28   S    
C79   C80   S    
C66   H33   S    
C36   C42   S    
C30   F2    S    
C11   C13   A    
O16   C60   A    
C12   C14   A    
C71   H46   S    
C63   C64   S    
C19   C27   A    
C37   C45   S    
O16   V4    S    
O7    V1    S    
C66   H35   S    
C10   C32   A    
C14   C16   A    
C15   C17   A    
O8    V2    S    
O26   C71   S    
C22   C24   A    
C16   C18   A    
C8    C28   A    
C61   H22   S    
C39   C51   T    
C67   C68   S    
O18   V4    S    
C37   H11   S    
C77   H62   S    
C19   C21   A    
C79   H67   S    
C63   H26   S    
C45   C51   S    
C62   H25   S    
C20   C22   A    
C18   C26   A    
O20   V3    S    
O12   V3    S    
C80   H69   S    
C8    C57   S    
O14   V4    S    
C78   H63   S    
C26   H6    S    
C1    O8    A    
C9    C11   A    
C35   O23   S    
C80   H68   S    
C75   C76   S    
C33   O21   S    
C17   C31   A    
O9    V2    S    
C44   C46   S    
O10   V1    S    
C3    C32   S    
C44   F10   S    
C5    C21   A    
C47   H13   S    
C72   H48   S    
C43   F9    S    
C6    C22   A    
C57   O18   A    
C48   H14   S    
O24   C67   S    
C65   H31   S    
C78   H64   S    
