data_mof_unit_50527.cif
_audit_creation_date              2012-12-10T18:41:20-0500
_audit_creation_method            fapswitch 2.2
_symmetry_space_group_name_H-M    P1
_symmetry_Int_Tables_number       1
_space_group_crystal_system       triclinic
_cell_length_a                    15.105043
_cell_length_b                    13.848528
_cell_length_c                    10.910605
_cell_angle_alpha                 90.108958
_cell_angle_beta                  90.771906
_cell_angle_gamma                 89.997598
_cell_volume                      2282.09759422

loop_
_atom_site_label
_atom_site_type_symbol
_atom_type_description
_atom_site_fract_x
_atom_site_fract_y
_atom_site_fract_z
_atom_type_partial_charge
C1    C     C_R   0.329829 0.499874 0.502669 0.847433
C2    C     C_R   0.670127 0.499876 0.497271 0.848981
C3    C     C_R   0.185209 0.425890 0.562928 0.248339
C4    C     C_R   0.814543 0.426674 0.434970 0.248458
C5    C     C_R   0.093194 0.427761 0.559370 -0.291664
C6    C     C_R   0.906568 0.428548 0.438325 -0.291802
C7    C     C_R   0.048210 0.502828 0.500119 -0.015775
C8    C     C_R   0.951605 0.502827 0.499520 -0.015895
C9    C     C_R   0.553904 0.107791 0.581607 -0.358841
C10   C     C_R   0.445881 0.107642 0.418464 -0.357628
C11   C     C_R   0.556689 0.209972 0.576704 0.663597
C12   C     C_R   0.442974 0.209852 0.423679 0.666647
C13   C     C_R   0.499978 0.054716 0.499884 0.016399
C14   C     C_R   0.425762 0.892077 0.458719 -0.304226
C15   C     C_R   0.574373 0.892230 0.540586 -0.302111
C16   C     C_R   0.427533 0.790652 0.458205 0.058966
C17   C     C_R   0.572556 0.790810 0.541414 0.064170
C18   C     C_R   0.500044 0.945369 0.499706 0.192045
C19   C     C_R   0.502831 0.499205 0.262566 0.876910
C20   C     C_R   0.496684 0.499398 0.737338 0.871899
C21   C     C_R   0.499849 0.579629 0.061909 -0.021220
C22   C     C_R   0.499236 0.579861 0.938597 -0.015652
C23   C     C_R   0.503262 0.495300 0.129858 -0.208925
C24   C     C_R   0.493667 0.495793 0.869873 -0.214708
C25   C     C_R   0.503302 0.406333 0.063486 0.236416
C26   C     C_R   0.489244 0.406835 0.935432 0.239721
C27   C     C_3   0.506442 0.687024 0.930228 0.239365
C28   C     C_3   0.505884 0.686699 0.072178 0.233907
C29   C     C_R   0.095277 0.576709 0.441830 0.527479
C30   C     C_R   0.904583 0.575842 0.559925 0.528735
C31   C     C_R   0.187528 0.575524 0.445850 -0.340065
C32   C     C_R   0.812342 0.574769 0.555865 -0.344544
C33   C     C_R   0.233106 0.499849 0.504404 -0.152034
C34   C     C_R   0.766767 0.499879 0.495418 -0.151698
Cu1   Cu    Cu3+1 0.500000 0.596430 0.500000 0.966347
Cu2   Cu    Cu3+1 0.500000 0.403570 0.500000 1.097387
H1    H     H_    0.365726 0.927821 0.428465 0.138507
H2    H     H_    0.634403 0.928107 0.570773 0.136257
H3    H     H_    0.370176 0.751722 0.424535 0.125304
H4    H     H_    0.629932 0.752010 0.575091 0.122266
H5    H     H_    0.569902 0.709316 0.887333 0.085262
H6    H     H_    0.445660 0.717670 0.115562 0.084666
H7    H     H_    0.223395 0.633086 0.401238 0.165384
H8    H     H_    0.776471 0.631678 0.602066 0.164397
H9    H     H_    0.056362 0.371502 0.605126 0.187459
H10   H     H_    0.943350 0.372904 0.391049 0.187327
H11   H     H_    0.593245 0.070647 0.650124 0.154159
H12   H     H_    0.406491 0.070311 0.350024 0.154268
N1    N     N_R   0.500000 0.258690 0.500000 -0.234553
N2    N     N_R   0.500000 0.741330 0.500000 -0.162478
O1    O     O_R   0.371460 0.581430 0.500010 -0.608247
O2    O     O_R   0.628540 0.581430 0.499990 -0.609081
O3    O     O_R   0.371470 0.418560 0.500010 -0.534419
O4    O     O_R   0.628530 0.418560 0.499990 -0.536865
O5    O     O_R   0.499990 0.581450 0.319660 -0.582853
O6    O     O_R   0.500010 0.581450 0.680340 -0.579384
O7    O     O_R   0.500010 0.418580 0.319660 -0.509678
O8    O     O_R   0.499990 0.418580 0.680340 -0.508878
Br1   Br    Br    0.534122 0.283226 0.137142 -0.384470
Br2   Br    Br    0.455232 0.285198 0.859661 -0.382250
O9    O     O_3   0.428316 0.726070 0.877852 -0.565560
C35   C     C_3   0.441734 0.824574 0.851274 0.061753
H13   H     H_    0.498128 0.834370 0.787786 0.147715
H14   H     H_    0.454302 0.866306 0.936983 0.125207
C36   C     C_3   0.359031 0.864849 0.788984 -0.707288
H15   H     H_    0.301870 0.859762 0.851613 0.239093
H16   H     H_    0.369736 0.941762 0.764585 0.213163
H17   H     H_    0.343889 0.823359 0.704067 0.251742
O10   O     O_3   0.588348 0.713251 0.124768 -0.567896
C37   C     C_3   0.585428 0.810583 0.162682 0.068677
H18   H     H_    0.531080 0.822876 0.228907 0.152778
H19   H     H_    0.576439 0.859025 0.082257 0.124923
C38   C     C_3   0.672330 0.836248 0.226770 -0.719183
H20   H     H_    0.728183 0.827385 0.162532 0.239554
H21   H     H_    0.670305 0.912395 0.258748 0.208606
H22   H     H_    0.683230 0.788413 0.307188 0.250945
O11   O     O_3   0.051289 0.652512 0.385746 -0.547263
C39   C     C_3   0.035957 0.628524 0.261473 0.043128
H23   H     H_    0.003031 0.556806 0.251332 0.146839
H24   H     H_    0.099469 0.627832 0.210816 0.139157
C40   C     C_3   0.975164 0.703916 0.204030 -0.735594
H25   H     H_    0.006955 0.776171 0.208508 0.248047
H26   H     H_    0.961428 0.685218 0.106644 0.190340
H27   H     H_    0.911486 0.706347 0.253747 0.258597
O12   O     O_3   0.948629 0.650520 0.618677 -0.547367
C41   C     C_3   0.962614 0.624707 0.742517 0.042099
H28   H     H_    0.995943 0.553116 0.751079 0.147547
H29   H     H_    0.898529 0.622661 0.791752 0.139027
C42   C     C_3   0.022158 0.699646 0.803663 -0.733354
H30   H     H_    0.989824 0.771650 0.800863 0.247367
H31   H     H_    0.034965 0.679365 0.900671 0.189628
H32   H     H_    0.086358 0.703536 0.755408 0.260060
Br3   Br    Br    0.240120 0.324257 0.656640 -0.504646
Br4   Br    Br    0.759248 0.326222 0.339101 -0.505935
O13   O     O_3   0.609048 0.262965 0.657739 -0.532782
C43   C     C_3   0.698473 0.232081 0.659391 0.059638
H33   H     H_    0.740640 0.295360 0.638044 0.185908
H34   H     H_    0.714875 0.175535 0.590364 0.136616
C44   C     C_3   0.723809 0.197319 0.787469 -0.763435
H35   H     H_    0.683462 0.133628 0.812769 0.246499
H36   H     H_    0.794880 0.176844 0.790327 0.205561
H37   H     H_    0.712541 0.255836 0.855288 0.278382
O14   O     O_3   0.389978 0.262895 0.343674 -0.532073
C45   C     C_3   0.301002 0.230549 0.340400 0.060079
H38   H     H_    0.257819 0.293176 0.361264 0.186430
H39   H     H_    0.284787 0.173899 0.409079 0.137496
C46   C     C_3   0.277164 0.195395 0.211781 -0.761011
H40   H     H_    0.206567 0.173114 0.207977 0.204997
H41   H     H_    0.287556 0.254336 0.144556 0.278930
H42   H     H_    0.319011 0.132834 0.186353 0.248346

loop_
_geom_bond_atom_site_label_1
_geom_bond_atom_site_label_2
_ccdc_geom_bond_type
C15   C18   A    
C7    C29   A    
C46   H41   S    
C38   H20   S    
C14   C18   A    
O13   C43   S    
C20   O6    A    
C45   H39   S    
C12   N1    A    
C1    C33   S    
C7    C8    S    
O11   C39   S    
C19   O7    A    
C31   H7    S    
C13   C18   S    
C22   C24   A    
C24   C26   A    
Cu2   O8    S    
C39   H24   S    
C3    C33   A    
C19   O5    A    
C43   C44   S    
C9    C13   A    
C35   H14   S    
Cu2   O3    S    
C27   O9    S    
C20   C24   S    
C36   H16   S    
C43   H34   S    
C46   H40   S    
C31   C33   A    
C37   H18   S    
C42   H31   S    
C2    C34   S    
C21   C22   A    
C1    O3    A    
C38   H21   S    
O9    C35   S    
C37   C38   S    
C10   C12   A    
C45   H38   S    
C40   H26   S    
C40   H25   S    
C4    C34   A    
Cu1   O5    S    
C12   O14   S    
C4    C6    A    
Cu2   O7    S    
C2    O4    A    
C5    C7    A    
C39   H23   S    
C6    C8    A    
C25   C26   A    
O12   C41   S    
C5    H9    S    
C41   C42   S    
C42   H32   S    
C17   H4    S    
C32   C34   A    
C19   C23   S    
C15   H2    S    
C35   H13   S    
C11   N1    A    
C9    C11   A    
C27   H5    S    
C44   H35   S    
C36   H17   S    
C43   H33   S    
Cu1   N2    S    
C32   H8    S    
Cu1   O1    S    
C3    Br3   S    
C30   O12   S    
C1    O1    A    
C2    O2    A    
C4    Br4   S    
C44   H36   S    
C21   C28   S    
C9    H11   S    
C22   C27   S    
C21   C23   A    
C10   H12   S    
C38   H22   S    
C14   C16   A    
C20   O8    A    
Cu1   O2    S    
C40   H27   S    
C11   O13   S    
C15   C17   A    
C6    H10   S    
C35   C36   S    
Cu1   O6    S    
C41   H28   S    
C16   N2    A    
C3    C5    A    
C10   C13   A    
C17   N2    A    
C28   O10   S    
C8    C30   A    
C29   C31   A    
C14   H1    S    
C30   C32   A    
C39   C40   S    
C28   H6    S    
C46   H42   S    
C41   H29   S    
C23   C25   A    
O10   C37   S    
Cu2   O4    S    
C16   H3    S    
C44   H37   S    
C29   O11   S    
C36   H15   S    
O14   C45   S    
C37   H19   S    
Cu1   Cu2   S    
C25   Br1   S    
C42   H30   S    
C26   Br2   S    
C45   C46   S    
Cu2   N1    S    
C27   C28   S    
