data_mof_unit_48058.cif
_audit_creation_date              2012-10-26T18:43:48-0400
_audit_creation_method            fapswitch 2.2
_symmetry_space_group_name_H-M    P1
_symmetry_Int_Tables_number       1
_space_group_crystal_system       triclinic
_cell_length_a                    9.521047
_cell_length_b                    10.826116
_cell_length_c                    17.338695
_cell_angle_alpha                 90.031
_cell_angle_beta                  86.725696
_cell_angle_gamma                 90.102793
_cell_volume                      1784.28202562

loop_
_atom_site_label
_atom_site_type_symbol
_atom_type_description
_atom_site_fract_x
_atom_site_fract_y
_atom_site_fract_z
_atom_type_partial_charge
C1    C     C_R   0.500727 0.737879 0.497093 0.576162
C2    C     C_R   0.520429 0.503855 0.265508 0.013264
C3    C     C_R   0.376584 0.936455 0.488388 -0.009297
C4    C     C_R   0.482729 0.501638 0.649875 0.538869
C5    C     C_R   0.503152 0.871160 0.486781 0.027169
C6    C     C_R   0.630897 0.936816 0.471753 0.213914
C7    C     C_R   0.628321 0.066678 0.472672 -0.159033
C8    C     C_R   0.501168 0.129826 0.488126 -0.036480
C9    C     C_R   0.375782 0.063461 0.489855 -0.023328
C10   C     C_3   0.249186 0.070208 0.544705 -0.211480
C11   C     C_3   0.248664 0.929502 0.542954 0.099685
C12   C     C_R   0.352895 0.549630 0.774744 -0.112899
C13   C     C_R   0.929674 0.405380 0.466290 0.119864
C14   C     C_R   0.921435 0.585659 0.540629 0.025542
C15   C     C_R   0.070514 0.585414 0.540814 0.018017
C16   C     C_R   0.500140 0.262398 0.497849 0.547066
C17   C     C_R   0.077096 0.404696 0.466827 0.197076
C18   C     C_3   0.092782 0.363475 0.384710 0.127248
C19   C     C_3   0.933242 0.367025 0.383621 -0.235034
C20   C     C_R   0.516940 0.502483 0.350053 0.571558
C21   C     C_R   0.477070 0.512475 0.733900 -0.025986
C22   C     C_R   0.600154 0.494406 0.773150 -0.144122
C23   C     C_R   0.398190 0.530092 0.147014 0.295115
C24   C     C_R   0.600116 0.515460 0.851882 -0.189964
C25   C     C_R   0.476927 0.553690 0.892735 0.006050
C26   C     C_R   0.351338 0.568378 0.854455 0.266123
C27   C     C_3   0.241462 0.225432 0.316257 0.016195
C28   C     C_3   0.168172 0.220135 0.239720 -0.282418
C29   C     C_3   0.273000 0.191567 0.172232 -0.467259
C30   C     C_3   0.157106 0.508362 0.929501 0.045365
C31   C     C_3   0.047361 0.456050 0.876976 -0.290400
C32   C     C_3   0.956044 0.358097 0.918716 -0.488277
C33   C     C_R   0.402561 0.546816 0.227481 0.211482
C34   C     C_R   0.637443 0.456820 0.222644 -0.198032
C35   C     C_R   0.637944 0.451732 0.142582 -0.190675
C36   C     C_R   0.519889 0.489814 0.104683 0.073651
C37   C     C_2   0.479873 0.574062 0.976317 0.289078
C38   C     C_2   0.522892 0.481128 0.020424 -0.048521
Cu1   Cu    Cu3+1 0.359330 0.500020 0.500000 0.992798
Cu2   Cu    Cu3+1 0.640670 0.499980 0.500000 0.973886
H1    H     H_    0.697442 0.466047 0.742841 0.140429
H2    H     H_    0.896006 0.441059 0.345547 0.116752
H3    H     H_    0.883700 0.275097 0.375872 0.140913
H4    H     H_    0.727941 0.422814 0.250974 0.128795
H5    H     H_    0.562807 0.396189 0.993837 0.048629
H6    H     H_    0.257829 0.566189 0.744878 0.130569
H7    H     H_    0.696805 0.503560 0.881005 0.114158
H8    H     H_    0.834220 0.934232 0.450290 0.330626
H9    H     H_    0.124379 0.916540 0.456380 0.347101
H10   H     H_    0.246430 0.662945 0.234979 0.337964
H11   H     H_    0.296505 0.136347 0.324250 0.160643
H12   H     H_    0.730062 0.416838 0.110055 0.116470
H13   H     H_    0.324186 0.298104 0.314560 0.142412
H14   H     H_    0.085514 0.147412 0.243272 0.178732
H15   H     H_    0.117203 0.310146 0.228642 0.148863
H16   H     H_    0.357781 0.262200 0.168333 0.151992
H17   H     H_    0.218073 0.192082 0.117434 0.155315
H18   H     H_    0.320530 0.099034 0.179745 0.161616
H19   H     H_    0.101629 0.543848 0.983086 0.196886
H20   H     H_    0.228214 0.433241 0.947859 0.133377
H21   H     H_    0.978905 0.532004 0.858013 0.175517
H22   H     H_    0.101183 0.413762 0.824940 0.155149
H23   H     H_    0.726229 0.117549 0.465047 0.126861
H24   H     H_    0.022334 0.281013 0.938091 0.155498
H25   H     H_    0.879293 0.320604 0.878842 0.150490
H26   H     H_    0.897030 0.399041 0.969607 0.140841
H27   H     H_    0.194041 0.533291 0.146117 0.309230
H28   H     H_    0.419324 0.743869 0.966833 0.342755
H29   H     H_    0.273762 0.108824 0.601839 0.105744
H30   H     H_    0.157815 0.113437 0.518130 0.189387
H31   H     H_    0.268512 0.885446 0.599213 0.141689
H32   H     H_    0.862299 0.656362 0.572271 0.151689
H33   H     H_    0.123388 0.655263 0.573057 0.160399
H34   H     H_    0.146177 0.433660 0.346210 0.163898
N1    N     N_R   0.852130 0.499070 0.499500 -0.243746
N2    N     N_R   0.148040 0.499110 0.499500 -0.258864
O1    O     O_R   0.381190 0.680360 0.500000 -0.491182
O2    O     O_3   0.130569 0.879743 0.508573 -0.695101
O3    O     O_3   0.295490 0.606834 0.269617 -0.710624
O4    O     O_3   0.143513 0.240612 0.379936 -0.585157
O5    O     O_3   0.229191 0.609229 0.893354 -0.562350
O6    O     O_3   0.275805 0.546488 0.109074 -0.689328
O7    O     O_3   0.439784 0.686044 0.009059 -0.628741
O8    O     O_R   0.618770 0.680320 0.499990 -0.442517
O9    O     O_R   0.367430 0.500040 0.613600 -0.523582
O10   O     O_R   0.605020 0.500000 0.613590 -0.514009
O11   O     O_R   0.381230 0.319680 0.500010 -0.486245
O12   O     O_R   0.618810 0.319640 0.500000 -0.515326
O13   O     O_R   0.394980 0.500000 0.386410 -0.460331
O14   O     O_R   0.632570 0.499960 0.386400 -0.513965
O15   O     O_3   0.756495 0.873991 0.459560 -0.662289

loop_
_geom_bond_atom_site_label_1
_geom_bond_atom_site_label_2
_ccdc_geom_bond_type
C23   O6    S    
C1    O1    A    
C31   H21   S    
C35   C36   A    
Cu1   O11   S    
H10   O3    S    
C7    C8    A    
C1    O8    A    
C1    C5    S    
Cu1   O1    S    
C28   C29   S    
C18   C19   S    
C5    C6    A    
C11   H31   S    
C22   H1    S    
C4    O10   A    
C6    O15   S    
H9    O2    S    
C34   C35   A    
Cu2   O10   S    
Cu2   O8    S    
C38   H5    S    
C25   C37   S    
C13   N1    A    
C19   H3    S    
C8    C9    A    
C23   C33   A    
H8    O15   S    
C30   H20   S    
C16   O11   A    
C9    C10   S    
C19   H2    S    
C2    C34   A    
C15   N2    A    
C18   H34   S    
C21   C22   A    
C24   H7    S    
C31   H22   S    
C28   H15   S    
C27   H11   S    
C13   C19   S    
C2    C20   S    
C34   H4    S    
C24   C25   A    
C32   H24   S    
C12   H6    S    
C27   O4    S    
Cu1   Cu2   S    
C28   H14   S    
C33   O3    S    
C4    O9    A    
C25   C26   A    
C20   O14   A    
C12   C21   A    
C12   C26   A    
C37   C38   D    
C3    C9    A    
C11   O2    S    
C17   N2    A    
C31   C32   S    
C30   H19   S    
C17   C18   S    
Cu1   N2    S    
C7    H23   S    
C10   H30   S    
C2    C33   A    
C18   O4    S    
C15   H33   S    
C29   H17   S    
C26   O5    S    
C22   C24   A    
Cu1   O9    S    
C35   H12   S    
C32   H26   S    
H28   O7    S    
C14   H32   S    
C3    C5    A    
C27   H13   S    
C6    C7    A    
C29   H16   S    
C20   O13   A    
Cu2   N1    S    
C13   C17   A    
C14   N1    A    
Cu2   O12   S    
C30   O5    S    
C36   C38   S    
C4    C21   S    
C30   C31   S    
C3    C11   S    
C10   C11   S    
C10   H29   S    
C29   H18   S    
H27   O6    S    
C8    C16   S    
C23   C36   A    
C27   C28   S    
C16   O12   A    
C14   C15   A    
C37   O7    S    
Cu2   O14   S    
Cu1   O13   S    
C32   H25   S    
