data_mof_unit_24668.cif
_audit_creation_date              2012-12-10T17:57:05-0500
_audit_creation_method            fapswitch 2.2
_symmetry_space_group_name_H-M    P1
_symmetry_Int_Tables_number       1
_space_group_crystal_system       triclinic
_cell_length_a                    18.338578
_cell_length_b                    18.254825
_cell_length_c                    26.048002
_cell_angle_alpha                 90.099791
_cell_angle_beta                  90.112816
_cell_angle_gamma                 89.855931
_cell_volume                      8719.96772548

loop_
_atom_site_label
_atom_site_type_symbol
_atom_type_description
_atom_site_fract_x
_atom_site_fract_y
_atom_site_fract_z
_atom_type_partial_charge
C1    C     C_R   0.859504 0.139706 0.250312 0.590346
C2    C     C_R   0.764370 0.790682 0.793244 -0.198402
C3    C     C_R   0.490220 0.503637 0.053854 0.025337
C4    C     C_R   0.000352 0.938160 0.473431 -0.161747
C5    C     C_R   0.997628 0.938394 0.526353 -0.166318
C6    C     C_R   0.506010 0.439434 0.973665 -0.163048
C7    C     C_R   0.502381 0.438840 0.026544 -0.157262
C8    C     C_3   0.950486 0.298689 0.434938 -0.008683
C9    C     C_3   0.907241 0.255618 0.394363 -0.265170
C10   C     C_3   0.830642 0.287190 0.387794 -0.486806
C11   C     C_3   0.055540 0.308692 0.556354 -0.011686
C12   C     C_3   0.108020 0.266836 0.591862 -0.256062
C13   C     C_R   0.734130 0.820700 0.234027 -0.181282
C14   C     C_3   0.176121 0.311927 0.603351 -0.457181
C15   C     C_3   0.393660 0.790814 0.939020 0.001658
C16   C     C_3   0.351094 0.734963 0.906176 -0.286150
C17   C     C_3   0.274675 0.762867 0.893328 -0.485359
C18   C     C_3   0.502103 0.798315 0.071040 0.037262
C19   C     C_3   0.485078 0.873269 0.094155 -0.255562
C20   C     C_3   0.554326 0.912261 0.111616 -0.504762
C21   C     C_3   0.853449 0.282527 0.636186 0.020244
C22   C     C_3   0.818411 0.293262 0.583259 -0.238517
C23   C     C_3   0.836125 0.368492 0.561114 -0.466218
C24   C     C_R   0.268440 0.823434 0.753641 -0.191233
C25   C     C_3   0.115065 0.331870 0.332115 0.018809
C26   C     C_3   0.163802 0.304531 0.376562 -0.237120
C27   C     C_3   0.167585 0.361187 0.419708 -0.465506
C28   C     C_3   0.067144 0.306659 0.765395 0.022438
C29   C     C_3   0.989867 0.325447 0.747457 -0.248943
C30   C     C_3   0.937547 0.334133 0.792542 -0.490176
C31   C     C_3   0.921159 0.348654 0.261301 0.021453
C32   C     C_3   0.938731 0.409078 0.222744 -0.256790
C33   C     C_3   0.967429 0.477394 0.249652 -0.484786
C34   C     C_3   0.286052 0.703773 0.120893 0.020894
C35   C     C_R   0.732204 0.287750 0.705769 -0.197777
C36   C     C_3   0.284614 0.619485 0.118114 -0.265663
C37   C     C_3   0.218907 0.586675 0.145462 -0.447388
C38   C     C_3   0.637273 0.782856 0.860487 0.023722
C39   C     C_3   0.664484 0.796725 0.915225 -0.252536
C40   C     C_3   0.633106 0.867566 0.937400 -0.486210
C41   C     C_3   0.567609 0.807632 0.261586 0.013290
C42   C     C_3   0.490674 0.827166 0.243257 -0.239621
C43   C     C_3   0.438108 0.836620 0.288182 -0.483654
C44   C     C_3   0.419228 0.832535 0.792731 0.021788
C45   C     C_3   0.465280 0.896511 0.773607 -0.259416
C46   C     C_R   0.234649 0.321427 0.263143 -0.201881
C47   C     C_3   0.491824 0.944107 0.818084 -0.490830
C48   C     C_3   0.729897 0.126259 0.854258 -0.076106
C49   C     C_3   0.298272 0.071149 0.191565 -0.071999
C50   C     C_3   0.294921 0.098162 0.830831 -0.071858
C51   C     C_3   0.680480 0.072243 0.218158 -0.087972
C52   C     C_3   0.264079 0.650545 0.371142 -0.056508
C53   C     C_3   0.646422 0.707943 0.636080 -0.114499
C54   C     C_3   0.790298 0.603131 0.335800 -0.075256
C55   C     C_3   0.189599 0.582109 0.695244 -0.072008
C56   C     C_3   0.192860 0.820097 0.368419 0.018457
C57   C     C_R   0.233595 0.321423 0.736408 -0.188100
C58   C     C_3   0.154071 0.821173 0.420205 -0.250363
C59   C     C_3   0.182352 0.882854 0.454428 -0.483155
C60   C     C_3   0.789269 0.848282 0.633660 0.031865
C61   C     C_3   0.826032 0.860594 0.581893 -0.246421
C62   C     C_3   0.801822 0.932625 0.557478 -0.488159
C63   C     C_3   0.934193 0.693746 0.238216 0.021879
C64   C     C_3   0.011916 0.677545 0.256158 -0.231389
C65   C     C_3   0.064005 0.668896 0.211013 -0.485586
C66   C     C_3   0.073073 0.704152 0.795323 0.023061
C67   C     C_3   0.991629 0.687655 0.790791 -0.243624
C68   C     C_R   0.768065 0.323023 0.245244 -0.196550
C69   C     C_3   0.954475 0.687505 0.843107 -0.498594
C70   C     C_3   0.721723 0.348060 0.864722 0.027145
C71   C     C_3   0.685499 0.370247 0.915147 -0.254619
C72   C     C_3   0.718784 0.440047 0.937254 -0.487868
C73   C     C_3   0.398172 0.218129 0.162574 0.032208
C74   C     C_3   0.476276 0.198271 0.147502 -0.235291
C75   C     C_3   0.487111 0.202250 0.089519 -0.499260
C76   C     C_3   0.433784 0.191648 0.734450 0.031720
C77   C     C_3   0.511146 0.171308 0.751344 -0.250418
C78   C     C_3   0.560575 0.155787 0.705536 -0.490151
C79   C     C_R   0.788508 0.236310 0.705210 0.192349
C80   C     C_3   0.582978 0.208112 0.312439 0.010574
C81   C     C_3   0.500429 0.198600 0.316149 -0.227215
C82   C     C_3   0.475141 0.193371 0.371731 -0.499816
C83   C     C_3   0.176995 0.965431 0.047670 0.041972
C84   C     C_3   0.232337 0.934731 0.085801 -0.257541
C85   C     C_3   0.307141 0.969414 0.078478 -0.507014
C86   C     C_3   0.924685 0.152054 0.936941 0.055568
C87   C     C_3   0.873893 0.210191 0.959663 -0.239386
C88   C     C_3   0.900639 0.287377 0.947867 -0.495395
C89   C     C_3   0.823696 0.040350 0.050169 0.042246
C90   C     C_R   0.181135 0.267712 0.268486 0.209797
C91   C     C_3   0.764980 0.091682 0.071166 -0.253362
C92   C     C_3   0.691316 0.053377 0.074685 -0.510754
C93   C     C_3   0.076011 0.848174 0.934221 0.028779
C94   C     C_3   0.089945 0.793272 0.977677 -0.256248
C95   C     C_3   0.073607 0.715014 0.960684 -0.508206
C96   C     C_3   0.672306 0.519495 0.558917 0.059773
C97   C     C_3   0.722121 0.533180 0.512706 -0.276990
C98   C     C_3   0.781689 0.588465 0.525695 -0.486174
C99   C     C_3   0.426823 0.650137 0.440567 0.021008
C100  C     C_3   0.385275 0.707403 0.472135 -0.255354
C101  C     C_R   0.178948 0.269102 0.737638 0.177584
C102  C     C_3   0.407170 0.785069 0.457180 -0.501440
C103  C     C_3   0.319748 0.514465 0.546285 0.054089
C104  C     C_3   0.251735 0.562610 0.541937 -0.251569
C105  C     C_3   0.182235 0.516767 0.542816 -0.506876
C106  C     C_3   0.604841 0.363912 0.437055 0.037333
C107  C     C_3   0.644002 0.315630 0.476489 -0.256079
C108  C     C_3   0.641515 0.234926 0.461296 -0.508608
C109  C     C_R   0.140314 0.139971 0.750002 0.536574
C110  C     C_R   0.823076 0.269592 0.245773 0.197099
C111  C     C_R   0.291399 0.739567 0.205607 0.206773
C112  C     C_R   0.708599 0.738990 0.793789 0.194100
C113  C     C_R   0.679428 0.768423 0.235287 0.186091
C114  C     C_R   0.323193 0.770206 0.754386 0.193749
C115  C     C_R   0.803830 0.196825 0.750443 0.010126
C116  C     C_R   0.197402 0.195673 0.251934 0.015351
C117  C     C_R   0.196585 0.196248 0.750905 0.000161
C118  C     C_R   0.802901 0.195635 0.250399 0.018593
C119  C     C_R   0.299585 0.692607 0.247953 0.003084
C120  C     C_R   0.140666 0.139684 0.250847 0.560772
C121  C     C_R   0.693449 0.699157 0.748601 0.005346
C122  C     C_R   0.696414 0.696324 0.250882 -0.000214
C123  C     C_R   0.303290 0.695975 0.750438 0.017372
C124  C     C_R   0.765912 0.212143 0.796378 0.213365
C125  C     C_R   0.268563 0.176128 0.236702 0.225665
C126  C     C_R   0.268384 0.177605 0.765945 0.222840
C127  C     C_R   0.729113 0.174885 0.254501 0.210225
C128  C     C_R   0.250428 0.696831 0.289562 0.221681
C129  C     C_R   0.728877 0.716791 0.702084 0.241768
C130  C     C_R   0.767477 0.678533 0.267986 0.224670
C131  C     C_R   0.859932 0.140204 0.750063 0.550351
C132  C     C_R   0.229442 0.675118 0.746514 0.216657
C133  C     C_R   0.203646 0.756919 0.293451 0.239182
C134  C     C_R   0.783039 0.770426 0.701815 0.257821
C135  C     C_R   0.822273 0.731288 0.265566 0.241093
C136  C     C_R   0.175078 0.728927 0.748770 0.239593
C137  C     C_R   0.715102 0.269270 0.797315 0.234682
C138  C     C_R   0.321172 0.230917 0.230907 0.240052
C139  C     C_R   0.323142 0.230606 0.763757 0.238854
C140  C     C_R   0.675114 0.229369 0.256012 0.235320
C141  C     C_R   0.197374 0.805308 0.251663 -0.056941
C142  C     C_R   0.359853 0.640067 0.750038 0.574254
C143  C     C_R   0.801986 0.805898 0.748008 -0.058790
C144  C     C_R   0.804887 0.802991 0.249751 -0.049370
C145  C     C_R   0.195174 0.803091 0.750947 -0.043298
C146  C     C_R   0.696403 0.304713 0.751305 -0.050706
C147  C     C_R   0.304517 0.303129 0.246947 -0.053258
C148  C     C_R   0.305026 0.302956 0.749916 -0.049147
C149  C     C_R   0.695134 0.303060 0.250516 -0.037687
C150  C     C_R   0.056200 0.963788 0.026587 0.191456
C151  C     C_R   0.946265 0.039176 0.972791 0.194771
C152  C     C_R   0.943424 0.035653 0.026436 0.195450
C153  C     C_R   0.640242 0.640011 0.250047 0.534644
C154  C     C_R   0.052927 0.958923 0.972916 0.201013
C155  C     C_R   0.563810 0.477697 0.526322 0.204273
C156  C     C_R   0.444575 0.535312 0.473055 0.208361
C157  C     C_R   0.440583 0.529072 0.526363 0.199385
C158  C     C_R   0.560183 0.469639 0.473114 0.206606
C159  C     C_R   0.999732 0.999212 0.945998 -0.046106
C160  C     C_R   0.999757 0.999726 0.053483 -0.036321
C161  C     C_R   0.501143 0.500456 0.446097 -0.056730
C162  C     C_R   0.501285 0.501797 0.553555 -0.056994
C163  C     C_R   0.140609 0.860656 0.250683 0.508818
C164  C     C_R   0.639718 0.640519 0.749854 0.545411
C165  C     C_R   0.859814 0.860099 0.749704 0.500201
C166  C     C_R   0.860100 0.859838 0.249969 0.516913
C167  C     C_R   0.139988 0.859961 0.749998 0.521761
C168  C     C_R   0.639996 0.360160 0.750276 0.512417
C169  C     C_R   0.360129 0.359722 0.249374 0.514335
C170  C     C_R   0.360198 0.359770 0.749937 0.517654
C171  C     C_R   0.639897 0.359886 0.250003 0.531234
C172  C     C_R   0.999933 0.000077 0.109787 0.567021
C173  C     C_R   0.000004 0.999860 0.890020 0.527956
C174  C     C_R   0.500206 0.500414 0.609800 0.538796
C175  C     C_R   0.358456 0.638706 0.248900 0.523528
C176  C     C_R   0.500250 0.499976 0.390061 0.525292
C177  C     C_R   0.003507 0.000700 0.390116 0.492813
C178  C     C_R   0.997230 0.000862 0.609797 0.497564
C179  C     C_R   0.501919 0.501111 0.890256 0.498821
C180  C     C_R   0.496088 0.500667 0.109953 0.492841
C181  C     C_R   0.031903 0.138495 0.449559 -0.126811
C182  C     C_R   0.980828 0.141727 0.549178 -0.125472
C183  C     C_R   0.499009 0.643676 0.950466 -0.127471
C184  C     C_R   0.454482 0.636289 0.051345 -0.139674
C185  C     C_R   0.016303 0.205515 0.472363 0.266147
C186  C     C_R   0.241805 0.797038 0.208554 -0.199426
C187  C     C_R   0.995892 0.207280 0.524065 0.257516
C188  C     C_R   0.472765 0.706454 0.974446 0.264635
C189  C     C_R   0.454178 0.703502 0.026238 0.244176
C190  C     C_R   0.995458 0.072493 0.526176 -0.031598
C191  C     C_R   0.013147 0.071361 0.473480 -0.035176
C192  C     C_R   0.479191 0.570943 0.027017 -0.033672
C193  C     C_R   0.494652 0.573356 0.973912 -0.029583
C194  C     C_R   0.008393 0.003628 0.446328 0.022980
C195  C     C_R   0.994462 0.004466 0.553484 0.024405
C196  C     C_R   0.503110 0.505463 0.946618 0.024960
H1    H     H_    0.996513 0.886089 0.453741 0.136027
H2    H     H_    0.779396 0.817934 0.828690 0.149658
H3    H     H_    0.523752 0.910789 0.845805 0.139844
H4    H     H_    0.679360 0.154342 0.867205 0.146007
H5    H     H_    0.749681 0.092079 0.886619 0.154738
H6    H     H_    0.717416 0.088686 0.821665 0.111347
H7    H     H_    0.265333 0.098068 0.160855 0.095671
H8    H     H_    0.279800 0.013462 0.194007 0.148625
H9    H     H_    0.356819 0.069448 0.181021 0.128078
H10   H     H_    0.299265 0.038963 0.839961 0.127963
H11   H     H_    0.247032 0.120232 0.852157 0.113151
H12   H     H_    0.345740 0.124745 0.844597 0.150709
H13   H     H_    0.720661 0.875731 0.221585 0.152013
H14   H     H_    0.671692 0.012806 0.224301 0.125391
H15   H     H_    0.717821 0.078029 0.184958 0.125848
H16   H     H_    0.626611 0.097013 0.209078 0.151966
H17   H     H_    0.307659 0.692715 0.373092 0.079170
H18   H     H_    0.286379 0.598890 0.387029 0.190589
H19   H     H_    0.217433 0.666511 0.395724 0.140646
H20   H     H_    0.631786 0.764402 0.648972 0.072093
H21   H     H_    0.601139 0.670260 0.645773 0.135847
H22   H     H_    0.650992 0.709284 0.593635 0.114634
H23   H     H_    0.795359 0.544628 0.346753 0.130511
H24   H     H_    0.283197 0.880908 0.753458 0.153762
H25   H     H_    0.740577 0.625217 0.354930 0.113057
H26   H     H_    0.839531 0.631765 0.350406 0.150199
H27   H     H_    0.184950 0.521588 0.693149 0.123995
H28   H     H_    0.230839 0.598991 0.666324 0.122261
H29   H     H_    0.135439 0.605433 0.685232 0.158953
H30   H     H_    0.186699 0.874916 0.350296 0.141787
H31   H     H_    0.252024 0.809759 0.375263 0.096723
H32   H     H_    0.094723 0.828601 0.413727 0.191323
H33   H     H_    0.162589 0.768033 0.440064 0.145771
H34   H     H_    0.241865 0.876396 0.461094 0.142280
H35   H     H_    0.716330 0.314781 0.670491 0.153090
H36   H     H_    0.154109 0.881181 0.492067 0.157837
H37   H     H_    0.171636 0.936881 0.436309 0.150437
H38   H     H_    0.798669 0.897264 0.658289 0.122315
H39   H     H_    0.729646 0.842036 0.627065 0.112848
H40   H     H_    0.885950 0.861556 0.587570 0.193396
H41   H     H_    0.812566 0.814498 0.555615 0.163196
H42   H     H_    0.741811 0.932971 0.551617 0.140747
H43   H     H_    0.828795 0.939130 0.519635 0.158535
H44   H     H_    0.817464 0.979585 0.582325 0.153196
H45   H     H_    0.935728 0.739465 0.209930 0.120659
H46   H     H_    0.222882 0.377904 0.272433 0.149219
H47   H     H_    0.911669 0.643955 0.219204 0.143815
H48   H     H_    0.031360 0.722978 0.280957 0.241603
H49   H     H_    0.012380 0.626693 0.279518 0.165535
H50   H     H_    0.045220 0.624755 0.184820 0.131240
H51   H     H_    0.118896 0.654491 0.225774 0.168338
H52   H     H_    0.067990 0.721051 0.189297 0.145572
H53   H     H_    0.079877 0.756720 0.816604 0.103706
H54   H     H_    0.100050 0.659220 0.817240 0.147370
H55   H     H_    0.965213 0.729768 0.766232 0.203793
H56   H     H_    0.984078 0.633314 0.772227 0.171292
H57   H     H_    0.219693 0.376998 0.725444 0.159272
H58   H     H_    0.978919 0.644668 0.868047 0.145160
H59   H     H_    0.895502 0.675658 0.838163 0.161943
H60   H     H_    0.960160 0.741922 0.861832 0.135421
H61   H     H_    0.721138 0.396076 0.838342 0.122114
H62   H     H_    0.779280 0.332015 0.872702 0.142095
H63   H     H_    0.626532 0.379743 0.908201 0.193694
H64   H     H_    0.691425 0.325065 0.943425 0.158835
H65   H     H_    0.778060 0.432404 0.944216 0.140448
H66   H     H_    0.691863 0.453627 0.974232 0.156601
H67   H     H_    0.710472 0.486521 0.910369 0.156340
H68   H     H_    0.781334 0.380081 0.239152 0.140163
H69   H     H_    0.386085 0.274724 0.149248 0.150887
H70   H     H_    0.360005 0.181344 0.141952 0.091356
H71   H     H_    0.514716 0.236682 0.166569 0.227007
H72   H     H_    0.488982 0.141805 0.160794 0.159095
H73   H     H_    0.450916 0.162381 0.069788 0.139579
H74   H     H_    0.544600 0.188750 0.080045 0.143800
H75   H     H_    0.474869 0.258311 0.075382 0.147404
H76   H     H_    0.436766 0.237954 0.706710 0.116130
H77   H     H_    0.408645 0.143297 0.715203 0.149339
H78   H     H_    0.534791 0.216946 0.774131 0.215012
H79   H     H_    0.957724 0.355597 0.420836 0.127246
H80   H     H_    0.509071 0.122002 0.776252 0.156114
H81   H     H_    0.538624 0.109606 0.682437 0.143491
H82   H     H_    0.615943 0.140859 0.719444 0.148367
H83   H     H_    0.565096 0.205240 0.680956 0.149315
H84   H     H_    0.598097 0.259849 0.332563 0.101619
H85   H     H_    0.610388 0.160985 0.331612 0.163872
H86   H     H_    0.473173 0.246286 0.297788 0.211743
H87   H     H_    0.484021 0.148034 0.295311 0.208593
H88   H     H_    0.501919 0.146337 0.391193 0.144804
H89   H     H_    0.415175 0.185187 0.372678 0.161073
H90   H     H_    0.918492 0.303274 0.471013 0.171980
H91   H     H_    0.488179 0.244728 0.392621 0.131103
H92   H     H_    0.169946 0.025146 0.055655 0.122739
H93   H     H_    0.199030 0.958087 0.008265 0.176608
H94   H     H_    0.212968 0.945916 0.125411 0.189349
H95   H     H_    0.237175 0.874439 0.080594 0.164899
H96   H     H_    0.330394 0.952804 0.040860 0.150679
H97   H     H_    0.344133 0.950821 0.109594 0.140605
H98   H     H_    0.303198 0.030087 0.080051 0.124606
H99   H     H_    0.927339 0.159567 0.894644 0.166502
H100  H     H_    0.980993 0.160965 0.952320 0.093782
H101  H     H_    0.936530 0.257463 0.357134 0.193571
H102  H     H_    0.818051 0.203259 0.943772 0.197716
H103  H     H_    0.871197 0.203277 0.001962 0.194372
H104  H     H_    0.955772 0.296070 0.964488 0.145160
H105  H     H_    0.862627 0.328020 0.964934 0.142652
H106  H     H_    0.902787 0.296246 0.905775 0.146048
H107  H     H_    0.825527 0.989704 0.073892 0.145677
H108  H     H_    0.808275 0.025110 0.010166 0.157705
H109  H     H_    0.781403 0.111296 0.109877 0.185770
H110  H     H_    0.759751 0.140089 0.045582 0.158158
H111  H     H_    0.673308 0.034687 0.036090 0.146063
H112  H     H_    0.996840 0.886204 0.545993 0.135455
H113  H     H_    0.902070 0.197384 0.406044 0.178638
H114  H     H_    0.649974 0.091982 0.090219 0.139689
H115  H     H_    0.695195 0.005475 0.100787 0.141117
H116  H     H_    0.104985 0.828970 0.899263 0.146124
H117  H     H_    0.016818 0.849583 0.924185 0.098797
H118  H     H_    0.147743 0.796759 0.990298 0.180716
H119  H     H_    0.054588 0.806813 0.010950 0.184435
H120  H     H_    0.014938 0.709560 0.950889 0.146948
H121  H     H_    0.086495 0.676627 0.992471 0.147134
H122  H     H_    0.107209 0.699902 0.926813 0.140012
H123  H     H_    0.706773 0.508429 0.593178 0.178166
H124  H     H_    0.800180 0.283062 0.424445 0.143411
H125  H     H_    0.640670 0.570255 0.567797 0.126756
H126  H     H_    0.747855 0.480972 0.500359 0.190892
H127  H     H_    0.689392 0.555120 0.480249 0.180492
H128  H     H_    0.757097 0.641332 0.537977 0.172366
H129  H     H_    0.815858 0.598266 0.491248 0.136613
H130  H     H_    0.817132 0.567115 0.556933 0.166111
H131  H     H_    0.422941 0.663529 0.399111 0.131761
H132  H     H_    0.486149 0.653873 0.450381 0.096292
H133  H     H_    0.325641 0.701012 0.466268 0.151860
H134  H     H_    0.397087 0.698965 0.513556 0.197766
H135  H     H_    0.800698 0.255758 0.358005 0.154327
H136  H     H_    0.466589 0.793117 0.463236 0.144291
H137  H     H_    0.377023 0.825113 0.481306 0.147195
H138  H     H_    0.393594 0.795552 0.416252 0.133300
H139  H     H_    0.315134 0.479229 0.580893 0.150943
H140  H     H_    0.321414 0.477771 0.511900 0.125384
H141  H     H_    0.250409 0.602370 0.574243 0.163113
H142  H     H_    0.253846 0.593945 0.505429 0.172537
H143  H     H_    0.182292 0.476584 0.510737 0.145355
H144  H     H_    0.134023 0.553177 0.538567 0.148120
H145  H     H_    0.177720 0.487066 0.579846 0.132463
H146  H     H_    0.833172 0.345559 0.376059 0.140792
H147  H     H_    0.627386 0.351832 0.398406 0.153029
H148  H     H_    0.545649 0.349789 0.435483 0.090551
H149  H     H_    0.701800 0.333008 0.479731 0.173927
H150  H     H_    0.617841 0.322262 0.514632 0.193464
H151  H     H_    0.584249 0.215437 0.460333 0.146343
H152  H     H_    0.672223 0.202006 0.489936 0.150915
H153  H     H_    0.666765 0.226554 0.422993 0.140476
H154  H     H_    0.044184 0.363121 0.573780 0.140467
H155  H     H_    0.081995 0.319748 0.518875 0.172710
H156  H     H_    0.079717 0.253377 0.628258 0.231688
H157  H     H_    0.125146 0.214731 0.573292 0.151152
H158  H     H_    0.203479 0.328107 0.567092 0.123130
H159  H     H_    0.214914 0.278747 0.626438 0.164507
H160  H     H_    0.512196 0.387544 0.953920 0.135207
H161  H     H_    0.161459 0.361915 0.625444 0.161758
H162  H     H_    0.393297 0.844270 0.918704 0.133621
H163  H     H_    0.365201 0.800297 0.976088 0.177281
H164  H     H_    0.381071 0.723587 0.870118 0.188342
H165  H     H_    0.345533 0.682515 0.927374 0.157816
H166  H     H_    0.243015 0.770997 0.929118 0.150941
H167  H     H_    0.245960 0.722130 0.868923 0.143419
H168  H     H_    0.277277 0.815567 0.872264 0.151632
H169  H     H_    0.542022 0.806099 0.039219 0.146311
H170  H     H_    0.527024 0.763002 0.101256 0.166746
H171  H     H_    0.509313 0.387018 0.046157 0.133081
H172  H     H_    0.457465 0.907590 0.064759 0.169047
H173  H     H_    0.447885 0.866488 0.127431 0.179231
H174  H     H_    0.583515 0.879242 0.140915 0.197803
H175  H     H_    0.540011 0.966229 0.128626 0.134409
H176  H     H_    0.590930 0.921300 0.078329 0.142335
H177  H     H_    0.912836 0.273657 0.631313 0.190571
H178  H     H_    0.848574 0.333714 0.659536 0.110375
H179  H     H_    0.838272 0.249925 0.556690 0.177335
H180  H     H_    0.758220 0.287933 0.586079 0.164938
H181  H     H_    0.808816 0.411964 0.583979 0.148952
H182  H     H_    0.058812 0.141409 0.412924 0.170271
H183  H     H_    0.816418 0.371540 0.520896 0.125884
H184  H     H_    0.895748 0.378518 0.561399 0.181186
H185  H     H_    0.058778 0.336250 0.347342 0.153781
H186  H     H_    0.129091 0.388446 0.320259 0.115338
H187  H     H_    0.141726 0.252251 0.391588 0.195639
H188  H     H_    0.220385 0.293830 0.363530 0.151409
H189  H     H_    0.196567 0.410933 0.406247 0.150248
H190  H     H_    0.197864 0.337993 0.452900 0.133641
H191  H     H_    0.112114 0.377191 0.432535 0.173632
H192  H     H_    0.090377 0.354990 0.785813 0.126594
H193  H     H_    0.954843 0.147933 0.585904 0.189724
H194  H     H_    0.064381 0.259461 0.792410 0.122308
H195  H     H_    0.990958 0.377132 0.724975 0.152115
H196  H     H_    0.969453 0.281146 0.722004 0.202420
H197  H     H_    0.932835 0.281545 0.813649 0.147626
H198  H     H_    0.882648 0.349670 0.778066 0.140209
H199  H     H_    0.957077 0.377516 0.819126 0.140921
H200  H     H_    0.972392 0.332933 0.280948 0.180968
H201  H     H_    0.884138 0.369410 0.291940 0.106693
H202  H     H_    0.980647 0.388829 0.195361 0.181999
H203  H     H_    0.889094 0.423709 0.200496 0.164901
H204  H     H_    0.524044 0.653941 0.914000 0.187228
H205  H     H_    0.925479 0.500159 0.275990 0.172865
H206  H     H_    0.980710 0.519296 0.220402 0.145857
H207  H     H_    0.017656 0.464400 0.271780 0.143501
H208  H     H_    0.309702 0.724116 0.084480 0.170954
H209  H     H_    0.229722 0.726926 0.121520 0.107678
H210  H     H_    0.282328 0.602384 0.077147 0.112004
H211  H     H_    0.335052 0.595963 0.135069 0.183857
H212  H     H_    0.221840 0.597593 0.187231 0.165447
H213  H     H_    0.218580 0.526398 0.139690 0.135759
H214  H     H_    0.167450 0.609586 0.129606 0.137804
H215  H     H_    0.432880 0.637732 0.089524 0.185535
H216  H     H_    0.578160 0.769870 0.862027 0.170647
H217  H     H_    0.642223 0.834106 0.837364 0.110250
H218  H     H_    0.648545 0.750006 0.940090 0.173182
H219  H     H_    0.724946 0.800554 0.915278 0.161622
H220  H     H_    0.651844 0.915342 0.914643 0.135368
H221  H     H_    0.651973 0.874474 0.977654 0.135172
H222  H     H_    0.572642 0.866143 0.937088 0.193325
H223  H     H_    0.591373 0.856213 0.281419 0.121284
H224  H     H_    0.563936 0.761367 0.289326 0.123749
H225  H     H_    0.492586 0.878951 0.220948 0.148817
H226  H     H_    0.236509 0.833636 0.176130 0.145306
H227  H     H_    0.469890 0.783185 0.217623 0.229030
H228  H     H_    0.432939 0.784442 0.309769 0.128085
H229  H     H_    0.383387 0.852287 0.273453 0.152173
H230  H     H_    0.457723 0.880299 0.314499 0.145475
H231  H     H_    0.453994 0.797427 0.817554 0.160734
H232  H     H_    0.374243 0.854586 0.817000 0.111458
H233  H     H_    0.513232 0.874925 0.752296 0.163810
H234  H     H_    0.432217 0.930723 0.747011 0.176751
H235  H     H_    0.444731 0.969445 0.838229 0.147611
H236  H     H_    0.527302 0.988349 0.803133 0.139685
O1    O     O_3   0.000000 0.000000 0.249960 -0.452977
O2    O     O_R   0.585480 0.646190 0.219690 -0.506849
O3    O     O_R   0.585480 0.646190 0.780310 -0.515114
O4    O     O_R   0.414520 0.646190 0.219690 -0.523566
O5    O     O_R   0.085470 0.853840 0.280350 -0.513141
O6    O     O_R   0.914530 0.853840 0.719650 -0.505124
O7    O     O_R   0.914530 0.853840 0.280350 -0.496315
O8    O     O_R   0.085470 0.853840 0.719650 -0.497429
O9    O     O_R   0.585470 0.353840 0.780350 -0.510895
O10   O     O_R   0.414530 0.353840 0.219650 -0.528893
O11   O     O_R   0.414530 0.353840 0.780350 -0.494907
O12   O     O_3   0.000000 0.000000 0.750040 -0.456307
O13   O     O_R   0.585470 0.353840 0.219650 -0.515143
O14   O     O_R   0.853820 0.914550 0.219610 -0.564168
O15   O     O_R   0.146180 0.914550 0.780390 -0.551746
O16   O     O_R   0.146180 0.914550 0.219610 -0.569112
O17   O     O_R   0.853820 0.914550 0.780390 -0.564479
O18   O     O_R   0.353820 0.414550 0.719610 -0.564127
O19   O     O_R   0.646180 0.414550 0.280390 -0.549084
O20   O     O_R   0.646180 0.414550 0.719610 -0.555100
O21   O     O_R   0.353820 0.414550 0.280390 -0.549072
O22   O     O_R   0.146180 0.085440 0.219600 -0.545691
O23   O     O_3   0.500000 0.500000 0.749960 -0.454852
O24   O     O_R   0.853820 0.085440 0.780400 -0.520085
O25   O     O_R   0.853820 0.085440 0.219600 -0.533169
O26   O     O_R   0.146180 0.085440 0.780400 -0.521726
O27   O     O_R   0.646180 0.585440 0.719600 -0.523401
O28   O     O_R   0.353820 0.585440 0.280400 -0.508714
O29   O     O_R   0.353820 0.585440 0.719600 -0.520219
O30   O     O_R   0.646180 0.585440 0.280400 -0.520590
O31   O     O_R   0.939280 0.999970 0.134160 -0.529531
O32   O     O_R   0.060720 0.999970 0.865840 -0.522641
O33   O     O_R   0.060720 0.999970 0.134160 -0.523524
O34   O     O_3   0.500000 0.500000 0.250040 -0.454962
O35   O     O_R   0.939280 0.999970 0.865840 -0.514562
O36   O     O_R   0.439280 0.499970 0.634160 -0.523027
O37   O     O_R   0.560720 0.499970 0.365840 -0.521292
O38   O     O_R   0.560720 0.499970 0.634160 -0.529755
O39   O     O_R   0.439280 0.499970 0.365840 -0.518301
O40   O     O_R   0.000000 0.060760 0.365770 -0.570369
O41   O     O_R   0.000000 0.060760 0.634230 -0.561360
O42   O     O_R   0.500000 0.560760 0.865770 -0.566543
O43   O     O_R   0.500000 0.560760 0.134230 -0.560942
O44   O     O_R   0.000000 0.939310 0.365780 -0.548383
O45   O     O_R   0.914520 0.146190 0.280310 -0.523494
O46   O     O_R   0.000000 0.939310 0.634220 -0.547982
O47   O     O_R   0.500000 0.439310 0.865780 -0.545501
O48   O     O_R   0.500000 0.439310 0.134220 -0.557044
O49   O     O_3   0.020906 0.268400 0.442923 -0.607268
O50   O     O_3   0.987710 0.272412 0.550758 -0.620598
O51   O     O_3   0.467822 0.770631 0.946332 -0.603256
O52   O     O_3   0.436721 0.766545 0.052954 -0.582779
O53   O     O_3   0.824268 0.219068 0.659775 -0.557327
O54   O     O_3   0.112721 0.283238 0.289356 -0.547332
O55   O     O_3   0.109600 0.288933 0.721959 -0.566280
O56   O     O_R   0.085480 0.146190 0.719690 -0.520331
O57   O     O_3   0.895537 0.285935 0.234918 -0.546725
O58   O     O_3   0.331758 0.728889 0.161307 -0.535470
O59   O     O_3   0.674240 0.721283 0.839577 -0.550077
O60   O     O_3   0.610335 0.787783 0.218649 -0.560766
O61   O     O_3   0.396011 0.790054 0.750174 -0.555164
O62   O     O_3   0.784838 0.177145 0.841626 -0.555857
O63   O     O_3   0.290206 0.103372 0.240456 -0.544837
O64   O     O_3   0.286726 0.105694 0.777181 -0.545383
O65   O     O_3   0.711115 0.102280 0.263204 -0.564550
O66   O     O_3   0.239687 0.636430 0.320852 -0.535456
O67   O     O_R   0.085480 0.146190 0.280310 -0.495355
O68   O     O_3   0.712815 0.680951 0.656509 -0.529301
O69   O     O_3   0.785402 0.607431 0.281768 -0.544694
O70   O     O_3   0.210542 0.601680 0.745612 -0.555214
O71   O     O_3   0.161387 0.765072 0.337067 -0.539773
O72   O     O_3   0.819439 0.784841 0.656469 -0.513354
O73   O     O_3   0.891969 0.712913 0.281453 -0.543310
O74   O     O_3   0.102521 0.708874 0.745417 -0.542763
O75   O     O_3   0.682702 0.288823 0.843252 -0.546793
O76   O     O_3   0.391233 0.211488 0.216557 -0.543463
O77   O     O_3   0.393433 0.212045 0.778312 -0.543263
O78   O     O_R   0.914520 0.146190 0.719690 -0.525784
O79   O     O_3   0.602385 0.210437 0.260084 -0.559179
O80   O     O_3   0.110550 0.927213 0.053283 -0.554857
O81   O     O_3   0.895607 0.081613 0.946760 -0.545231
O82   O     O_3   0.891704 0.076509 0.052548 -0.544650
O83   O     O_3   0.104723 0.917834 0.946932 -0.552546
O84   O     O_3   0.627405 0.457145 0.551294 -0.547245
O85   O     O_3   0.395216 0.579998 0.447995 -0.556230
O86   O     O_3   0.381876 0.559851 0.551944 -0.539140
O87   O     O_3   0.618733 0.438705 0.447452 -0.539976
O88   O     O_R   0.414520 0.646190 0.780310 -0.538089
Zn1   Zn    Zn3+2 0.000000 0.913250 0.293350 0.943644
Zn2   Zn    Zn3+2 0.586770 0.499990 0.293420 0.932485
Zn3   Zn    Zn3+2 0.586770 0.499990 0.706580 0.929688
Zn4   Zn    Zn3+2 0.413230 0.499990 0.293420 0.930031
Zn5   Zn    Zn3+2 0.000000 0.086780 0.293330 0.954195
Zn6   Zn    Zn3+2 0.000000 0.086780 0.706670 0.926446
Zn7   Zn    Zn3+2 0.500000 0.586780 0.793330 0.934374
Zn8   Zn    Zn3+2 0.500000 0.586780 0.206670 0.929987
Zn9   Zn    Zn3+2 1.000000 0.913250 0.706650 0.952378
Zn10  Zn    Zn3+2 0.500000 0.413250 0.793350 0.950773
Zn11  Zn    Zn3+2 0.500000 0.413250 0.206650 0.921370
Zn12  Zn    Zn3+2 0.913230 0.999990 0.206580 0.939701
Zn13  Zn    Zn3+2 0.086770 0.999990 0.793420 0.930928
Zn14  Zn    Zn3+2 0.086770 0.999990 0.206580 0.919396
Zn15  Zn    Zn3+2 0.913230 0.999990 0.793420 0.923386
Zn16  Zn    Zn3+2 0.413230 0.499990 0.706580 0.933540

loop_
_geom_bond_atom_site_label_1
_geom_bond_atom_site_label_2
_ccdc_geom_bond_type
C31   H201  S    
C2    C143  A    
C164  O27   A    
C52   O66   S    
C106  H148  S    
C167  O8    A    
C25   H186  S    
C185  O49   S    
C110  C118  A    
C6    C196  A    
C176  O39   A    
C4    C194  A    
C72   H65   S    
C18   O52   S    
C133  O71   S    
C11   H154  S    
C39   H218  S    
C189  O52   S    
C9    H113  S    
C106  C107  S    
O44   Zn1   S    
C37   H212  S    
C63   H45   S    
C124  O62   S    
C94   H119  S    
C151  O81   S    
C169  O21   A    
C73   C74   S    
C68   C149  A    
C89   H108  S    
C134  C143  A    
C113  C122  A    
C18   H170  S    
C20   H175  S    
C48   O62   S    
C8    O49   S    
C175  O4    A    
C129  O68   S    
C90   C116  A    
C117  C126  A    
C104  H142  S    
C26   H187  S    
C8    H90   S    
C119  C128  A    
C50   O64   S    
O13   Zn11  S    
C49   H8    S    
C80   H85   S    
O34   Zn2   S    
C21   C22   S    
C155  C158  A    
C97   H127  S    
C105  H144  S    
C104  C105  S    
C181  H182  S    
C45   C47   S    
C155  C162  A    
C139  C148  A    
C81   H86   S    
C156  O85   S    
C124  C137  A    
C88   H106  S    
C78   H82   S    
C158  O87   S    
C33   H206  S    
O10   Zn11  S    
C90   O54   S    
O23   Zn3   S    
C183  H204  S    
C31   H200  S    
C28   H194  S    
C100  H134  S    
O37   Zn2   S    
C52   H19   S    
C47   H235  S    
C62   H43   S    
C27   H191  S    
C44   O61   S    
C160  C172  S    
C131  O78   A    
C23   H181  S    
C68   C110  A    
C19   H172  S    
C82   H91   S    
C31   O57   S    
C64   H48   S    
O36   Zn16  S    
C139  O77   S    
C169  O10   A    
C53   H20   S    
C114  O61   S    
C102  H137  S    
C95   H121  S    
C108  H152  S    
O40   Zn5   S    
C39   C40   S    
C70   C71   S    
O30   Zn2   S    
C99   H131  S    
C72   H67   S    
C32   H202  S    
C4    C5    A    
C55   O70   S    
C110  O57   S    
C6    C7    A    
C92   H111  S    
C125  C138  A    
C125  O63   S    
C19   C20   S    
C191  C194  A    
C30   H197  S    
C183  C188  A    
C32   C33   S    
C142  O88   A    
C135  O73   S    
C76   H77   S    
C22   H179  S    
C56   O71   S    
C52   H17   S    
C73   H70   S    
O11   Zn10  S    
C37   H213  S    
O23   Zn10  S    
C84   H94   S    
O34   Zn8   S    
C70   H62   S    
C170  O18   A    
C22   C23   S    
C14   H161  S    
C182  C190  A    
C157  C162  A    
C55   H28   S    
C166  O14   A    
C50   H12   S    
C65   H50   S    
C66   H54   S    
O18   Zn16  S    
C190  C191  A    
C79   C115  A    
C123  C132  A    
C81   H87   S    
C21   O53   S    
C97   C98   S    
C83   H93   S    
C86   H100  S    
C101  O55   S    
C26   H188  S    
C103  H140  S    
C76   O77   S    
C28   O55   S    
C33   H205  S    
C36   C37   S    
C63   O73   S    
C95   H120  S    
C60   O72   S    
C24   C145  A    
C41   H223  S    
C38   C39   S    
C27   H189  S    
C185  C187  A    
C98   H130  S    
C71   H63   S    
C34   O58   S    
C48   H6    S    
C123  C142  S    
C111  C119  A    
C13   C144  A    
C11   H155  S    
C82   H89   S    
C39   H219  S    
C40   H220  S    
C70   H61   S    
O15   Zn13  S    
C83   C84   S    
C58   H32   S    
C165  O17   A    
C107  C108  S    
C36   H211  S    
C30   H199  S    
C89   C91   S    
C107  H150  S    
C9    C10   S    
C188  O51   S    
C66   C67   S    
C126  O64   S    
C40   H221  S    
C20   H174  S    
C47   H3    S    
C59   H37   S    
C60   H39   S    
C106  O87   S    
C7    H171  S    
C69   H58   S    
C53   H21   S    
C93   H116  S    
C126  C139  A    
C166  O7    A    
C13   H13   S    
C29   H196  S    
C91   C92   S    
C161  C176  S    
C12   H156  S    
C54   H25   S    
C25   C26   S    
C70   O75   S    
O78   Zn6   S    
C116  C120  S    
C151  C159  A    
C3    C180  S    
O67   Zn5   S    
C29   C30   S    
C80   O79   S    
C128  O66   S    
C74   H71   S    
C31   C32   S    
O22   Zn14  S    
C53   O68   S    
C38   H216  S    
C132  C136  A    
C193  C196  A    
C85   H97   S    
C52   H18   S    
C14   H159  S    
C43   H228  S    
O4    Zn8   S    
C190  C195  A    
C114  C123  A    
C91   H109  S    
C65   H52   S    
C156  C161  A    
C116  C125  A    
C17   H167  S    
C122  C153  S    
O56   Zn6   S    
C118  C127  A    
C19   H173  S    
C50   H10   S    
C68   H68   S    
C171  O13   A    
O23   Zn7   S    
C142  O29   A    
O48   Zn11  S    
C4    H1    S    
C111  C186  A    
C33   H207  S    
O12   Zn6   S    
C149  C171  S    
C34   H208  S    
C16   H164  S    
C44   H232  S    
C97   H126  S    
C5    H112  S    
C163  O16   A    
C75   H74   S    
C57   C101  A    
C72   H66   S    
O42   Zn7   S    
O7    Zn1   S    
C55   H29   S    
O21   Zn4   S    
C157  O86   S    
C154  C159  A    
C3    C192  A    
C177  O40   A    
O47   Zn10  S    
C35   C79   A    
C137  O75   S    
C43   H230  S    
C56   C58   S    
C34   C36   S    
C57   H57   S    
C61   C62   S    
C25   O54   S    
C44   H231  S    
C89   H107  S    
C63   C64   S    
C127  C140  A    
O16   Zn14  S    
C20   H176  S    
C63   H47   S    
C141  C186  A    
C45   H234  S    
C140  C149  A    
C69   H60   S    
C179  O47   A    
C92   H115  S    
C51   O65   S    
C87   C88   S    
C49   H7    S    
C86   O81   S    
C45   H233  S    
C41   C42   S    
C150  O80   S    
C130  C135  A    
C105  H143  S    
O39   Zn4   S    
C109  C117  S    
C54   H23   S    
C77   C78   S    
C24   C114  A    
C2    C112  A    
C26   C27   S    
C21   H178  S    
C164  O3    A    
C150  C160  A    
C48   H4    S    
C184  H215  S    
C1    O45   A    
C28   C29   S    
C78   H83   S    
C3    C7    A    
C179  O42   A    
O12   Zn9   S    
C177  O44   A    
O33   Zn14  S    
C62   H44   S    
C42   H227  S    
C18   C19   S    
C85   H96   S    
C153  O2    A    
C143  C165  S    
C168  O9    A    
C158  C161  A    
C119  C175  S    
C51   H16   S    
C89   O82   S    
C16   C17   S    
C32   H203  S    
C151  C152  A    
C184  C192  A    
C23   H184  S    
C88   H104  S    
C41   O60   S    
C9    H101  S    
C67   H56   S    
C82   H88   S    
O14   Zn12  S    
C106  H147  S    
C102  H138  S    
C36   H210  S    
C11   O50   S    
C103  O86   S    
O2    Zn8   S    
C180  O48   A    
C179  C196  S    
O28   Zn4   S    
C15   H162  S    
O32   Zn13  S    
C177  C194  S    
C153  O30   A    
C60   H38   S    
C84   C85   S    
C168  O20   A    
C86   C87   S    
C178  O46   A    
C115  C131  S    
C58   C59   S    
C94   H118  S    
C144  C166  S    
C60   C61   S    
C35   C146  A    
C30   H198  S    
O1    Zn1   S    
C163  O5    A    
C137  C146  A    
C46   C147  A    
C18   H169  S    
C22   H180  S    
C73   H69   S    
C104  H141  S    
C16   H165  S    
C109  O26   A    
C49   H9    S    
O88   Zn7   S    
C138  O76   S    
C182  C187  A    
C109  O56   A    
C105  H145  S    
C42   C43   S    
C46   H46   S    
C111  O58   S    
C44   C45   S    
C55   H27   S    
C145  C167  S    
O8    Zn9   S    
C146  C168  S    
C21   H177  S    
C115  C124  A    
C56   H31   S    
C93   O83   S    
C87   H102  S    
C77   H78   S    
C88   H105  S    
C78   H81   S    
C121  C129  A    
C170  O11   A    
C46   C90   A    
C100  H133  S    
C133  C141  A    
C47   H236  S    
C62   H42   S    
C42   H225  S    
C73   O76   S    
C101  C117  A    
C64   C65   S    
C87   H103  S    
O27   Zn3   S    
C181  C191  A    
C51   H14   S    
C136  O74   S    
C75   H75   S    
C76   H76   S    
O29   Zn16  S    
C134  O72   S    
C183  C193  A    
C130  O69   S    
C35   H35   S    
C94   C95   S    
C8    H79   S    
C86   H99   S    
C129  C134  A    
C112  C121  A    
C171  O19   A    
C172  O33   A    
C57   C148  A    
C38   O59   S    
C80   H84   S    
C187  O50   S    
C102  H136  S    
C95   H122  S    
C107  H149  S    
C108  H151  S    
O41   Zn6   S    
O1    Zn12  S    
C15   O51   S    
C28   H192  S    
C120  O67   A    
C99   H132  S    
O17   Zn15  S    
C152  C160  A    
C40   H222  S    
C93   C94   S    
C10   H135  S    
C96   O84   S    
C81   C82   S    
C140  O79   S    
C92   H114  S    
C12   H157  S    
O38   Zn3   S    
C156  C157  A    
C29   H195  S    
C54   H26   S    
C15   C16   S    
O43   Zn8   S    
O19   Zn2   S    
C10   H146  S    
C103  C104  S    
C182  H193  S    
C74   H72   S    
C37   H214  S    
C34   H209  S    
C172  O31   A    
C10   H124  S    
C64   H49   S    
C38   H217  S    
C103  H139  S    
C8    C9    S    
C148  C170  S    
C112  O59   S    
C167  O15   A    
C136  C145  A    
C83   O80   S    
C5    C195  A    
C50   H11   S    
C131  O24   A    
C65   H51   S    
C66   H53   S    
C98   H128  S    
C17   H166  S    
C155  O84   S    
C77   H80   S    
C132  O70   S    
O23   Zn16  S    
C59   H36   S    
C96   H123  S    
C173  O32   A    
O12   Zn13  S    
C74   C75   S    
C152  O82   S    
C76   C77   S    
C99   O85   S    
C41   H224  S    
C27   H190  S    
C181  C185  A    
C176  O37   A    
C180  O43   A    
C75   H73   S    
C98   H129  S    
C15   H163  S    
C71   H64   S    
C121  C164  S    
C48   H5    S    
C154  O83   S    
C93   H117  S    
C188  C189  A    
C67   C69   S    
C113  O60   S    
C66   O74   S    
C178  O41   A    
C99   C100  S    
C127  O65   S    
C138  C147  A    
C49   O63   S    
O24   Zn15  S    
C1    O25   A    
C96   C97   S    
C100  C102  S    
O34   Zn11  S    
C43   H229  S    
C108  H153  S    
O1    Zn14  S    
O6    Zn9   S    
O5    Zn1   S    
C165  O6    A    
C135  C144  A    
C12   C14   S    
C175  O28   A    
C141  C163  S    
C159  C173  S    
C186  H226  S    
C174  O36   A    
O9    Zn10  S    
C24   H24   S    
O45   Zn5   S    
C69   H59   S    
C54   O69   S    
C53   H22   S    
C25   H185  S    
C79   O53   S    
O34   Zn4   S    
C2    H2    S    
C80   C81   S    
O1    Zn5   S    
C120  O22   A    
C11   C12   S    
O26   Zn13  S    
O31   Zn12  S    
C162  C174  S    
O3    Zn7   S    
C178  C195  S    
C56   H30   S    
C61   H41   S    
C192  C193  A    
O46   Zn9   S    
C58   H33   S    
C128  C133  A    
C173  O35   A    
C84   H95   S    
C85   H98   S    
C96   H125  S    
C14   H158  S    
O35   Zn15  S    
C1    C118  S    
O25   Zn12  S    
C91   H110  S    
C51   H15   S    
C71   C72   S    
C150  C154  A    
C17   H168  S    
C61   H40   S    
C184  C189  A    
O20   Zn3   S    
C23   H183  S    
C59   H34   S    
C122  C130  A    
C13   C113  A    
C83   H92   S    
C147  C169  S    
C6    H160  S    
C174  O38   A    
O12   Zn15  S    
C67   H55   S    
