data_mof_unit_68070.cif
_audit_creation_date              2013-03-05T15:44:05-0500
_audit_creation_method            fapswitch 2.2
_symmetry_space_group_name_H-M    P1
_symmetry_Int_Tables_number       1
_space_group_crystal_system       triclinic
_cell_length_a                    7.131034
_cell_length_b                    18.321127
_cell_length_c                    18.435773
_cell_angle_alpha                 90.088257
_cell_angle_beta                  90.292524
_cell_angle_gamma                 91.247057
_cell_volume                      2408.00239823

loop_
_atom_site_label
_atom_site_type_symbol
_atom_site_description
_atom_site_fract_x
_atom_site_fract_y
_atom_site_fract_z
_atom_type_partial_charge
O1    O     O_R   0.377350 0.828520 0.186660 -0.565044
O2    O     O_R   0.622650 0.171480 0.813340 -0.550809
O3    O     O_R   0.122650 0.171480 0.686660 -0.556625
O4    O     O_R   0.877350 0.828520 0.313340 -0.546715
O5    O     O_R   0.877350 0.671480 0.313340 -0.574275
O6    O     O_R   0.122650 0.328520 0.686660 -0.549512
O7    O     O_R   0.622650 0.328520 0.813340 -0.566873
O8    O     O_R   0.377350 0.671480 0.186660 -0.543536
O9    O     O_R   0.707090 0.671930 0.178410 -0.559723
O10   O     O_R   0.292910 0.328070 0.821590 -0.543284
O11   O     O_R   0.792910 0.328070 0.678410 -0.558712
O12   O     O_R   0.207090 0.671930 0.321590 -0.529556
O13   O     O_R   0.207090 0.828070 0.321590 -0.555107
O14   O     O_R   0.792910 0.171930 0.678410 -0.545357
O15   O     O_R   0.292910 0.171930 0.821590 -0.548282
O16   O     O_R   0.707090 0.828070 0.178410 -0.538409
C1    C     C_R   0.536163 0.644644 0.163839 0.862183
C2    C     C_R   0.462741 0.352409 0.839966 0.847246
C3    C     C_R   0.963749 0.352986 0.660736 0.854778
C4    C     C_R   0.038795 0.645189 0.337135 0.854595
C5    C     C_R   0.041262 0.857280 0.333547 0.856593
C6    C     C_R   0.958650 0.146335 0.660331 0.840204
C7    C     C_R   0.460376 0.145875 0.838862 0.846377
C8    C     C_R   0.541258 0.857157 0.166493 0.851532
O17   O     O_3   0.543850 0.750000 0.294270 -0.268879
O18   O     O_3   0.456150 0.250000 0.705730 -0.266680
O19   O     O_3   0.956150 0.250000 0.794270 -0.260290
O20   O     O_3   0.043850 0.750000 0.205730 -0.272345
V1    V     V_3+5 0.818700 0.750000 0.241790 1.182660
V2    V     V_3+5 0.181300 0.250000 0.758210 1.187867
V3    V     V_3+5 0.681300 0.250000 0.741790 1.180754
V4    V     V_3+5 0.318700 0.750000 0.258210 1.189388
C9    C     C_R   0.979303 0.417927 0.611151 -0.157243
C10   C     C_R   0.031289 0.577250 0.382363 -0.160563
C11   C     C_R   0.520276 0.577378 0.117502 -0.160278
C12   C     C_R   0.473951 0.417747 0.888582 -0.154061
C13   C     C_R   0.464814 0.082842 0.892739 -0.159820
C14   C     C_R   0.536297 0.925504 0.122151 -0.160247
C15   C     C_R   0.040081 0.927043 0.376677 -0.156961
C16   C     C_R   0.955959 0.084137 0.605013 -0.164815
C17   C     C_R   0.960026 0.448149 0.408316 0.178634
C18   C     C_R   0.003032 0.549068 0.583939 0.181327
C19   C     C_R   0.552180 0.545323 0.918382 0.168647
C20   C     C_R   0.515246 0.445266 0.092461 0.188674
C21   C     C_R   0.474450 0.055315 0.096479 0.176061
C22   C     C_R   0.441867 0.952856 0.926886 0.174387
C23   C     C_R   0.941097 0.955422 0.568394 0.173403
C24   C     C_R   0.018769 0.059824 0.399271 0.184986
C25   C     C_R   0.988287 0.505085 0.354358 -0.077990
C26   C     C_R   0.987640 0.491866 0.637385 -0.070719
C27   C     C_R   0.520944 0.490339 0.862870 -0.074549
C28   C     C_R   0.524339 0.503914 0.145094 -0.072577
C29   C     C_R   0.498391 0.997785 0.150115 -0.079501
C30   C     C_R   0.428953 0.007932 0.872384 -0.069549
C31   C     C_R   0.937471 0.008405 0.624877 -0.073573
C32   C     C_R   0.023381 0.999661 0.347324 -0.067943
C33   C     C_R   0.070411 0.586240 0.457056 0.180155
C34   C     C_R   0.004283 0.404705 0.536060 0.183207
C35   C     C_R   0.445735 0.404961 0.963940 0.164556
C36   C     C_R   0.492503 0.588189 0.042826 0.176695
C37   C     C_R   0.554308 0.915097 0.047064 0.168388
C38   C     C_R   0.509680 0.097667 0.966784 0.185595
C39   C     C_R   0.946910 0.100615 0.529185 0.188358
C40   C     C_R   0.059845 0.919705 0.451421 0.166615
C41   C     C_R   0.018716 0.532822 0.508525 -0.029942
C42   C     C_R   0.991290 0.461408 0.484033 -0.028123
C43   C     C_R   0.489921 0.459481 0.016643 -0.028078
C44   C     C_R   0.510812 0.531129 0.992278 -0.031427
C45   C     C_R   0.502159 0.969666 0.997701 -0.035269
C46   C     C_R   0.498167 0.041833 0.020859 -0.025094
C47   C     C_R   0.988123 0.046297 0.475157 -0.026718
C48   C     C_R   0.000749 0.974216 0.498803 -0.031053
I1    I     I_    0.186189 0.317522 0.510120 -0.328399
I2    I     I_    0.315708 0.649173 0.482996 -0.360778
I3    I     I_    0.320609 0.676298 0.011612 -0.304440
I4    I     I_    0.255643 0.317074 0.991832 -0.326065
I5    I     I_    0.690069 0.189605 0.987672 -0.313847
I6    I     I_    0.723957 0.826934 0.010057 -0.309162
I7    I     I_    0.238046 0.838255 0.492879 -0.333747
I8    I     I_    0.769131 0.188694 0.503646 -0.323248
C49   C     C_R   0.005535 0.508738 0.718734 0.044214
C50   C     C_R   0.109807 0.569888 0.744212 -0.026522
C51   C     C_R   0.138078 0.582853 0.818415 -0.024148
C52   C     C_R   0.081918 0.530844 0.869070 -0.033594
C53   C     C_R   0.976014 0.470820 0.846432 -0.042433
C54   C     C_R   0.931552 0.462159 0.773109 -0.057538
H1    H     H_    0.179436 0.606581 0.707492 0.112775
H2    H     H_    0.212049 0.631735 0.836545 0.130801
H3    H     H_    0.112185 0.538883 0.926138 0.107485
H4    H     H_    0.921423 0.432406 0.886035 0.108316
H5    H     H_    0.832934 0.419959 0.761167 0.102215
C55   C     C_R   0.993830 0.486820 0.271830 0.032709
C56   C     C_R   0.017376 0.414180 0.247272 -0.026786
C57   C     C_R   0.035183 0.396308 0.173858 -0.015261
C58   C     C_R   0.028376 0.450058 0.121146 -0.042992
C59   C     C_R   0.007072 0.521775 0.141886 -0.078170
C60   C     C_R   0.992186 0.539891 0.215137 -0.083661
H6    H     H_    0.046179 0.370468 0.283687 0.123820
H7    H     H_    0.059251 0.340303 0.158135 0.161533
H8    H     H_    0.039938 0.436455 0.064327 0.116610
H9    H     H_    0.002247 0.564028 0.100908 0.122809
H10   H     H_    0.976925 0.596470 0.222460 0.114474
C61   C     C_R   0.513297 0.488156 0.226889 0.043082
C62   C     C_R   0.426352 0.423897 0.253943 -0.016276
C63   C     C_R   0.393322 0.413475 0.328102 -0.027691
C64   C     C_R   0.444941 0.467238 0.377930 -0.035456
C65   C     C_R   0.541517 0.528877 0.353980 -0.039499
C66   C     C_R   0.576971 0.538337 0.280246 -0.063235
H11   H     H_    0.372017 0.382207 0.218488 0.115146
H12   H     H_    0.326201 0.363511 0.346901 0.148810
H13   H     H_    0.418658 0.459464 0.435202 0.109652
H14   H     H_    0.595361 0.568558 0.392700 0.117674
H15   H     H_    0.662768 0.583889 0.267258 0.095954
C67   C     C_R   0.522231 0.511141 0.781066 0.025449
C68   C     C_R   0.533732 0.585323 0.759181 -0.046715
C69   C     C_R   0.542949 0.606283 0.686604 -0.018621
C70   C     C_R   0.538829 0.554032 0.632152 -0.035372
C71   C     C_R   0.510501 0.481577 0.649829 -0.090291
C72   C     C_R   0.496945 0.460637 0.722256 -0.076818
H16   H     H_    0.513247 0.629208 0.796153 0.120459
H17   H     H_    0.548056 0.663678 0.672691 0.147826
H18   H     H_    0.555375 0.569382 0.576167 0.132791
H19   H     H_    0.498282 0.441086 0.607067 0.115637
H20   H     H_    0.466076 0.404163 0.726669 0.115286
C73   C     C_R   0.415865 0.984055 0.794258 0.035363
C74   C     C_R   0.493092 0.917490 0.771916 -0.041089
C75   C     C_R   0.486352 0.895947 0.699783 -0.029019
C76   C     C_R   0.432818 0.945450 0.646622 -0.041064
C77   C     C_R   0.364463 0.012527 0.666717 -0.082057
C78   C     C_R   0.339713 0.028115 0.739907 -0.084682
H21   H     H_    0.562710 0.881915 0.809455 0.127853
H22   H     H_    0.530629 0.841824 0.685724 0.143301
H23   H     H_    0.442056 0.932300 0.589938 0.139667
H24   H     H_    0.319359 0.050237 0.625502 0.101181
H25   H     H_    0.251783 0.071961 0.753102 0.116991
C79   C     C_R   0.502129 0.015757 0.232347 0.030223
C80   C     C_R   0.532909 0.088293 0.257302 -0.024678
C81   C     C_R   0.548754 0.105931 0.330905 -0.009470
C82   C     C_R   0.532778 0.051903 0.383201 -0.045389
C83   C     C_R   0.506988 0.980158 0.361774 -0.077692
C84   C     C_R   0.491606 0.962403 0.288357 -0.088415
H26   H     H_    0.569656 0.131898 0.221147 0.120988
H27   H     H_    0.577668 0.161900 0.347053 0.166928
H28   H     H_    0.542463 0.065107 0.440230 0.118561
H29   H     H_    0.499178 0.937665 0.402340 0.129637
H30   H     H_    0.469873 0.906006 0.279814 0.110411
C85   C     C_R   0.013373 0.012780 0.265105 0.041905
C86   C     C_R   0.933753 0.076225 0.236190 -0.016183
C87   C     C_R   0.902320 0.084924 0.161718 -0.027900
C88   C     C_R   0.951308 0.030560 0.113170 -0.041153
C89   C     C_R   0.040011 0.969195 0.138943 -0.043856
C90   C     C_R   0.074208 0.961469 0.213202 -0.059431
H31   H     H_    0.883838 0.118605 0.270512 0.111976
H32   H     H_    0.838295 0.134030 0.141795 0.146176
H33   H     H_    0.926076 0.037097 0.055622 0.104141
H34   H     H_    0.086846 0.928142 0.101217 0.122487
H35   H     H_    0.156183 0.916233 0.227592 0.086113
C91   C     C_R   0.926608 0.981578 0.702013 0.034134
C92   C     C_R   0.997596 0.912530 0.720044 -0.033633
C93   C     C_R   0.981300 0.884957 0.789900 -0.021923
C94   C     C_R   0.922033 0.929954 0.845877 -0.041556
C95   C     C_R   0.865279 0.000100 0.830778 -0.086929
C96   C     C_R   0.853014 0.023171 0.759027 -0.086798
H36   H     H_    0.067139 0.879280 0.680437 0.135550
H37   H     H_    0.022423 0.829574 0.800747 0.148223
H38   H     H_    0.919468 0.910841 0.900974 0.147172
H39   H     H_    0.819659 0.034825 0.874362 0.098162
H40   H     H_    0.777177 0.071375 0.749546 0.115049
I9    I     I_    0.796693 0.350388 0.386630 -0.386992
I10   I     I_    0.941295 0.660897 0.608915 -0.393980
I11   I     I_    0.739950 0.639412 0.907365 -0.394845
I12   I     I_    0.621859 0.340027 0.119739 -0.380889
I13   I     I_    0.319794 0.152796 0.117849 -0.376131
I14   I     I_    0.299360 0.849376 0.915270 -0.412899
I15   I     I_    0.792383 0.852069 0.572942 -0.401600
I16   I     I_    0.128029 0.166216 0.371473 -0.384464

loop_
_geom_bond_atom_site_label_1
_geom_bond_atom_site_label_2
_geom_bond_distance
_ccdc_geom_bond_type
C66   H15   1.052625 S    
C80   H26   1.070281 S    
C28   C61   1.537871 S    
C74   C75   1.386886 A    
C65   H14   1.081188 S    
C38   I5    2.130461 S    
C58   C59   1.379654 A    
C70   H18   1.076560 S    
C56   H6    1.068480 S    
O14   V3    2.024475 S    
C63   H12   1.082004 S    
C12   C35   1.423820 A    
C76   C77   1.382618 A    
C67   C68   1.419084 A    
O5    C4    1.330237 A    
C72   H20   1.056483 S    
C15   C40   1.391445 A    
O11   C3    1.333796 A    
C9    C34   1.417828 A    
C16   C39   1.432043 A    
C57   H7    1.083311 S    
O20   V1    1.740876 S    
C77   C78   1.391689 A    
C81   H27   1.082519 S    
C92   C93   1.388601 A    
C62   H11   1.069477 S    
C64   C65   1.383961 A    
C68   C69   1.394081 A    
C69   C70   1.385832 A    
C38   C46   1.430831 A    
C71   C72   1.393098 A    
C22   C45   1.404060 A    
C18   I10   2.154527 S    
C35   C43   1.421715 A    
C75   H22   1.078801 S    
C73   C78   1.402350 A    
C34   C42   1.419220 A    
C31   C91   1.507149 S    
C85   C86   1.408980 A    
C19   C44   1.418615 A    
C18   C41   1.426815 A    
C8    C14   1.497447 S    
C65   C66   1.394310 A    
C22   I14   2.141385 S    
C61   C66   1.411915 A    
C49   C54   1.414193 A    
O9    V1    1.995095 S    
C39   I8    2.125615 S    
C14   C37   1.403976 A    
C4    C10   1.499388 S    
C20   C28   1.446869 A    
O17   V4    1.734604 S    
O15   C7    1.332961 A    
C51   H2    1.081072 S    
O11   V3    2.002421 S    
O18   V3    1.734604 S    
O16   C8    1.325070 A    
C59   H9    1.083454 S    
O12   V4    2.002422 S    
O19   V2    1.740876 S    
O12   C4    1.319390 A    
C57   C58   1.385996 A    
C29   C79   1.550842 S    
C17   C25   1.454096 A    
C62   C63   1.401166 A    
C55   C60   1.428788 A    
C49   C50   1.409679 A    
O5    V1    2.002696 S    
C64   H13   1.082400 S    
O17   V1    2.190182 S    
C30   C73   1.506479 S    
C27   C67   1.556131 S    
O7    V3    2.002588 S    
C69   H17   1.082641 S    
O19   V3    2.181323 S    
C43   C44   1.393205 A    
O8    V4    2.002590 S    
O20   V4    2.181323 S    
C83   C84   1.394760 A    
C3    C9    1.504053 S    
C19   I11   2.170040 S    
C58   H8    1.080356 S    
O16   V1    2.022325 S    
C53   C54   1.394890 A    
O13   V4    2.024474 S    
C17   I9    2.150967 S    
O1    V4    1.992404 S    
C77   H24   1.080233 S    
C11   C36   1.404825 A    
C33   I2    2.125993 S    
O3    V2    1.986636 S    
C87   H32   1.081651 S    
C20   I12   2.147398 S    
C79   C84   1.424106 A    
O6    C3    1.315511 A    
C21   I13   2.156190 S    
C10   C33   1.412275 A    
C82   H28   1.080014 S    
O10   V2    1.995094 S    
C51   C52   1.389382 A    
C5    C15   1.504440 S    
C37   I6    2.151298 S    
C89   C90   1.397281 A    
O7    C2    1.326503 A    
C6    C16   1.527824 S    
C59   C60   1.395253 A    
C22   C30   1.429151 A    
O13   C5    1.327853 A    
C56   C57   1.399054 A    
C89   H34   1.082910 S    
C52   C53   1.383135 A    
C12   C27   1.445671 A    
C91   C96   1.407647 A    
C18   C26   1.442401 A    
C13   C30   1.439427 A    
C84   H30   1.052968 S    
O9    C1    1.333219 A    
O6    V2    2.002695 S    
C78   H25   1.058542 S    
C39   C47   1.442749 A    
C68   H16   1.066225 S    
C88   H33   1.082444 S    
C73   C74   1.410742 A    
C40   I7    2.121781 S    
C86   C87   1.399889 A    
C86   H31   1.069005 S    
C25   C55   1.558202 S    
C75   C76   1.393847 A    
C15   C32   1.444144 A    
C11   C28   1.440412 A    
C82   C83   1.380143 A    
O15   V2    2.022326 S    
C23   C31   1.423203 A    
C95   C96   1.392208 A    
C80   C81   1.397832 A    
C37   C45   1.407679 A    
C24   C32   1.460080 A    
C90   H35   1.057883 S    
C10   C25   1.444745 A    
C21   C46   1.427014 A    
C88   C89   1.385426 A    
C67   C72   1.432420 A    
C33   C41   1.408826 A    
C79   C80   1.417839 A    
C20   C43   1.433450 A    
C16   C31   1.439001 A    
C83   H29   1.081136 S    
O4    V1    1.986634 S    
C53   H4    1.082828 S    
O18   V2    2.190182 S    
C17   C42   1.432010 A    
C63   C64   1.388367 A    
C36   I3    2.126347 S    
C70   C71   1.378227 A    
O8    C1    1.315203 A    
C54   H5    1.055951 S    
C93   C94   1.392923 A    
O14   C6    1.324960 A    
C32   C85   1.536618 S    
C93   H37   1.080987 S    
C85   C90   1.416612 A    
C9    C26   1.437604 A    
C47   C48   1.395945 A    
C41   C42   1.392906 A    
C7    C13   1.525137 S    
C87   C88   1.389505 A    
O4    C5    1.323180 A    
C19   C27   1.447927 A    
C91   C92   1.412285 A    
C14   C29   1.451700 A    
C94   C95   1.383998 A    
C74   H21   1.078051 S    
O10   C2    1.323688 A    
C35   I4    2.146941 S    
C55   C56   1.418796 A    
C96   H40   1.059831 S    
O2    C7    1.327826 A    
C71   H19   1.083560 S    
C40   C48   1.399077 A    
C26   C49   1.534898 S    
C45   C46   1.389708 A    
C23   C48   1.395015 A    
C81   C82   1.386166 A    
C94   H38   1.075054 S    
C21   C29   1.458483 A    
C95   H39   1.079964 S    
C24   C47   1.438156 A    
C36   C44   1.408019 A    
O1    C8    1.325903 A    
C50   C51   1.400917 A    
C52   H3    1.082135 S    
C61   C62   1.411515 A    
C13   C38   1.424850 A    
C92   H36   1.079657 S    
O2    V3    1.992406 S    
O3    C6    1.336268 A    
C1    C11   1.500357 S    
C76   H23   1.074732 S    
C2    C12   1.494804 S    
C60   H10   1.053195 S    
C23   I15   2.152025 S    
C50   H1    1.071004 S    
C34   I1    2.134683 S    
C24   I16   2.147145 S    
