data_mof_unit_52431.cif
_audit_creation_date              2013-03-05T16:25:43-0500
_audit_creation_method            fapswitch 2.2
_symmetry_space_group_name_H-M    P1
_symmetry_Int_Tables_number       1
_space_group_crystal_system       triclinic
_cell_length_a                    10.854973
_cell_length_b                    15.102821
_cell_length_c                    13.84612
_cell_angle_alpha                 89.717773
_cell_angle_beta                  90.457847
_cell_angle_gamma                 90.170685
_cell_volume                      2269.8329824

loop_
_atom_site_label
_atom_site_type_symbol
_atom_site_description
_atom_site_fract_x
_atom_site_fract_y
_atom_site_fract_z
_atom_type_partial_charge
O1    O     O_R   0.500010 0.371450 0.581430 -0.598414
O2    O     O_R   0.499990 0.628550 0.418570 -0.587012
O3    O     O_R   0.500010 0.371460 0.418560 -0.574326
O4    O     O_R   0.499990 0.628540 0.581440 -0.584252
C1    C     C_R   0.499634 0.329846 0.500316 0.812376
C2    C     C_R   0.499906 0.670230 0.499805 0.814424
O5    O     O_R   0.319640 0.500000 0.581430 -0.578316
O6    O     O_R   0.680360 0.500000 0.418570 -0.594067
O7    O     O_R   0.319640 0.500010 0.418560 -0.585159
O8    O     O_R   0.680360 0.499990 0.581440 -0.575480
C3    C     C_R   0.262053 0.502137 0.499308 0.801570
C4    C     C_R   0.737755 0.497385 0.500567 0.795972
Cu1   Cu    Cu3+1 0.500000 0.499990 0.596430 0.961964
Cu2   Cu    Cu3+1 0.500000 0.500010 0.403570 0.958842
C5    C     C_R   0.229891 0.671119 0.232679 -0.177894
C6    C     C_R   0.754587 0.313634 0.744472 -0.178651
H1    H     H_    0.282491 0.731941 0.231682 0.199598
H2    H     H_    0.699734 0.254092 0.736615 0.180144
C7    C     C_R   0.183507 0.639880 0.320547 -0.160625
C8    C     C_R   0.811494 0.349439 0.662873 -0.155421
H3    H     H_    0.200878 0.677049 0.385989 0.141003
H4    H     H_    0.799513 0.317106 0.593744 0.131978
C9    C     C_R   0.114427 0.561268 0.323663 0.129462
C10   C     C_R   0.881983 0.427245 0.670108 0.126161
C11   C     C_R   0.090282 0.515570 0.237476 -0.232007
C12   C     C_R   0.896816 0.467690 0.760448 -0.207486
H5    H     H_    0.035805 0.455362 0.238282 0.170189
H6    H     H_    0.950911 0.527741 0.767347 0.169296
C13   C     C_R   0.136002 0.547050 0.149745 -0.231181
C14   C     C_R   0.840393 0.431700 0.842185 -0.208619
H7    H     H_    0.116481 0.510086 0.084589 0.181721
H8    H     H_    0.852504 0.464677 0.910861 0.177233
C15   C     C_R   0.207239 0.624826 0.146460 0.397169
C16   C     C_R   0.768587 0.354292 0.835102 0.394197
C17   C     C_R   0.931842 0.525258 0.418733 -0.221363
C18   C     C_R   0.067397 0.472688 0.580828 -0.212321
H9    H     H_    0.879235 0.547608 0.356307 0.161486
H10   H     H_    0.119756 0.450083 0.643244 0.167662
C19   C     C_R   0.871507 0.495168 0.501431 -0.087469
C20   C     C_R   0.128045 0.503130 0.497974 -0.086580
C21   C     C_R   0.939778 0.466666 0.583102 0.018067
C22   C     C_R   0.059331 0.529282 0.415254 0.022718
C23   C     C_R   0.425785 0.097014 0.578252 0.361311
C24   C     C_R   0.430675 0.903488 0.420470 0.360272
C25   C     C_R   0.437611 0.189235 0.578338 -0.244361
C26   C     C_R   0.443432 0.811423 0.420008 -0.250117
H11   H     H_    0.397455 0.226935 0.636497 0.180814
H12   H     H_    0.408494 0.774104 0.359305 0.172816
C27   C     C_R   0.494720 0.233397 0.501475 -0.106273
C28   C     C_R   0.495242 0.766823 0.499259 -0.095333
C29   C     C_R   0.543999 0.185257 0.425090 -0.160502
C30   C     C_R   0.538782 0.814682 0.578778 -0.151471
H13   H     H_    0.589309 0.218547 0.365629 0.173210
H14   H     H_    0.579962 0.781212 0.640373 0.156792
C31   C     C_R   0.537334 0.093475 0.425880 -0.121964
C32   C     C_R   0.531782 0.906478 0.578540 -0.121657
H15   H     H_    0.579027 0.057020 0.367441 0.171066
H16   H     H_    0.569389 0.942714 0.639405 0.168837
C33   C     C_R   0.477568 0.048716 0.501285 0.014428
C34   C     C_R   0.477146 0.951498 0.500421 0.017655
C35   C     C_R   0.590771 0.545984 0.108389 -0.212269
C36   C     C_R   0.446437 0.429875 0.891921 -0.192735
H17   H     H_    0.664328 0.581571 0.072950 0.131089
H18   H     H_    0.405923 0.373133 0.927540 0.162059
C37   C     C_R   0.587921 0.546207 0.209837 0.097609
C38   C     C_R   0.446220 0.431867 0.790453 0.086355
H19   H     H_    0.657041 0.583098 0.249553 0.124481
H20   H     H_    0.403320 0.378204 0.751096 0.132486
N1    N     N_R   0.500000 0.500020 0.258690 -0.183992
N2    N     N_R   0.500000 0.499980 0.741310 -0.182734
C39   C     C_R   0.413149 0.452844 0.209275 0.095661
C40   C     C_R   0.554489 0.567628 0.790684 0.105091
H21   H     H_    0.343816 0.416209 0.248569 0.140731
H22   H     H_    0.597832 0.621253 0.751526 0.125649
C41   C     C_R   0.411449 0.451962 0.107781 -0.230264
C42   C     C_R   0.554698 0.569082 0.892150 -0.226858
H23   H     H_    0.338299 0.415951 0.071821 0.138271
H24   H     H_    0.595741 0.625487 0.927936 0.149907
C43   C     C_R   0.501041 0.499030 0.054781 0.179259
C44   C     C_R   0.500741 0.499314 0.945339 0.156715
N3    N     N_R   0.256618 0.656311 0.056368 0.121700
O9    O     O_R   0.328472 0.725417 0.054009 -0.318507
O10   O     O_R   0.232014 0.615240 0.976037 -0.372037
N4    N     N_R   0.710696 0.317131 0.919296 0.117055
O11   O     O_R   0.640153 0.247593 0.912182 -0.335305
O12   O     O_R   0.727987 0.352426 0.003915 -0.371831
N5    N     N_R   0.358312 0.054237 0.654546 0.119899
O13   O     O_R   0.287761 0.986453 0.636256 -0.312350
O14   O     O_R   0.355534 0.089236 0.740216 -0.321225
N6    N     N_R   0.367755 0.946418 0.341261 0.116817
O15   O     O_R   0.296019 0.013706 0.356591 -0.315113
O16   O     O_R   0.369984 0.911928 0.255342 -0.327731

loop_
_geom_bond_atom_site_label_1
_geom_bond_atom_site_label_2
_geom_bond_distance
_ccdc_geom_bond_type
C38   H20   1.081062 S    
N5    O13   1.301318 A    
C31   C33   1.403280 A    
C17   C19   1.397029 A    
C40   C42   1.405174 A    
N3    O9    1.301523 A    
C19   C21   1.413138 A    
C5    C7    1.399635 A    
C9    C22   1.484483 S    
O1    C1    1.289603 A    
C36   C44   1.411151 A    
C6    C8    1.397729 A    
C7    H3    1.083231 S    
C10   C12   1.402646 A    
Cu1   N2    2.006025 S    
C13   C15   1.405137 A    
C35   C43   1.411404 A    
N1    C39   1.362005 A    
O4    Cu1   1.951514 S    
C35   H17   1.080874 S    
C17   C22   1.386250 A    
C36   H18   1.080782 S    
C6    C16   1.406719 A    
C8    C10   1.403889 A    
C24   C26   1.397792 A    
C37   H19   1.081526 S    
C28   C30   1.398415 A    
C23   C33   1.415422 A    
C20   C22   1.416973 A    
C33   C34   1.468359 S    
Cu1   Cu2   2.670363 S    
C10   C21   1.483962 S    
C1    C27   1.457482 S    
C18   C21   1.388615 A    
O2    C2    1.291662 A    
C16   N4    1.439460 S    
N3    O10   1.301651 A    
C30   H14   1.083377 S    
O5    C3    1.293494 A    
C25   H11   1.083640 S    
C11   C13   1.396600 A    
C26   H12   1.079917 S    
C39   C41   1.405400 A    
C14   C16   1.406555 A    
C18   C20   1.402120 A    
N4    O11   1.301553 A    
C40   H22   1.081074 S    
C39   H21   1.081509 S    
C36   C38   1.405091 A    
C27   C29   1.397234 A    
C32   C34   1.403176 A    
C29   H13   1.083258 S    
C7    C9    1.403021 A    
O7    Cu2   1.970424 S    
C23   C25   1.398322 A    
N6    O16   1.301465 A    
C25   C27   1.401025 A    
O6    C4    1.291162 A    
C2    C28   1.459830 S    
O7    C3    1.285869 A    
O3    Cu2   1.951514 S    
O8    C4    1.286601 A    
O4    C2    1.291152 A    
C8    H4    1.083409 S    
C12   C14   1.398016 A    
C31   H15   1.083706 S    
Cu2   N1    2.006024 S    
O1    Cu1   1.953414 S    
C24   N6    1.439914 S    
C5    H1    1.080225 S    
O6    Cu2   1.967138 S    
C17   H9    1.085140 S    
C42   C44   1.411114 A    
C42   H24   1.080773 S    
O3    C1    1.292085 A    
O8    Cu1   1.970421 S    
C11   H5    1.083262 S    
C26   C28   1.399733 A    
C12   H6    1.083167 S    
C23   N5    1.439645 S    
C4    C19   1.452316 S    
N5    O14   1.301625 A    
C13   H7    1.082421 S    
C14   H8    1.082500 S    
N6    O15   1.301399 A    
C38   N2    1.363051 A    
C15   N3    1.439716 S    
C24   C34   1.415099 A    
C37   N1    1.362599 A    
C18   H10   1.084835 S    
C32   H16   1.083542 S    
C29   C31   1.387832 A    
C9    C11   1.403975 A    
C3    C20   1.454743 S    
O2    Cu2   1.953414 S    
C43   C44   1.515307 S    
C35   C37   1.405274 A    
O5    Cu1   1.967138 S    
C6    H2    1.082485 S    
C41   H23   1.080733 S    
N4    O12   1.301593 A    
N2    C40   1.363027 A    
C41   C43   1.411307 A    
C5    C15   1.406043 A    
C30   C32   1.388680 A    
