data_mof_unit_60532.cif
_audit_creation_date              2012-10-26T20:29:08-0400
_audit_creation_method            fapswitch 2.2
_symmetry_space_group_name_H-M    P1
_symmetry_Int_Tables_number       1
_space_group_crystal_system       triclinic
_cell_length_a                    15.114156
_cell_length_b                    13.85284
_cell_length_c                    19.438932
_cell_angle_alpha                 90.000162
_cell_angle_beta                  90.136926
_cell_angle_gamma                 89.999749
_cell_volume                      4069.99503082

loop_
_atom_site_label
_atom_site_type_symbol
_atom_type_description
_atom_site_fract_x
_atom_site_fract_y
_atom_site_fract_z
_atom_type_partial_charge
C1    C     C_R   0.329865 0.499992 0.499974 0.562634
C2    C     C_R   0.951501 0.499829 0.499997 0.094228
C3    C     C_R   0.567768 0.107909 0.532582 -0.116718
C4    C     C_R   0.459654 0.892123 0.446587 -0.116957
C5    C     C_R   0.432232 0.107909 0.467417 -0.116562
C6    C     C_R   0.540347 0.892123 0.553412 -0.116958
C7    C     C_R   0.566141 0.209413 0.532417 0.065203
C8    C     C_R   0.459818 0.790617 0.447858 0.063838
C9    C     C_R   0.433859 0.209413 0.467583 0.065467
C10   C     C_R   0.540183 0.790617 0.552141 0.063799
C11   C     C_R   0.500000 0.054694 0.500000 0.026185
C12   C     C_R   0.670135 0.499992 0.500027 0.562633
C13   C     C_R   0.500000 0.945338 0.500000 0.026887
C14   C     C_R   0.499934 0.500008 0.367559 0.559642
C15   C     C_R   0.500067 0.500009 0.632441 0.559672
C16   C     C_R   0.500055 0.412574 0.744486 -0.095964
C17   C     C_R   0.500073 0.587610 0.255585 -0.097701
C18   C     C_R   0.499424 0.412568 0.255516 -0.095888
C19   C     C_R   0.500502 0.587615 0.744413 -0.097538
C20   C     C_R   0.500119 0.412490 0.816143 0.344707
C21   C     C_R   0.500038 0.587811 0.183928 0.345141
C22   C     C_R   0.499461 0.412480 0.183859 0.344583
C23   C     C_R   0.187111 0.577709 0.528658 -0.098989
C24   C     C_R   0.500506 0.587822 0.816070 0.345006
C25   C     C_R   0.500301 0.500187 0.852412 0.029276
C26   C     C_R   0.499789 0.500174 0.147590 0.029262
C27   C     C_R   0.500210 0.500061 0.708040 -0.104496
C28   C     C_R   0.499806 0.500057 0.291960 -0.104506
C29   C     C_R   0.435363 0.551947 0.963991 -0.041262
C30   C     C_R   0.564797 0.448540 0.036014 -0.041200
C31   C     C_R   0.435231 0.551942 0.035638 -0.042172
C32   C     C_R   0.564933 0.448551 0.964369 -0.042099
C33   C     C_R   0.499939 0.500224 0.072013 0.088355
C34   C     C_R   0.813003 0.422117 0.528709 -0.100921
C35   C     C_R   0.500210 0.500244 0.927991 0.088294
C36   C     C_R   0.095105 0.577306 0.529423 0.395749
C37   C     C_R   0.905022 0.422399 0.529423 0.397208
C38   C     C_R   0.904896 0.577304 0.470583 0.395861
C39   C     C_R   0.094977 0.422395 0.470592 0.397321
C40   C     C_R   0.812889 0.577706 0.471345 -0.098617
C41   C     C_R   0.186996 0.422114 0.471301 -0.100561
C42   C     C_R   0.233385 0.499949 0.499964 -0.107351
C43   C     C_R   0.766614 0.499949 0.500040 -0.107365
C44   C     C_R   0.048499 0.499828 0.500014 0.094236
Cu1   Cu    Cu3+1 0.500000 0.596430 0.500000 0.973476
Cu2   Cu    Cu3+1 0.500000 0.403570 0.500000 0.975905
F1    F     F_    0.498097 0.326826 0.850047 -0.595610
F2    F     F_    0.502158 0.673525 0.150092 -0.596654
F3    F     F_    0.497345 0.326821 0.149947 -0.595793
F4    F     F_    0.502547 0.673541 0.849909 -0.596917
F5    F     F_    0.051610 0.651554 0.559936 -0.560817
F6    F     F_    0.948655 0.348100 0.559913 -0.562036
F7    F     F_    0.948392 0.651548 0.440067 -0.560700
F8    F     F_    0.051342 0.348092 0.440108 -0.561944
H1    H     H_    0.499561 0.344065 0.717636 0.179290
H2    H     H_    0.778022 0.361994 0.551691 0.162678
H3    H     H_    0.777818 0.637864 0.448367 0.177532
H4    H     H_    0.221976 0.361988 0.448322 0.163033
H5    H     H_    0.622706 0.071909 0.557423 0.117830
H6    H     H_    0.428965 0.928123 0.403319 0.116916
H7    H     H_    0.377295 0.071909 0.442577 0.117963
H8    H     H_    0.571037 0.928123 0.596680 0.117156
H9    H     H_    0.618395 0.248728 0.558186 0.131876
H10   H     H_    0.427839 0.751358 0.406651 0.135413
H11   H     H_    0.381605 0.248729 0.441814 0.132273
H12   H     H_    0.500638 0.656080 0.282488 0.171733
H13   H     H_    0.572164 0.751358 0.593348 0.135960
H14   H     H_    0.498828 0.344063 0.282366 0.179114
H15   H     H_    0.500998 0.656083 0.717510 0.171509
H16   H     H_    0.384414 0.591407 0.936596 0.166538
H17   H     H_    0.615735 0.409064 0.063411 0.166519
H18   H     H_    0.384193 0.591409 0.062737 0.165392
H19   H     H_    0.615970 0.409077 0.937273 0.165568
H20   H     H_    0.222183 0.637869 0.551631 0.177130
N1    N     N_R   0.500000 0.258690 0.500000 -0.228543
N2    N     N_R   0.500000 0.741310 0.500000 -0.229566
O1    O     O_R   0.371460 0.581430 0.500010 -0.494328
O2    O     O_R   0.628540 0.418570 0.499990 -0.504437
O3    O     O_R   0.628540 0.581430 0.499990 -0.493997
O4    O     O_R   0.371460 0.418570 0.500010 -0.504160
O5    O     O_R   0.500020 0.581470 0.400190 -0.510186
O6    O     O_R   0.499980 0.418530 0.599810 -0.498078
O7    O     O_R   0.499980 0.581470 0.599810 -0.510256
O8    O     O_R   0.500020 0.418530 0.400190 -0.498144

loop_
_geom_bond_atom_site_label_1
_geom_bond_atom_site_label_2
_ccdc_geom_bond_type
C38   C40   A    
C21   C26   A    
C34   H2    S    
C34   C37   A    
C1    O1    A    
C41   C42   A    
C14   O8    A    
C4    C8    A    
C30   H17   S    
C39   C41   A    
C10   H13   S    
C17   H12   S    
C23   C42   A    
Cu1   N2    S    
C41   H4    S    
C5    C11   A    
C12   C43   S    
C3    C7    A    
C39   F8    S    
C20   C25   A    
C18   H14   S    
C12   O3    A    
C8    N2    A    
C4    C13   A    
Cu2   O6    S    
C10   N2    A    
C40   C43   A    
C2    C44   S    
C12   O2    A    
C31   C33   A    
C19   C27   A    
C21   F2    S    
C16   C27   A    
Cu1   O7    S    
Cu2   N1    S    
C15   O6    A    
C24   F4    S    
C32   C35   A    
C18   C28   A    
C24   C25   A    
C32   H19   S    
Cu2   O2    S    
C37   F6    S    
C15   O7    A    
Cu1   Cu2   S    
C17   C21   A    
C5    C9    A    
C2    C38   A    
C26   C33   S    
C15   C27   S    
C16   C20   A    
C4    H6    S    
C5    H7    S    
Cu1   O3    S    
C7    H9    S    
Cu2   O4    S    
C36   F5    S    
C25   C35   S    
C22   F3    S    
Cu2   O8    S    
C31   H18   S    
C8    H10   S    
C36   C44   A    
C23   H20   S    
C29   H16   S    
C19   H15   S    
C40   H3    S    
C30   C33   A    
C18   C22   A    
C17   C28   A    
Cu1   O5    S    
C34   C43   A    
C6    C10   A    
C7    N1    A    
C39   C44   A    
C29   C35   A    
C6    H8    S    
C19   C24   A    
C16   H1    S    
C29   C31   A    
C6    C13   A    
C30   C32   A    
C11   C13   S    
C2    C37   A    
C38   F7    S    
C9    H11   S    
C20   F1    S    
C3    C11   A    
C1    C42   S    
C23   C36   A    
C22   C26   A    
C1    O4    A    
Cu1   O1    S    
C9    N1    A    
C14   O5    A    
C14   C28   S    
C3    H5    S    
