data_mof_unit_56351.cif
_audit_creation_date              2012-12-10T17:24:09-0500
_audit_creation_method            fapswitch 2.2
_symmetry_space_group_name_H-M    P1
_symmetry_Int_Tables_number       1
_space_group_crystal_system       triclinic
_cell_length_a                    10.15118
_cell_length_b                    10.530123
_cell_length_c                    16.641441
_cell_angle_alpha                 91.45212
_cell_angle_beta                  75.79145
_cell_angle_gamma                 95.680957
_cell_volume                      1715.96843122

loop_
_atom_site_label
_atom_site_type_symbol
_atom_type_description
_atom_site_fract_x
_atom_site_fract_y
_atom_site_fract_z
_atom_type_partial_charge
C1    C     C_R   0.557503 0.734728 0.491596 0.887686
C2    C     C_R   0.518410 0.493932 0.345050 0.855259
C3    C     C_R   0.455310 0.467682 0.742026 -0.044445
C4    C     C_R   0.523271 0.454583 0.260948 -0.032669
C5    C     C_R   0.552784 0.505653 0.785909 -0.212912
C6    C     C_R   0.480784 0.532193 0.207808 -0.221881
C7    C     C_R   0.532130 0.465605 0.867025 -0.241967
C8    C     C_R   0.477849 0.488255 0.129114 -0.234827
C9    C     C_R   0.417761 0.381089 0.903583 0.115573
C10   C     C_R   0.509797 0.363627 0.104667 0.116117
C11   C     C_R   0.319505 0.341906 0.859033 0.264017
C12   C     C_R   0.442983 0.264809 0.503881 0.881607
C13   C     C_R   0.553116 0.285148 0.158381 0.259111
C14   C     C_R   0.337733 0.388341 0.778917 -0.289505
C15   C     C_R   0.562017 0.332713 0.236077 -0.282424
C16   C     C_2   0.396466 0.347250 0.991540 0.096426
C17   C     C_2   0.504962 0.322142 0.020240 0.101664
C18   C     C_3   0.756372 0.325703 0.965130 -0.774558
C19   C     C_3   0.195043 0.468778 0.044635 -0.763813
C20   C     C_3   0.230677 0.124377 0.895017 -0.792556
C21   C     C_3   0.468906 0.066161 0.142188 -0.797892
C22   C     C_3   0.201343 0.120370 0.609063 -0.780774
C23   C     C_2   0.592132 0.870763 0.474598 0.078363
C24   C     C_3   0.714262 0.930843 0.580563 -0.787140
C25   C     C_2   0.412482 0.127278 0.494203 0.073730
C26   C     C_2   0.506862 0.929820 0.440719 -0.238697
C27   C     C_2   0.508744 0.067570 0.440509 -0.255843
C28   C     C_2   0.926219 0.511338 0.507071 -0.121134
C29   C     C_2   0.073624 0.488231 0.493220 -0.140675
C30   C     C_R   0.479710 0.499312 0.655249 0.870137
H1    H     H_    0.643461 0.567395 0.757814 0.143224
H2    H     H_    0.884886 0.582864 0.551791 0.161614
H3    H     H_    0.111022 0.619181 0.574545 0.162853
H4    H     H_    0.889062 0.381073 0.425276 0.157756
H5    H     H_    0.606503 0.224093 0.913278 0.228769
H6    H     H_    0.807284 0.359854 0.901438 0.221849
H7    H     H_    0.816419 0.252992 0.982492 0.253298
H8    H     H_    0.756286 0.408308 0.007976 0.237938
H9    H     H_    0.246701 0.313259 0.104709 0.227719
H10   H     H_    0.180443 0.519423 0.105081 0.226251
H11   H     H_    0.093351 0.439359 0.032958 0.250237
H12   H     H_    0.451474 0.626610 0.226914 0.141260
H13   H     H_    0.252672 0.536658 0.995493 0.236178
H14   H     H_    0.119309 0.266866 0.870859 0.218009
H15   H     H_    0.136051 0.065569 0.926552 0.240136
H16   H     H_    0.309944 0.113536 0.929327 0.244897
H17   H     H_    0.265528 0.088725 0.830567 0.234184
H18   H     H_    0.657641 0.127665 0.162878 0.219379
H19   H     H_    0.410392 0.056506 0.207970 0.231698
H20   H     H_    0.503644 0.972004 0.119714 0.238925
H21   H     H_    0.401209 0.094629 0.103908 0.244886
H22   H     H_    0.246994 0.985447 0.513556 0.234262
H23   H     H_    0.593084 0.272438 0.278626 0.133669
H24   H     H_    0.127685 0.048110 0.648017 0.230146
H25   H     H_    0.142914 0.184425 0.582110 0.251282
H26   H     H_    0.258981 0.175019 0.649466 0.237061
H27   H     H_    0.742418 0.025122 0.468374 0.239926
H28   H     H_    0.811658 0.980887 0.588789 0.234891
H29   H     H_    0.708544 0.830435 0.601015 0.236789
H30   H     H_    0.627947 0.978458 0.619832 0.246129
H31   H     H_    0.263004 0.357752 0.744054 0.146727
H32   H     H_    0.449992 0.551614 0.087072 0.164287
H33   H     H_    0.605308 0.501750 0.901657 0.166701
H34   H     H_    0.599386 0.120752 0.403082 0.150550
H35   H     H_    0.419965 0.876215 0.424357 0.160590
H36   H     H_    0.114856 0.416437 0.448688 0.166037
N1    N     N_2   0.846390 0.448330 0.467170 -0.187785
N2    N     N_2   0.153610 0.551670 0.532830 -0.190313
N3    N     N_2   0.619671 0.268345 0.967156 -0.286278
N4    N     N_2   0.265368 0.356243 0.047468 -0.285274
N5    N     N_2   0.202963 0.256391 0.894104 -0.289887
N6    N     N_2   0.586194 0.158924 0.135235 -0.287078
N7    N     N_2   0.293372 0.056525 0.543833 -0.298270
N8    N     N_2   0.710663 0.936102 0.494350 -0.297880
O1    O     O_R   0.430310 0.692580 0.506610 -0.615782
O2    O     O_R   0.569690 0.307420 0.493390 -0.616677
O3    O     O_R   0.652740 0.659410 0.485540 -0.590213
O4    O     O_R   0.347260 0.340590 0.514460 -0.601376
O5    O     O_R   0.375640 0.518570 0.627580 -0.604422
O6    O     O_R   0.624360 0.481430 0.372420 -0.607999
O7    O     O_R   0.598070 0.485390 0.606510 -0.603934
O8    O     O_R   0.401930 0.514610 0.393490 -0.605890
Zn1   Zn    Zn3+2 0.351480 0.522150 0.514070 0.927894
Zn2   Zn    Zn3+2 0.648520 0.477850 0.485930 0.935081

loop_
_geom_bond_atom_site_label_1
_geom_bond_atom_site_label_2
_ccdc_geom_bond_type
C17   N3    S    
C1    O3    A    
O6    Zn2   S    
O1    Zn1   S    
O2    Zn2   S    
C21   H19   S    
C22   H24   S    
C26   C27   S    
C15   H23   S    
C28   C29   S    
C9    C16   S    
C11   C14   A    
C11   N5    S    
C10   C17   S    
H14   N5    S    
C23   C26   D    
O4    Zn1   S    
C16   C17   D    
C12   O4    A    
C20   N5    S    
C20   H15   S    
C18   N3    S    
N1    Zn2   S    
C26   H35   S    
H18   N6    S    
C21   H20   S    
C19   H13   S    
C21   N6    S    
C1    O1    A    
C28   H2    S    
C28   N1    D    
C16   N4    S    
C4    C6    A    
H22   N7    S    
C19   H10   S    
C5    C7    A    
C6    C8    A    
O3    Zn2   S    
C14   H31   S    
H27   N8    S    
C3    C30   S    
C2    C4    S    
C29   N2    D    
C24   H30   S    
C9    C11   A    
C7    H33   S    
C3    C14   A    
C30   O5    A    
C24   H28   S    
C1    C23   S    
C13   C15   A    
C2    O8    A    
C23   N8    S    
C21   H21   S    
O7    Zn2   S    
C7    C9    A    
N2    Zn1   S    
C18   H7    S    
C3    C5    A    
C10   C13   A    
H4    N1    S    
C22   H26   S    
C22   H25   S    
C13   N6    S    
C25   C27   D    
C12   C25   S    
C4    C15   A    
C12   O2    A    
C18   H8    S    
O5    Zn1   S    
C24   N8    S    
C30   O7    A    
C24   H29   S    
H9    N4    S    
C25   N7    S    
C20   H17   S    
C2    O6    A    
C27   H34   S    
C29   H36   S    
H5    N3    S    
C8    C10   A    
O8    Zn1   S    
C6    H12   S    
C19   N4    S    
C22   N7    S    
C18   H6    S    
C20   H16   S    
C19   H11   S    
H3    N2    S    
C8    H32   S    
C5    H1    S    
