data_mof_unit_34425.cif
_audit_creation_date              2012-12-10T16:57:48-0500
_audit_creation_method            fapswitch 2.2
_symmetry_space_group_name_H-M    P1
_symmetry_Int_Tables_number       1
_space_group_crystal_system       triclinic
_cell_length_a                    7.745431
_cell_length_b                    8.572731
_cell_length_c                    19.045379
_cell_angle_alpha                 90.9285
_cell_angle_beta                  85.884547
_cell_angle_gamma                 93.693176
_cell_volume                      1258.63809731

loop_
_atom_site_label
_atom_site_type_symbol
_atom_type_description
_atom_site_fract_x
_atom_site_fract_y
_atom_site_fract_z
_atom_type_partial_charge
C1    C     C_R   0.545923 0.794856 0.498377 0.944007
C2    C     C_R   0.632226 0.486547 0.173126 0.491526
C3    C     C_R   0.547027 0.601678 0.851854 -0.326380
C4    C     C_R   0.514406 0.582798 0.145483 -0.324689
C5    C     C_R   0.665017 0.504016 0.816035 0.359335
C6    C     C_R   0.382401 0.646090 0.189818 0.358016
C7    C     C_R   0.642590 0.461994 0.745679 0.350940
C8    C     C_R   0.380592 0.624609 0.262760 0.351425
C9    C     C_R   0.513784 0.529840 0.709850 -0.447957
C10   C     C_R   0.497498 0.525090 0.289729 -0.447224
C11   C     C_R   0.524964 0.608867 0.069829 0.452475
C12   C     C_R   0.454100 0.205149 0.501893 0.946402
C13   C     C_R   0.542110 0.619399 0.928155 0.450147
C14   C     C_3   0.951245 0.514428 0.835502 -0.062311
C15   C     C_3   0.101870 0.661951 0.163400 -0.068443
C16   C     C_3   0.669051 0.205942 0.718252 -0.160802
C17   C     C_3   0.337301 0.851305 0.322650 -0.173645
C18   C     C_2   0.570166 0.958309 0.497561 -0.367623
C19   C     C_2   0.429887 0.041707 0.503035 -0.368727
C20   C     C_R   0.502914 0.503609 0.634595 1.004623
C21   C     C_R   0.498287 0.503070 0.365355 1.004039
C22   C     C_R   0.403699 0.633828 0.745104 0.460812
C23   C     C_R   0.622338 0.456318 0.244510 0.485512
C24   C     C_R   0.419390 0.668343 0.815646 0.485234
F1    F     F_    0.282782 0.705109 0.711002 -0.622709
F2    F     F_    0.735030 0.359145 0.269389 -0.609258
F3    F     F_    0.309999 0.768227 0.848673 -0.618385
F4    F     F_    0.753540 0.416587 0.130620 -0.611388
H1    H     H_    0.702607 0.009472 0.492365 0.187334
H2    H     H_    0.016762 0.730132 0.132840 0.190229
H3    H     H_    0.544602 0.196211 0.692195 0.135044
H4    H     H_    0.647049 0.171309 0.774432 0.193820
H5    H     H_    0.755714 0.121916 0.691486 0.183027
H6    H     H_    0.353012 0.924882 0.274760 0.196380
H7    H     H_    0.464011 0.845950 0.346388 0.127375
H8    H     H_    0.248230 0.908982 0.361647 0.176183
H9    H     H_    0.297447 0.990526 0.508198 0.186728
H10   H     H_    0.013806 0.382384 0.447372 0.207879
H11   H     H_    0.986200 0.617613 0.552633 0.210478
H12   H     H_    0.948097 0.641625 0.848026 0.185148
H13   H     H_    0.996593 0.496802 0.779390 0.198817
H14   H     H_    0.047876 0.466369 0.868127 0.188119
H15   H     H_    0.040523 0.651618 0.217792 0.195164
H16   H     H_    0.107521 0.544083 0.138132 0.188345
N1    N     N_R   0.689269 0.621614 0.962593 -0.117522
N2    N     N_R   0.378275 0.611192 0.035433 -0.127454
N3    N     N_R   0.680816 0.616611 0.032370 -0.104972
N4    N     N_R   0.386700 0.616356 0.965752 -0.110973
N5    N     N_2   0.950330 0.457950 0.481240 -0.156620
N6    N     N_2   0.049670 0.542050 0.518760 -0.153799
O1    O     O_R   0.389250 0.738570 0.504600 -0.603003
O2    O     O_3   0.267135 0.742133 0.162568 -0.588255
O3    O     O_3   0.750320 0.357522 0.711812 -0.574715
O4    O     O_3   0.263895 0.700732 0.307481 -0.571881
O5    O     O_R   0.610750 0.261430 0.495400 -0.609710
O6    O     O_R   0.678400 0.711620 0.492580 -0.642233
O7    O     O_R   0.321600 0.288380 0.507420 -0.641114
O8    O     O_R   0.355380 0.513500 0.607880 -0.561641
O9    O     O_R   0.644620 0.486500 0.392120 -0.567759
O10   O     O_R   0.644530 0.486550 0.595850 -0.594383
O11   O     O_R   0.355470 0.513450 0.404150 -0.589314
O12   O     O_3   0.788593 0.434553 0.851803 -0.579690
Zn1   Zn    Zn3+2 0.306930 0.517990 0.508030 1.008601
Zn2   Zn    Zn3+2 0.693070 0.482010 0.491970 1.001414

loop_
_geom_bond_atom_site_label_1
_geom_bond_atom_site_label_2
_ccdc_geom_bond_type
C5    O12   S    
C13   N4    A    
C2    C4    A    
O6    Zn2   S    
C21   O9    A    
C17   H8    S    
C16   H5    S    
C16   H4    S    
C5    C7    A    
C9    C20   S    
C21   O11   A    
C3    C13   S    
C24   F3    S    
C14   H14   S    
O10   Zn2   S    
C6    O2    S    
O5    Zn2   S    
H11   N6    S    
O9    Zn2   S    
C3    C5    A    
C15   H15   S    
N5    Zn2   S    
C15   O2    S    
C4    C11   S    
C13   N1    A    
N6    Zn1   S    
C1    O1    A    
C18   H1    S    
C3    C24   A    
C14   H13   S    
C6    C8    A    
C12   O7    A    
C12   C19   S    
C4    C6    A    
C1    O6    A    
C15   H16   S    
O7    Zn1   S    
N2    N4    A    
N1    N3    A    
C10   C21   S    
C10   C23   A    
N5    N6    D    
C22   C24   A    
C9    C22   A    
C12   O5    A    
C20   O10   A    
C17   H6    S    
C7    O3    S    
C14   H12   S    
C14   O12   S    
C7    C9    A    
C2    C23   A    
C20   O8    A    
O1    Zn1   S    
C15   H2    S    
C8    C10   A    
C18   C19   D    
C23   F2    S    
C8    O4    S    
O8    Zn1   S    
O11   Zn1   S    
C1    C18   S    
C16   O3    S    
C11   N2    A    
C2    F4    S    
C19   H9    S    
H10   N5    S    
C11   N3    A    
C17   O4    S    
C17   H7    S    
C16   H3    S    
C22   F1    S    
