data_mof_unit_10616.cif
_audit_creation_date              2012-12-11T16:22:12-0500
_audit_creation_method            fapswitch 2.2
_symmetry_space_group_name_H-M    P1
_symmetry_Int_Tables_number       1
_space_group_crystal_system       triclinic
_cell_length_a                    13.462155
_cell_length_b                    14.006672
_cell_length_c                    30.05878
_cell_angle_alpha                 98.072562
_cell_angle_beta                  89.986085
_cell_angle_gamma                 118.50527
_cell_volume                      4916.88493135

loop_
_atom_site_label
_atom_site_type_symbol
_atom_type_description
_atom_site_fract_x
_atom_site_fract_y
_atom_site_fract_z
_atom_type_partial_charge
C1    C     C_R   0.720779 0.098949 0.569250 0.550080
C2    C     C_1   0.356476 0.661797 0.763457 0.084594
C3    C     C_1   0.359107 0.666167 0.723848 0.078579
C4    C     C_R   0.383777 0.788667 0.551188 0.568115
C5    C     C_R   0.306010 0.607431 0.898605 -0.056316
C6    C     C_3   0.227885 0.144951 0.724934 0.355235
C7    C     C_3   0.235370 0.065723 0.753729 0.472906
C8    C     C_1   0.297801 0.196668 0.877005 0.057655
C9    C     C_1   0.364761 0.136088 0.613732 0.085044
C10   C     C_3   0.306542 0.244730 0.760709 -0.151289
C11   C     C_3   0.314985 0.164215 0.789017 -0.092186
C12   C     C_R   0.356098 0.675284 0.677137 -0.023819
C13   C     C_3   0.410034 0.250627 0.736443 0.186609
C14   C     C_3   0.331205 0.152729 0.700766 -0.021397
C15   C     C_3   0.420120 0.172367 0.765448 -0.129742
C16   C     C_R   0.397247 0.118871 0.569494 0.548434
C17   C     C_3   0.339274 0.073797 0.729609 0.346654
C18   C     C_1   0.306206 0.176827 0.837497 0.049549
C19   C     C_1   0.345466 0.145291 0.652595 0.110113
C20   C     C_3   0.910945 0.262805 0.733815 -0.106381
C21   C     C_3   0.824344 0.262035 0.767648 0.264759
C22   C     C_1   0.892958 0.202899 0.879033 0.057096
C23   C     C_R   0.264474 0.680339 0.658031 -0.009737
C24   C     C_1   0.767119 0.131162 0.614942 0.066001
C25   C     C_3   0.927148 0.179911 0.758308 -0.104955
C26   C     C_3   0.840154 0.180429 0.791713 -0.032119
C27   C     C_3   0.828471 0.083607 0.727735 0.290902
C28   C     C_R   0.722228 0.095882 0.443068 0.582295
C29   C     C_3   0.812642 0.165074 0.703540 -0.012950
C30   C     C_3   0.741940 0.082841 0.761475 -0.127982
C31   C     C_3   0.725523 0.165623 0.736896 -0.122540
C32   C     C_1   0.862893 0.190935 0.840101 0.032526
C33   C     C_1   0.792937 0.150529 0.654716 0.052298
C34   C     C_R   0.268132 0.708018 0.615058 0.410796
C35   C     C_3   0.246963 0.587000 0.259066 -0.141018
C36   C     C_3   0.255189 0.673173 0.229813 -0.042831
C37   C     C_1   0.308009 0.605113 0.111608 0.108372
C38   C     C_1   0.365881 0.732612 0.378671 0.085362
C39   C     C_3   0.329551 0.563176 0.229270 -0.065883
C40   C     C_R   0.382187 0.783669 0.424542 0.554050
C41   C     C_3   0.338344 0.650308 0.200913 -0.074730
C42   C     C_3   0.430981 0.655227 0.260446 0.399485
C43   C     C_3   0.349363 0.677974 0.289755 0.016822
C44   C     C_3   0.441226 0.741549 0.231313 -0.048469
C45   C     C_R   0.247854 0.651038 0.830280 0.266060
C46   C     C_3   0.357879 0.762919 0.260765 0.372855
C47   C     C_1   0.326255 0.630843 0.151785 0.063865
C48   C     C_1   0.356888 0.702037 0.338795 0.093290
C49   C     C_R   0.354208 0.136102 0.402759 -0.072527
C50   C     C_R   0.394809 0.244175 0.393979 0.404407
C51   C     C_R   0.377110 0.262715 0.350707 0.220566
C52   C     C_R   0.395360 0.115250 0.443591 0.580434
C53   C     C_R   0.321856 0.171413 0.316096 -0.041443
C54   C     C_R   0.272418 0.064231 0.326016 0.396213
C55   C     C_R   0.287480 0.046742 0.369227 -0.116274
C56   C     C_R   0.227951 0.624690 0.873872 0.370157
C57   C     C_R   0.218713 0.129890 0.157222 0.216146
C58   C     C_R   0.212735 0.139495 0.111982 -0.109357
C59   C     C_R   0.413905 0.268184 0.117115 -0.100056
C60   C     C_R   0.422676 0.256660 0.162226 0.221636
C61   C     C_R   0.323638 0.190994 0.182796 0.005273
C62   C     C_1   0.327041 0.189094 0.230251 0.200301
C63   C     C_1   0.325181 0.183803 0.269678 0.211455
C64   C     C_R   0.365151 0.732413 0.590939 0.015753
C65   C     C_R   0.308572 0.212412 0.092241 -0.068044
C66   C     C_R   0.787967 0.135707 0.403639 -0.032615
C67   C     C_R   0.412158 0.632026 0.880836 0.128119
C68   C     C_R   0.824063 0.070745 0.374463 0.169060
C69   C     C_R   0.848046 0.093150 0.330786 -0.139225
C70   C     C_R   0.844957 0.182286 0.316747 -0.076382
C71   C     C_R   0.830341 0.258664 0.347640 0.265761
C72   C     C_R   0.800290 0.234200 0.390875 0.356197
C73   C     C_R   0.931828 0.301302 0.172235 0.408494
C74   C     C_R   0.955767 0.312987 0.128137 0.357510
C75   C     C_R   0.816745 0.119901 0.103062 0.176817
C76   C     C_R   0.452891 0.718370 0.609186 -0.146378
C77   C     C_R   0.798501 0.105564 0.148991 0.179793
C78   C     C_R   0.427640 0.651125 0.836251 -0.146517
C79   C     C_R   0.858132 0.198388 0.183099 -0.044759
C80   C     C_1   0.850860 0.191791 0.230111 0.200185
C81   C     C_1   0.849061 0.188733 0.269728 0.142283
C82   C     C_R   0.903168 0.222112 0.093510 -0.067644
C83   C     C_R   0.284332 0.232309 0.922240 0.543760
C84   C     C_R   0.267793 0.549575 0.938410 0.574057
C85   C     C_R   0.944551 0.221860 0.923126 0.556931
C86   C     C_R   0.291889 0.243923 0.049387 0.549038
C87   C     C_R   0.275131 0.558544 0.065223 0.575068
C88   C     C_R   0.448239 0.689918 0.652111 -0.086194
C89   C     C_R   0.344372 0.655739 0.810553 -0.089817
C90   C     C_R   0.953880 0.233447 0.049919 0.634559
Cr1   Cr    Cr6+3 0.583430 0.162610 0.509470 1.181609
Cr2   Cr    Cr6+3 0.584210 0.916680 0.495400 1.148900
Cr3   Cr    Cr6+3 0.332380 0.920740 0.495100 1.140898
Cr4   Cr    Cr6+3 0.086810 0.177030 0.983130 1.117077
Cr5   Cr    Cr6+3 0.337180 0.419300 0.994610 1.167777
Cr6   Cr    Cr6+3 0.084840 0.422330 0.995830 1.178959
F1    F     F_    0.129772 0.610961 0.891265 -0.513291
F2    F     F_    0.777246 0.303794 0.419627 -0.531393
F3    F     F_    0.180052 0.717854 0.598674 -0.555980
F4    F     F_    0.145089 0.969503 0.762934 -0.521981
F5    F     F_    0.129778 0.131118 0.703831 -0.561393
F6    F     F_    0.354894 0.984991 0.713170 -0.576892
F7    F     F_    0.372058 0.866092 0.277615 -0.552387
F8    F     F_    0.521033 0.645389 0.276860 -0.556926
F9    F     F_    0.216321 0.976018 0.293037 -0.520158
F10   F     F_    0.455946 0.331120 0.426933 -0.518413
F11   F     F_    0.037226 0.412526 0.119909 -0.578272
F12   F     F_    0.987268 0.390113 0.205076 -0.564084
H1    H     H_    0.499011 0.182999 0.782161 0.189531
H2    H     H_    0.319118 0.480699 0.215707 0.188955
H3    H     H_    0.130876 0.095966 0.093055 0.196836
H4    H     H_    0.192363 0.668079 0.677279 0.208810
H5    H     H_    0.254858 0.962886 0.375318 0.200534
H6    H     H_    0.488030 0.324184 0.101937 0.196403
H7    H     H_    0.865835 0.038731 0.306897 0.179724
H8    H     H_    0.528218 0.735564 0.591461 0.185874
H9    H     H_    0.504667 0.661419 0.821230 0.197485
H10   H     H_    0.518731 0.684542 0.666586 0.200923
H11   H     H_    0.639318 0.532304 0.765061 0.373230
H12   H     H_    0.293459 0.315792 0.773767 0.159864
H13   H     H_    0.831912 0.527774 0.775365 0.382018
H14   H     H_    0.882960 0.850800 0.721402 0.400820
H15   H     H_    0.010743 0.706701 0.813412 0.378071
H16   H     H_    0.001820 0.074620 0.237188 0.376922
H17   H     H_    0.639585 0.483115 0.239379 0.387829
H18   H     H_    0.596245 0.528828 0.329022 0.407748
H19   H     H_    0.740924 0.415322 0.287670 0.394935
H20   H     H_    0.876413 0.879089 0.330251 0.375879
H21   H     H_    0.766699 0.868093 0.133100 0.393564
H22   H     H_    0.691030 0.011996 0.986827 0.367803
H23   H     H_    0.979432 0.336860 0.722353 0.186481
H24   H     H_    0.537877 0.768247 0.966187 0.347811
H25   H     H_    0.643450 0.161345 0.727717 0.177670
H26   H     H_    0.673438 0.008777 0.772937 0.167133
H27   H     H_    0.009261 0.184306 0.767520 0.189993
H28   H     H_    0.183393 0.682141 0.216814 0.218963
H29   H     H_    0.168036 0.523705 0.270925 0.232390
H30   H     H_    0.520866 0.804778 0.220011 0.224658
O1    O     O_R   0.493980 0.188910 0.559650 -0.480604
O2    O     O_R   0.170560 0.527890 0.952050 -0.429788
O3    O     O_R   0.987620 0.318470 0.945550 -0.476109
O4    O     O_R   0.678640 0.153520 0.554450 -0.493741
O5    O     O_R   0.976400 0.159270 0.031530 -0.468248
O6    O     O_R   0.194000 0.188570 0.028560 -0.503463
O7    O     O_R   0.365260 0.335720 0.039020 -0.491943
O8    O     O_R   0.330440 0.515580 0.044910 -0.485471
O9    O     O_R   0.177310 0.536200 0.050190 -0.448815
O10   O     O_R   0.993870 0.326170 0.036530 -0.437301
O11   O     O_3   0.169610 0.339550 0.991190 -0.315418
O12   O     O_R   0.480180 0.824400 0.444640 -0.471153
O13   O     O_R   0.698130 0.004030 0.549500 -0.477612
O14   O     O_R   0.481060 0.827210 0.535360 -0.516307
O15   O     O_R   0.309260 0.811560 0.537660 -0.415007
O16   O     O_R   0.341620 0.023400 0.546290 -0.479412
O17   O     O_R   0.493030 0.185890 0.461780 -0.402721
O18   O     O_R   0.677760 0.150720 0.463730 -0.435194
O19   O     O_R   0.697180 0.001010 0.451640 -0.437331
O20   O     O_2   0.610866 0.350967 0.701201 -0.227746
O21   O     O_2   0.482235 0.428153 0.695602 -0.275343
O22   O     O_3   0.585833 0.460656 0.773892 -0.456514
O23   O     O_R   0.308310 0.808540 0.439800 -0.493227
O24   O     O_2   0.711244 0.346890 0.817521 -0.240089
O25   O     O_2   0.918498 0.442430 0.830665 -0.177776
O26   O     O_3   0.830829 0.462174 0.757536 -0.431117
O27   O     O_2   0.713198 0.877996 0.682585 -0.311887
O28   O     O_2   0.907712 0.990995 0.662957 -0.170828
O29   O     O_3   0.879193 0.914370 0.738799 -0.447159
O30   O     O_2   0.213806 0.775646 0.778805 -0.219376
O31   O     O_2   0.086978 0.576836 0.762919 -0.269510
O32   O     O_3   0.056566 0.688909 0.833098 -0.373268
O33   O     O_2   0.992507 0.993198 0.147351 -0.283885
O34   O     O_R   0.340740 0.020600 0.455570 -0.514452
O35   O     O_2   0.105175 0.959723 0.201021 -0.173407
O36   O     O_3   0.069789 0.126332 0.223531 -0.534956
O37   O     O_2   0.575616 0.253840 0.217989 -0.218779
O38   O     O_2   0.649454 0.376866 0.161604 -0.251080
O39   O     O_3   0.558467 0.432806 0.229772 -0.454165
O40   O     O_2   0.368190 0.404463 0.300252 -0.267308
O41   O     O_2   0.419679 0.469342 0.381086 -0.189735
O42   O     O_3   0.568968 0.450522 0.331443 -0.421753
O43   O     O_2   0.857549 0.464085 0.372094 -0.137183
O44   O     O_2   0.942162 0.429789 0.303753 -0.258682
O45   O     O_3   0.500010 0.000010 0.499990 -0.316085
O46   O     O_3   0.723512 0.348232 0.300576 -0.431337
O47   O     O_2   0.891891 0.990860 0.437460 -0.199884
O48   O     O_2   0.726938 0.859185 0.386112 -0.222052
O49   O     O_3   0.926902 0.934886 0.355653 -0.471385
O50   O     O_2   0.739430 0.964113 0.209978 -0.321076
O51   O     O_2   0.587642 0.965665 0.166388 -0.194541
O52   O     O_3   0.694879 0.869169 0.127334 -0.407149
O53   O     O_2   0.775399 0.938022 0.045505 -0.205696
O54   O     O_2   0.609185 0.954913 0.069285 -0.180719
O55   O     O_3   0.729792 0.074574 0.011759 -0.525848
O56   O     O_R   0.969650 0.150960 0.933380 -0.485884
O57   O     O_2   0.520216 0.531701 0.909931 -0.181196
O58   O     O_2   0.638379 0.717851 0.893877 -0.240179
O59   O     O_3   0.532224 0.695340 0.966935 -0.451140
O60   O     O_R   0.187740 0.180870 0.937580 -0.492527
O61   O     O_R   0.358510 0.327410 0.940870 -0.455102
O62   O     O_R   0.324180 0.507870 0.953930 -0.441793
S1    S     S_3+6 0.525501 0.375459 0.725006 0.054521
S2    S     S_3+6 0.703394 0.974930 0.164454 0.090328
S3    S     S_3+6 0.729630 0.016766 0.057223 0.098716
S4    S     S_3+6 0.529404 0.643567 0.912653 0.078202
S5    S     S_3+6 0.820737 0.381097 0.795453 0.098059
S6    S     S_3+6 0.831106 0.963193 0.700908 0.080577
S7    S     S_3+6 0.149857 0.673456 0.799710 0.112414
S8    S     S_3+6 0.092229 0.046972 0.181810 0.038569
S9    S     S_3+6 0.556742 0.329979 0.192851 0.051107
S10   S     S_3+6 0.431048 0.400009 0.340553 0.134300
S11   S     S_3+6 0.842267 0.380731 0.331592 0.125327
S12   S     S_3+6 0.840661 0.961037 0.389806 0.084625

loop_
_geom_bond_atom_site_label_1
_geom_bond_atom_site_label_2
_ccdc_geom_bond_type
H11   O22   S    
C66   C68   A    
C21   C26   S    
C11   C18   S    
C26   C32   S    
C87   O8    A    
Cr1   O45   S    
C27   C29   S    
C8    C83   S    
C53   C63   S    
C73   C74   A    
C15   H1    S    
C5    C56   A    
C35   C39   S    
C35   C36   S    
Cr5   O7    S    
C5    C67   A    
H22   O55   S    
C77   S2    S    
C52   O34   A    
C67   S4    S    
C86   O6    A    
C65   C86   S    
C39   C41   S    
C72   F2    S    
C53   C54   A    
C84   O62   A    
C52   O17   A    
C7    C11   S    
C23   H4    S    
C67   C78   A    
C12   C23   A    
C22   C32   T    
Cr4   O5    S    
Cr3   O16   S    
C9    C16   S    
O48   S12   D    
O26   S5    S    
C30   C31   S    
C85   O56   A    
O21   S1    D    
H16   O36   S    
C20   C25   S    
C21   S5    S    
H20   O49   S    
C29   C33   S    
O38   S9    D    
O40   S10   D    
O59   S4    S    
C22   C85   S    
O39   S9    S    
C70   C81   S    
C28   O19   A    
C90   O10   A    
C3    C12   S    
Cr6   O3    S    
C11   C15   S    
C9    C19   T    
C39   H2    S    
C66   C72   A    
C45   C56   A    
H24   O59   S    
Cr5   O62   S    
C7    C17   S    
Cr2   O14   S    
C10   C13   S    
C36   C46   S    
C70   C71   A    
Cr5   O11   S    
Cr3   O34   S    
O58   S4    D    
C35   C43   S    
C60   S9    S    
C76   C88   A    
C38   C48   T    
C90   O5    A    
C31   H25   S    
Cr1   O4    S    
C23   C34   A    
C4    O15   A    
C74   F11   S    
C59   C60   A    
C45   S7    S    
C13   C14   S    
C27   C30   S    
O36   S8    S    
H19   O46   S    
C14   C17   S    
C36   C41   S    
C69   C70   A    
Cr5   O8    S    
C42   C44   S    
C56   F1    S    
C74   C82   A    
C4    O14   A    
C36   H28   S    
O32   S7    S    
Cr2   O12   S    
C44   C46   S    
C50   C51   A    
C39   C42   S    
C20   C29   S    
C77   C79   A    
C78   C89   A    
C41   C47   S    
O55   S3    S    
Cr6   O10   S    
O30   S7    D    
C7    F4    S    
C12   C88   A    
C58   H3    S    
O29   S6    S    
C78   H9    S    
C10   C11   S    
C85   O3    A    
O22   S1    S    
C5    C84   S    
C75   S3    S    
C68   C69   A    
C73   F12   S    
O57   S4    D    
C55   H5    S    
C30   H26   S    
C25   C26   S    
C49   C55   A    
H13   O26   S    
O25   S5    D    
C8    C18   T    
Cr2   O19   S    
Cr4   O60   S    
C1    O4    A    
C2    C89   S    
C28   C66   S    
C17   F6    S    
O31   S7    D    
C62   C63   T    
C6    C14   S    
C21   C31   S    
C58   C65   A    
O41   S10   D    
Cr3   O23   S    
C49   C52   S    
H21   O52   S    
Cr2   O13   S    
C34   C64   A    
C34   F3    S    
C64   C76   A    
O47   S12   D    
C40   O12   A    
O49   S12   S    
C83   O60   A    
O42   S10   S    
C75   C77   A    
C87   O9    A    
C6    F5    S    
Cr1   O1    S    
H18   O42   S    
C26   C30   S    
C71   S11   S    
O53   S3    D    
O24   S5    D    
C16   O16   A    
C41   C44   S    
C16   O1    A    
C37   C47   T    
Cr1   O17   S    
C20   H23   S    
C88   H10   S    
C68   S12   S    
C86   O7    A    
C45   C89   A    
O46   S11   S    
C50   F10   S    
C43   C48   S    
H17   O39   S    
C15   C17   S    
Cr6   O9    S    
C54   C55   A    
C69   H7    S    
C44   H30   S    
H14   O29   S    
C54   F9    S    
Cr4   O56   S    
C14   C19   S    
C37   C87   S    
O52   S2    S    
C80   C81   T    
C73   C79   A    
Cr2   O45   S    
C42   F8    S    
Cr6   O2    S    
C75   C82   A    
C57   C61   A    
C6    C7    S    
O51   S2    D    
C25   C27   S    
C46   F7    S    
C4    C64   S    
C24   C33   T    
C82   C90   S    
O43   S11   D    
C27   S6    S    
Cr4   O6    S    
C13   C15   S    
C2    C3    T    
C40   O23   A    
C29   C31   S    
C35   H29   S    
C38   C40   S    
Cr3   O45   S    
C51   S10   S    
C57   C58   A    
C59   H6    S    
Cr6   O11   S    
Cr3   O15   S    
O44   S11   D    
C76   H8    S    
O54   S3    D    
C13   S1    S    
C1    O13   A    
O35   S8    D    
O37   S9    D    
C61   C62   S    
C25   H27   S    
C43   C46   S    
C57   S8    S    
H15   O32   S    
C10   H12   S    
C6    C10   S    
C79   C80   S    
C71   C72   A    
O27   S6    D    
Cr1   O18   S    
C20   C21   S    
C84   O2    A    
C1    C24   S    
Cr5   O61   S    
C49   C50   A    
C42   C43   S    
C28   O18   A    
O20   S1    D    
C60   C61   A    
O50   S2    D    
Cr4   O11   S    
O28   S6    D    
C51   C53   A    
O33   S8    D    
C83   O61   A    
C59   C65   A    
