data_mof_unit_23050.cif
_audit_creation_date              2012-12-11T14:29:38-0500
_audit_creation_method            fapswitch 2.2
_symmetry_space_group_name_H-M    P1
_symmetry_Int_Tables_number       1
_space_group_crystal_system       triclinic
_cell_length_a                    6.930484
_cell_length_b                    14.775022
_cell_length_c                    16.296016
_cell_angle_alpha                 90.467942
_cell_angle_beta                  89.219817
_cell_angle_gamma                 89.500351
_cell_volume                      1668.40488902

loop_
_atom_site_label
_atom_site_type_symbol
_atom_type_description
_atom_site_fract_x
_atom_site_fract_y
_atom_site_fract_z
_atom_type_partial_charge
O1    O     O_R   0.494400 0.416610 0.413880 -0.543098
O2    O     O_R   0.823920 0.406790 0.585520 -0.540015
O3    O     O_R   0.994250 0.583390 0.586120 -0.525473
C1    C     C_R   0.655221 0.383621 0.612578 0.740463
O4    O     O_R   0.824110 0.405730 0.414490 -0.544669
O5    O     O_R   0.994440 0.582310 0.413870 -0.519835
C2    C     C_R   0.656396 0.385830 0.384945 0.746866
O6    O     O_R   0.494210 0.417690 0.586130 -0.551057
O7    O     O_3   0.660810 0.557940 0.500000 -0.357866
V1    V     V_3+5 0.935650 0.489250 0.500000 1.425650
O8    O     O_R   0.324160 0.593210 0.414480 -0.535530
C3    C     C_R   0.156555 0.611387 0.383923 0.815632
O9    O     O_R   0.323970 0.594270 0.585510 -0.546056
C4    C     C_R   0.152452 0.616801 0.613709 0.794393
V2    V     V_3+5 0.435660 0.510750 0.500000 1.434106
O10   O     O_3   0.160630 0.442060 0.500000 -0.386194
H1    H     H_    0.929252 0.920711 0.518318 0.124158
C5    C     C_R   0.181708 0.558894 0.787172 0.057097
C6    C     C_R   0.268535 0.533469 0.861416 0.182964
C7    C     C_R   0.312925 0.599015 0.919642 0.180850
C8    C     C_R   0.262681 0.689865 0.907240 0.126671
C9    C     C_R   0.187361 0.719293 0.830184 -0.017127
C10   C     C_R   0.167600 0.653232 0.765972 -0.037412
C11   C     C_R   0.135860 0.812016 0.815077 -0.129280
C12   C     C_R   0.103740 0.841560 0.733050 -0.004005
C13   C     C_R   0.084972 0.775789 0.668484 0.037952
C14   C     C_R   0.131347 0.682631 0.683821 -0.130744
C15   C     C_R   0.095685 0.935968 0.711795 0.139010
C16   C     C_R   0.024103 0.961974 0.635957 -0.133151
C17   C     C_R   0.982031 0.898295 0.577129 -0.206442
C18   C     C_R   0.019566 0.806781 0.590239 0.173865
H2    H     H_    0.008586 0.032808 0.620453 0.129691
C19   C     C_2   0.997872 0.714097 0.284186 0.151219
C20   C     C_2   0.154680 0.664600 0.307151 0.005640
C21   C     C_2   0.988597 0.759909 0.203064 0.130367
C22   C     C_2   0.115734 0.826040 0.184700 -0.344591
H3    H     H_    0.228114 0.842167 0.228055 0.097908
C23   C     C_2   0.777431 0.200073 0.775540 -0.140173
C24   C     C_2   0.612518 0.174944 0.813033 -0.344560
H4    H     H_    0.912679 0.173213 0.798248 0.143416
H5    H     H_    0.474205 0.197676 0.790253 0.133524
C25   C     C_2   0.789298 0.259000 0.701393 0.185445
C26   C     C_2   0.645034 0.317691 0.680945 -0.308118
H6    H     H_    0.512599 0.319725 0.716940 0.097302
C27   C     C_2   0.767271 0.213254 0.210321 -0.135221
C28   C     C_2   0.607289 0.166355 0.188919 0.019301
H7    H     H_    0.896173 0.207083 0.171943 0.115927
C29   C     C_2   0.786329 0.271867 0.284689 -0.145803
C30   C     C_2   0.642712 0.325916 0.312591 -0.308365
H8    H     H_    0.926502 0.274465 0.313565 0.136297
H9    H     H_    0.507345 0.328320 0.280181 0.153126
O11   O     O_R   0.770210 0.079270 0.910680 -0.543489
O12   O     O_R   0.440150 0.091160 0.082270 -0.538774
O13   O     O_R   0.269970 0.914530 0.082860 -0.537529
C31   C     C_R   0.606929 0.110152 0.112856 0.723640
O14   O     O_R   0.440480 0.090100 0.911240 -0.545255
O15   O     O_R   0.270310 0.913460 0.910610 -0.524952
C32   C     C_R   0.609012 0.111069 0.882578 0.762225
O16   O     O_R   0.769870 0.080340 0.082930 -0.550419
O17   O     O_3   0.603660 0.938980 0.996790 -0.369293
V3    V     V_3+5 0.328750 0.007610 0.996740 1.407761
O18   O     O_R   0.940600 0.902510 0.911180 -0.545551
C33   C     C_R   0.112722 0.878373 0.884504 0.795765
O19   O     O_R   0.940270 0.903570 0.082200 -0.537726
C34   C     C_R   0.108001 0.883575 0.111232 0.778180
V4    V     V_3+5 0.828770 0.986010 0.996670 1.406331
O20   O     O_3   0.103730 0.054750 0.996710 -0.378001
N1    N     N_3   0.320598 0.653841 0.253722 -0.700880
H10   H     H_    0.393140 0.715177 0.249233 0.226962
H11   H     H_    0.276207 0.633253 0.195447 0.248025
C35   C     C_3   0.829036 0.733087 0.145706 -0.719547
H12   H     H_    0.759291 0.669624 0.166184 0.202355
H13   H     H_    0.716578 0.786991 0.144252 0.214952
H14   H     H_    0.888028 0.720550 0.082913 0.197721
C36   C     C_3   0.972001 0.249795 0.650035 -0.731205
H15   H     H_    0.062483 0.192465 0.670454 0.172992
H16   H     H_    0.936052 0.236741 0.584812 0.199733
H17   H     H_    0.060987 0.311368 0.655410 0.216236
C37   C     C_3   0.431123 0.159708 0.244640 -0.769647
H18   H     H_    0.360969 0.092911 0.236889 0.193745
H19   H     H_    0.469753 0.164526 0.310385 0.219317
H20   H     H_    0.324068 0.212895 0.228936 0.200594
C38   C     C_3   0.083101 0.485508 0.738170 -0.743530
H21   H     H_    0.940691 0.510312 0.717393 0.214004
H22   H     H_    0.176739 0.462265 0.686400 0.206131
H23   H     H_    0.047406 0.425199 0.774963 0.194154
N2    N     N_3   0.313831 0.440699 0.879463 -0.686781
H24   H     H_    0.186721 0.405929 0.892718 0.231464
H25   H     H_    0.383983 0.410979 0.828752 0.235657
N3    N     N_3   0.402058 0.573329 0.995137 -0.680290
H26   H     H_    0.533690 0.541254 0.981208 0.254194
H27   H     H_    0.312772 0.527107 0.025176 0.247453
N4    N     N_3   0.298929 0.751784 0.973100 -0.638076
H28   H     H_    0.446821 0.751220 0.985111 0.259115
H29   H     H_    0.225417 0.729325 0.025411 0.225721
C39   C     C_3   0.191453 0.010144 0.760337 -0.749948
H30   H     H_    0.336010 0.986883 0.779962 0.214337
H31   H     H_    0.220038 0.070673 0.722496 0.175966
H32   H     H_    0.099264 0.032666 0.812782 0.209921
N5    N     N_3   0.984390 0.746864 0.523045 -0.647731
H33   H     H_    0.067503 0.768317 0.472959 0.210961
H34   H     H_    0.838745 0.752442 0.507727 0.252032
N6    N     N_3   0.833154 0.722490 0.338232 -0.668883
H35   H     H_    0.714903 0.692838 0.309935 0.251469
H36   H     H_    0.802493 0.791391 0.346511 0.214336

loop_
_geom_bond_atom_site_label_1
_geom_bond_atom_site_label_2
_ccdc_geom_bond_type
N2    H24   S    
N4    H28   S    
O14   V3    S    
C31   O16   A    
C21   C22   D    
C1    O6    A    
C24   H5    S    
O13   C34   A    
C27   C28   D    
C12   C15   A    
C13   C14   A    
O18   C33   A    
C22   H3    S    
C23   C25   S    
C16   H2    S    
C6    N2    S    
O16   V4    S    
O5    C3    A    
C23   C24   D    
V2    O10   S    
C39   H32   S    
C5    C6    A    
C27   H7    S    
O8    V2    S    
C6    C7    A    
O14   C32   A    
N1    H10   S    
C30   H9    S    
C39   H31   S    
C28   C31   S    
O1    V2    S    
C10   C14   A    
C4    C14   S    
O7    V1    S    
C29   H8    S    
V4    O20   S    
C21   C35   S    
C13   C18   A    
N4    H29   S    
C19   N6    S    
C8    C9    A    
H1    C17   S    
O12   V3    S    
O15   C33   A    
O4    C2    A    
O12   C31   A    
O18   V4    S    
C5    C10   A    
C11   C12   A    
C2    C30   S    
C20   N1    S    
C37   H19   S    
C22   C34   S    
C12   C13   A    
C24   C32   S    
C7    N3    S    
O17   V3    S    
O19   V4    S    
O2    C1    A    
C36   H15   S    
C16   C17   A    
C35   H14   S    
V3    O20   S    
N3    H27   S    
C38   H21   S    
C17   C18   A    
C39   H30   S    
N5    H34   S    
C5    C38   S    
C25   C36   S    
N6    H36   S    
C18   N5    S    
C36   H16   S    
O3    C4    A    
O11   C32   A    
C29   C30   D    
C38   H22   S    
C11   C33   S    
N2    H25   S    
C26   H6    S    
C9    C11   A    
C25   C26   D    
C3    C20   S    
O2    V1    S    
O11   V4    S    
C35   H13   S    
C27   C29   S    
C15   C16   A    
O1    C2    A    
O5    V1    S    
C37   H20   S    
O8    C3    A    
O15   V3    S    
O13   V3    S    
O6    V2    S    
C15   C39   S    
O19   C34   A    
O9    V2    S    
O7    V2    S    
C35   H12   S    
O3    V1    S    
V1    O10   S    
C23   H4    S    
N3    H26   S    
C28   C37   S    
C8    N4    S    
N5    H33   S    
C19   C21   S    
C1    C26   S    
C19   C20   D    
C36   H17   S    
O17   V4    S    
C37   H18   S    
O4    V1    S    
C38   H23   S    
C7    C8    A    
N1    H11   S    
N6    H35   S    
C9    C10   A    
O9    C4    A    
