data_mof_unit_21186.cif
_audit_creation_date              2012-12-11T19:42:16-0500
_audit_creation_method            fapswitch 2.2
_symmetry_space_group_name_H-M    P1
_symmetry_Int_Tables_number       1
_space_group_crystal_system       triclinic
_cell_length_a                    8.203162
_cell_length_b                    15.04034
_cell_length_c                    27.0263
_cell_angle_alpha                 98.245102
_cell_angle_beta                  93.005209
_cell_angle_gamma                 81.128505
_cell_volume                      3258.94841095

loop_
_atom_site_label
_atom_site_type_symbol
_atom_type_description
_atom_site_fract_x
_atom_site_fract_y
_atom_site_fract_z
_atom_type_partial_charge
Ba1   Ba    Ba6+2 0.860050 0.456430 0.522530 1.640330
Ba2   Ba    Ba6+2 0.329780 0.543490 0.477460 1.638109
C1    C     C_3   0.756590 0.118945 0.646610 -0.368307
C2    C     C_R   0.902025 0.590407 0.180038 0.573408
C3    C     C_2   0.750685 0.561738 0.273896 -0.084986
C4    C     C_3   0.158417 0.263555 0.655104 0.337649
C5    C     C_3   0.730380 0.590589 0.329185 -0.047647
C6    C     C_1   0.982205 0.484927 0.342828 0.032679
C7    C     C_2   0.022636 0.480798 0.295119 -0.103403
C8    C     C_2   0.898930 0.518648 0.257072 0.193861
C9    C     C_R   0.016910 0.506051 0.102489 -0.079695
C10   C     C_R   0.054138 0.428458 0.127073 -0.035887
C11   C     C_R   0.130527 0.347538 0.100235 -0.060560
C12   C     C_3   0.703027 0.212115 0.630417 0.361227
C13   C     C_R   0.940047 0.587335 0.129358 -0.024294
C14   C     C_2   0.842641 0.531487 0.360948 -0.289529
C15   C     C_2   0.353830 0.476636 0.640477 -0.278820
C16   C     C_3   0.144807 0.238707 0.707168 -0.310186
C17   C     C_R   0.172962 0.416247 0.972984 0.020077
C18   C     C_R   0.055549 0.577996 0.975484 0.020492
C19   C     C_R   0.133506 0.495357 0.948806 0.049492
C20   C     C_R   0.250865 0.335945 0.944598 -0.101505
C21   C     C_R   0.288148 0.333362 0.894735 -0.060225
C22   C     C_R   0.250033 0.410594 0.870483 -0.024358
C23   C     C_3   0.495319 0.672505 0.630788 0.293936
C24   C     C_R   0.172654 0.491761 0.897338 -0.079671
C25   C     C_R   0.134999 0.569312 0.872748 -0.035743
C26   C     C_R   0.175663 0.564820 0.821934 0.596995
C27   C     C_R   0.287990 0.407588 0.819783 0.573544
C28   C     C_3   0.216973 0.264898 0.413299 0.314704
C29   C     C_2   0.438795 0.437025 0.725774 -0.086759
C30   C     C_3   0.459703 0.411440 0.670275 -0.046753
C31   C     C_1   0.209348 0.517659 0.657618 0.028849
C32   C     C_2   0.166986 0.518652 0.704897 -0.103175
C33   C     C_2   0.290306 0.479621 0.742757 0.193553
C34   C     C_3   0.493034 0.694098 0.687478 -0.356818
C35   C     C_R   0.133813 0.419742 0.024328 0.020452
C36   C     C_R   0.056056 0.502425 0.051020 0.049477
C37   C     C_R   0.016841 0.581575 0.026860 0.020134
C38   C     C_R   0.169562 0.343126 0.050267 -0.098973
C39   C     C_R   0.902579 0.664660 0.105162 -0.060240
C40   C     C_3   0.238349 0.162226 0.398914 -0.386939
C41   C     C_R   0.019062 0.654507 0.949492 -0.099053
C42   C     C_R   0.058058 0.650119 0.899537 -0.060623
C43   C     C_R   0.939773 0.662036 0.055304 -0.101562
C44   C     C_R   0.842696 0.831179 0.465782 -0.004005
C45   C     C_3   0.032093 0.736949 0.344647 0.337284
C46   C     C_R   0.777363 0.924620 0.470132 -0.030998
C47   C     C_R   0.643830 0.112174 0.480722 -0.036451
C48   C     C_R   0.784010 0.077644 0.452042 -0.042715
C49   C     C_R   0.851625 0.986190 0.447853 -0.100513
C50   C     C_R   0.578822 0.205891 0.487880 0.044886
C51   C     C_R   0.437301 0.236024 0.515771 -0.306327
C52   C     C_3   0.978501 0.735312 0.586237 0.313066
C53   C     C_R   0.617109 0.803687 0.513552 0.023189
C54   C     C_R   0.552533 0.896459 0.519645 -0.030879
C55   C     C_R   0.631474 0.957180 0.497281 0.013106
C56   C     C_3   0.045684 0.761056 0.292413 -0.310816
C57   C     C_R   0.410696 0.930029 0.547369 -0.049834
C58   C     C_R   0.343869 0.020781 0.551616 -0.100054
C59   C     C_R   0.419453 0.082466 0.529931 -0.033911
C60   C     C_R   0.565750 0.050832 0.502972 0.006916
C61   C     C_R   0.352526 0.174945 0.534453 -0.006853
C62   C     C_R   0.756779 0.771707 0.485318 -0.299761
C63   C     C_3   0.958307 0.837947 0.600790 -0.386643
C64   C     C_3   0.693464 0.343879 0.372051 0.299204
C65   C     C_3   0.696008 0.321994 0.315360 -0.361088
C66   C     C_3   0.487271 0.788082 0.369516 0.364499
C67   C     C_3   0.433903 0.881109 0.353124 -0.368189
C68   C     C_R   0.013546 0.433062 0.177921 0.597196
H1    H     H_    0.325928 0.141245 0.367946 0.127289
H2    H     H_    0.595403 0.402451 0.381913 0.079394
H3    H     H_    0.892737 0.100653 0.645505 0.147320
H4    H     H_    0.577245 0.300278 0.300670 0.133656
H5    H     H_    0.565803 0.224995 0.629737 -0.065024
H6    H     H_    0.699612 0.067040 0.620867 0.070302
H7    H     H_    0.371688 0.657574 0.616811 0.017933
H8    H     H_    0.589324 0.611779 0.620964 0.069170
H9    H     H_    0.396744 0.753071 0.698615 0.134314
H10   H     H_    0.465474 0.634666 0.703826 0.074228
H11   H     H_    0.615318 0.710346 0.702415 0.133295
H12   H     H_    0.287268 0.127614 0.431273 0.061689
H13   H     H_    0.716312 0.118850 0.685192 0.123050
H14   H     H_    0.131145 0.301345 0.734612 0.119607
H15   H     H_    0.118352 0.673364 0.348235 0.094364
H16   H     H_    0.903588 0.726043 0.349279 -0.050749
H17   H     H_    0.156324 0.794134 0.290033 0.147625
H18   H     H_    0.058004 0.698177 0.265156 0.120532
H19   H     H_    0.934362 0.808060 0.282588 0.120666
H20   H     H_    0.624472 0.774984 0.369935 -0.068417
H21   H     H_    0.444151 0.790236 0.408030 0.079259
H22   H     H_    0.491121 0.933075 0.378741 0.068802
H23   H     H_    0.117437 0.140557 0.386677 0.120875
H24   H     H_    0.297783 0.899577 0.354217 0.148527
H25   H     H_    0.070857 0.326694 0.651582 0.093480
H26   H     H_    0.474176 0.880850 0.314507 0.122011
H27   H     H_    0.146377 0.451427 0.283626 0.129447
H28   H     H_    0.160991 0.286531 0.117889 0.122121
H29   H     H_    0.534836 0.410451 0.751202 0.119117
H30   H     H_    0.347847 0.269727 0.875108 0.122411
H31   H     H_    0.285590 0.273033 0.959625 0.068968
H32   H     H_    0.227964 0.277783 0.033168 0.068785
H33   H     H_    0.654627 0.587413 0.248208 0.118657
H34   H     H_    0.857762 0.714774 0.574500 0.000153
H35   H     H_    0.843544 0.728428 0.124837 0.122436
H36   H     H_    0.959847 0.719719 0.966509 0.068785
H37   H     H_    0.286452 0.275608 0.650775 -0.053189
H38   H     H_    0.027046 0.711056 0.881847 0.122191
H39   H     H_    0.042958 0.547530 0.716327 0.130297
H40   H     H_    0.822560 0.542811 0.400865 0.083730
H41   H     H_    0.387702 0.479035 0.602459 0.077212
H42   H     H_    0.844890 0.120343 0.432570 0.103736
H43   H     H_    0.961365 0.964451 0.426289 0.108092
H44   H     H_    0.232973 0.041386 0.572652 0.112175
H45   H     H_    0.064036 0.716226 0.554796 0.075064
H46   H     H_    0.347130 0.886967 0.565816 0.100307
H47   H     H_    0.386231 0.307351 0.520042 0.075154
H48   H     H_    0.034865 0.204908 0.709243 0.147087
H49   H     H_    0.256700 0.192106 0.716979 0.121784
H50   H     H_    0.338642 0.285820 0.423582 0.002734
H51   H     H_    0.134909 0.283515 0.445681 0.069575
H52   H     H_    0.747223 0.210347 0.592055 0.076860
H53   H     H_    0.798868 0.266634 0.304256 0.134547
H54   H     H_    0.713183 0.382871 0.298638 0.071321
H55   H     H_    0.905898 0.725101 0.040369 0.068938
H56   H     H_    0.865740 0.859482 0.630357 0.130132
H57   H     H_    0.805573 0.700067 0.481470 0.067600
H58   H     H_    0.916475 0.872959 0.568014 0.062432
H59   H     H_    0.078277 0.858674 0.615009 0.120515
H60   H     H_    0.814449 0.361791 0.386236 0.011300
N1    N     N_R   0.938881 0.513746 0.204275 -0.421898
N2    N     N_R   0.250533 0.484220 0.795548 -0.421855
O1    O     O_2   0.906480 0.548660 0.619050 -0.459198
O2    O     O_2   0.183908 0.824762 0.472013 -0.484039
O3    O     O_3   0.073682 0.808176 0.380028 -0.610831
O4    O     O_3   0.138490 0.548590 0.558870 -0.495680
O5    O     O_3   0.572560 0.389960 0.472890 -0.488186
O6    O     O_2   0.345660 0.723580 0.528500 -0.466425
O7    O     O_3   0.533874 0.747610 0.610909 -0.644578
O8    O     O_2   0.403345 0.546010 0.323743 -0.498862
O9    O     O_3   0.418049 0.721476 0.336493 -0.594307
O10   O     O_2   0.042556 0.364697 0.198370 -0.597195
O11   O     O_2   0.353793 0.335950 0.797171 -0.621091
O12   O     O_3   0.662964 0.267228 0.391827 -0.639058
O13   O     O_2   0.836688 0.662162 0.202651 -0.621156
O14   O     O_2   0.146595 0.633253 0.801547 -0.597534
O15   O     O_3   0.686300 0.382310 0.585700 -0.480341
O16   O     O_2   0.787613 0.454054 0.676044 -0.497229
O17   O     O_3   0.039327 0.694123 0.627929 -0.625274
O18   O     O_3   0.771033 0.278653 0.663807 -0.596063
O19   O     O_2   0.844040 0.276390 0.471470 -0.469790
O20   O     O_3   0.101510 0.335500 0.560330 -0.491353
O21   O     O_2   0.012804 0.175028 0.526724 -0.485054
O22   O     O_3   0.118952 0.192200 0.619426 -0.611548
O23   O     O_2   0.283210 0.451310 0.380920 -0.462822
O24   O     O_3   0.051220 0.451340 0.441120 -0.497692
O25   O     O_3   0.503410 0.617620 0.414290 -0.475389
O26   O     O_3   0.149553 0.305791 0.372080 -0.624026
O27   O     O_3   0.617150 0.609960 0.527100 -0.477175
O28   O     O_3   0.088210 0.664420 0.439670 -0.490072
P1    P     P_3+3 0.071950 0.575820 0.612140 0.991069
P2    P     P_3+3 0.664370 0.290050 0.457240 0.973884
P3    P     P_3+3 0.146610 0.218715 0.559785 0.934311
P4    P     P_3+3 0.117760 0.424110 0.387850 0.990459
P5    P     P_3+3 0.046737 0.782408 0.439853 0.936183
P6    P     P_3+3 0.677321 0.385263 0.650116 0.948012
P7    P     P_3+3 0.531548 0.722693 0.545615 0.939200
P8    P     P_3+3 0.513062 0.614935 0.349901 0.945368

loop_
_geom_bond_atom_site_label_1
_geom_bond_atom_site_label_2
_ccdc_geom_bond_type
O8    P8    D    
C53   C54   A    
C3    H33   S    
Ba2   O23   S    
C12   H52   S    
C44   P5    S    
C30   P6    S    
C23   O7    S    
C40   H23   S    
O16   P6    D    
C58   H44   S    
C40   H12   S    
C53   P7    S    
C5    P8    S    
C67   H26   S    
C56   H17   S    
C14   H40   S    
C55   C60   A    
C52   C63   S    
C61   P3    S    
C24   C25   A    
C49   H43   S    
C20   H31   S    
C39   H35   S    
O21   P3    D    
C23   H7    S    
C45   H15   S    
C52   H34   S    
C17   C19   A    
C22   C24   A    
C32   C33   S    
C35   C38   A    
C36   C37   A    
C51   H47   S    
C27   N2    Am   
C64   O12   S    
C27   O11   D    
C66   H21   S    
C54   C55   A    
Ba1   O20   S    
Ba1   Ba2   S    
O1    P1    D    
C11   H28   S    
C59   C61   A    
C22   C27   A    
C68   N1    Am   
C11   C38   A    
C17   C35   A    
C8    N1    S    
C9    C13   A    
C25   C42   A    
C46   C49   A    
C64   H2    S    
C43   H55   S    
Ba2   O27   S    
C66   H20   S    
C4    H37   S    
Ba1   O19   S    
C29   H29   S    
C52   O17   S    
Ba1   O4    S    
C7    C8    S    
C16   H48   S    
O26   P4    S    
C37   C43   A    
Ba2   O24   S    
C47   C50   A    
C21   H30   S    
Ba1   P1    S    
C57   C58   A    
C6    C14   D    
C65   H54   S    
C15   C31   D    
Ba1   O1    S    
C15   H41   S    
O25   P8    S    
C19   C24   A    
C31   C32   D    
C2    N1    Am   
O4    P1    S    
C42   H38   S    
C4    C16   S    
C44   C46   A    
C68   O10   D    
C23   H8    S    
Ba2   O6    S    
C63   H58   S    
O22   P3    S    
C46   C55   A    
C17   C20   A    
C13   C39   A    
C67   H24   S    
C6    P4    S    
Ba2   P4    S    
C3    C5    S    
C18   C37   A    
C6    C7    D    
C57   H46   S    
C52   H45   S    
Ba2   O4    S    
C44   C62   A    
C58   C59   A    
C26   N2    Am   
C41   H36   S    
Ba1   O24   S    
C31   P1    S    
C41   C42   A    
C45   H16   S    
C62   H57   S    
C35   C36   A    
O15   P6    S    
C16   H14   S    
C29   C30   S    
C28   H51   S    
Ba1   O27   S    
C34   H11   S    
C21   C22   A    
O19   P2    D    
C53   C62   A    
C12   O18   S    
C48   H42   S    
C48   C49   A    
O3    P5    S    
O2    P5    D    
C45   O3    S    
C66   O9    S    
C65   H4    S    
O28   P5    S    
C18   C19   A    
O7    P7    S    
C1    H6    S    
C4    O22   S    
C1    C12   S    
C5    C14   S    
Ba1   P2    S    
C47   C48   A    
O6    P7    D    
C34   H10   S    
C15   C30   S    
C29   C33   D    
Ba1   O15   S    
O17   P1    S    
C67   H22   S    
C18   C41   A    
Ba1   O5    S    
C50   C51   A    
C28   O26   S    
C10   C68   A    
O9    P8    S    
C7    H27   S    
C47   C60   A    
O12   P2    S    
Ba2   O5    S    
C66   C67   S    
C34   H9    S    
C65   H53   S    
C63   H59   S    
C9    C10   A    
O23   P4    D    
C26   O14   D    
C54   C57   A    
C63   H56   S    
C2    C13   A    
C3    C8    D    
C12   H5    S    
C45   C56   S    
C1    H13   S    
C51   C61   A    
O5    P2    S    
C28   H50   S    
Ba2   O25   S    
C2    O13   D    
C33   N2    S    
C40   H1    S    
O27   P7    S    
C64   C65   S    
C59   C60   A    
C1    H3    S    
C56   H19   S    
O20   P3    S    
C23   C34   S    
C38   H32   S    
C10   C11   A    
O24   P4    S    
Ba2   O28   S    
C4    H25   S    
C25   C26   A    
C32   H39   S    
C39   C43   A    
C20   C21   A    
C28   C40   S    
C9    C36   A    
C56   H18   S    
C16   H49   S    
C50   P2    S    
C64   H60   S    
O18   P6    S    
