data_mof_unit_41650.cif
_audit_creation_date              2012-12-10T17:08:45-0500
_audit_creation_method            fapswitch 2.2
_symmetry_space_group_name_H-M    P1
_symmetry_Int_Tables_number       1
_space_group_crystal_system       triclinic
_cell_length_a                    27.856286
_cell_length_b                    11.016442
_cell_length_c                    9.804182
_cell_angle_alpha                 111.021116
_cell_angle_beta                  97.911638
_cell_angle_gamma                 91.885579
_cell_volume                      2770.67770587

loop_
_atom_site_label
_atom_site_type_symbol
_atom_type_description
_atom_site_fract_x
_atom_site_fract_y
_atom_site_fract_z
_atom_type_partial_charge
C1    C     C_R   0.496470 0.254011 0.440542 0.918802
C2    C     C_R   0.503408 0.745987 0.559464 0.918478
C3    C     C_R   0.099619 0.498811 0.463218 -0.095324
C4    C     C_R   0.898303 0.499215 0.493446 -0.092150
C5    C     C_R   0.121988 0.381337 0.430225 -0.097424
C6    C     C_R   0.875126 0.614192 0.510953 -0.096260
C7    C     C_R   0.093171 0.262853 0.380071 -0.114024
C8    C     C_R   0.902947 0.732387 0.546706 -0.113679
C9    C     C_R   0.128008 0.617056 0.493221 -0.148684
C10   C     C_R   0.871029 0.384101 0.483646 -0.135517
C11   C     C_R   0.354002 0.500535 0.501903 -0.326305
C12   C     C_R   0.645770 0.505603 0.496907 -0.338237
C13   C     C_R   0.971562 0.382987 0.457578 0.023137
C14   C     C_R   0.026384 0.615851 0.493682 0.016340
C15   C     C_R   0.976690 0.619919 0.513058 -0.050527
C16   C     C_R   0.020554 0.378194 0.431866 -0.051951
C17   C     C_R   0.948882 0.500475 0.486211 0.046653
C18   C     C_R   0.048765 0.497695 0.464456 0.043750
C19   C     C_R   0.945996 0.276481 0.469600 -0.159468
C20   C     C_R   0.053269 0.722798 0.486163 -0.143656
C21   C     C_R   0.896104 0.271298 0.473912 0.346939
C22   C     C_R   0.103728 0.728011 0.492487 0.350571
C23   C     C_R   0.407330 0.499785 0.501053 0.929730
C24   C     C_R   0.592591 0.501455 0.498791 0.934540
C25   C     C_R   0.042624 0.259421 0.369254 0.357157
C26   C     C_R   0.953557 0.738309 0.565180 0.363275
C27   C     C_2   0.494477 0.114564 0.406932 -0.237227
C28   C     C_2   0.505275 0.885459 0.593150 -0.243988
C29   C     C_2   0.500550 0.069607 0.516660 -0.109810
C30   C     C_2   0.498818 0.930432 0.483478 -0.094394
C31   C     C_2   0.504601 0.510465 0.081438 0.029744
C32   C     C_2   0.498271 0.483211 0.917755 0.000347
C33   C     C_R   0.172622 0.384332 0.437351 0.599412
C34   C     C_R   0.824668 0.611098 0.504192 0.602277
C35   C     C_R   0.179176 0.616512 0.517019 0.592742
C36   C     C_R   0.820557 0.390530 0.491100 0.596416
C37   C     C_R   0.275020 0.552220 0.407583 -0.185439
C38   C     C_R   0.715003 0.421654 0.377240 -0.157550
C39   C     C_R   0.325292 0.559511 0.415049 0.318675
C40   C     C_R   0.664927 0.416048 0.376592 0.359110
C41   C     C_R   0.330579 0.441625 0.586727 0.376377
C42   C     C_R   0.678422 0.597113 0.618289 0.364312
C43   C     C_R   0.280472 0.455405 0.595050 0.088105
C44   C     C_R   0.729110 0.585756 0.625938 0.075886
C45   C     C_R   0.252430 0.502668 0.497013 0.205201
C46   C     C_R   0.747111 0.503501 0.500492 0.189672
Cu1   Cu    Cu3+1 0.508480 0.521810 0.644910 1.078559
Cu2   Cu    Cu3+1 0.491520 0.478190 0.355090 1.086743
H1    H     H_    0.511946 0.951762 0.708217 0.159052
H2    H     H_    0.488090 0.048254 0.291869 0.160440
H3    H     H_    0.473716 0.400827 0.843109 0.208851
H4    H     H_    0.531892 0.586683 0.155261 0.155462
H5    H     H_    0.544095 0.632855 0.936394 0.232659
H6    H     H_    0.453374 0.372979 0.064565 0.230677
H7    H     H_    0.109736 0.171675 0.339660 0.250550
H8    H     H_    0.885583 0.822897 0.576791 0.247535
H9    H     H_    0.729820 0.358082 0.283158 0.222021
H10   H     H_    0.252723 0.589844 0.334948 0.192786
H11   H     H_    0.965430 0.196555 0.479185 0.232978
H12   H     H_    0.034752 0.802184 0.471262 0.235907
H13   H     H_    0.492177 0.864370 0.368226 0.190623
H14   H     H_    0.506909 0.135656 0.631921 0.185710
N1    N     N_R   0.200273 0.501157 0.486325 -0.458455
N2    N     N_R   0.798636 0.501361 0.497274 -0.457410
N3    N     N_2   0.478780 0.445430 0.137360 -0.253097
N4    N     N_2   0.521220 0.554570 0.862640 -0.279381
O1    O     O_R   0.504520 0.332330 0.577400 -0.585081
O2    O     O_R   0.495480 0.667670 0.422600 -0.581302
O3    O     O_R   0.490210 0.295500 0.332650 -0.562467
O4    O     O_R   0.509790 0.704500 0.667350 -0.559763
O5    O     O_R   0.437420 0.518430 0.622370 -0.541058
O6    O     O_R   0.562580 0.481570 0.377630 -0.540904
O7    O     O_R   0.423110 0.481600 0.377610 -0.527039
O8    O     O_R   0.576890 0.518400 0.622390 -0.526602
O9    O     O_2   0.194115 0.271517 0.395594 -0.473940
O10   O     O_2   0.801689 0.717520 0.505835 -0.470973
O11   O     O_2   0.793266 0.289178 0.494982 -0.412108
O12   O     O_2   0.207884 0.729500 0.575036 -0.412651
S1    S     S_3+6 0.361833 0.343917 0.675037 0.010216
O13   O     O_2   0.401513 0.279284 0.593421 -0.316707
O14   O     O_2   0.383192 0.430469 0.830497 -0.307374
O15   O     O_3   0.323461 0.225451 0.680976 -0.478001
H15   H     H_    0.342675 0.185325 0.743789 0.390825
S2    S     S_3+6 0.656837 0.732226 0.753496 0.027957
O16   O     O_2   0.613107 0.777300 0.683556 -0.309989
O17   O     O_2   0.643210 0.690381 0.874173 -0.280434
O18   O     O_3   0.699572 0.859382 0.827896 -0.490906
H16   H     H_    0.687234 0.920282 0.914855 0.394416
C47   C     C_3   0.256826 0.425698 0.710969 -0.600538
H17   H     H_    0.242254 0.321778 0.668533 0.290672
H18   H     H_    0.283002 0.448242 0.814752 0.257287
H19   H     H_    0.226438 0.487484 0.742052 0.196216
C48   C     C_3   0.764140 0.654958 0.768077 -0.580460
H20   H     H_    0.746422 0.667137 0.866289 0.260522
H21   H     H_    0.795373 0.596761 0.777313 0.198220
H22   H     H_    0.778317 0.751621 0.772014 0.283288
S3    S     S_3+6 0.628516 0.291648 0.224722 0.040205
O19   O     O_2   0.592579 0.223077 0.279903 -0.300376
O20   O     O_2   0.601716 0.351731 0.124457 -0.278962
O21   O     O_3   0.663517 0.181522 0.127882 -0.500920
H23   H     H_    0.640625 0.118859 0.043750 0.383813
S4    S     S_3+6 0.349881 0.648968 0.317732 0.060497
O22   O     O_2   0.393417 0.737490 0.413445 -0.266885
O23   O     O_2   0.365063 0.556290 0.179011 -0.259776
O24   O     O_3   0.308487 0.741368 0.271534 -0.450255
H24   H     H_    0.290436 0.684932 0.173441 0.354500
S5    S     S_3+6 0.868188 0.119041 0.461909 0.116618
O25   O     O_2   0.827494 0.071149 0.332385 -0.154754
O26   O     O_2   0.903995 0.017225 0.439884 -0.234702
O27   O     O_3   0.845771 0.137528 0.618241 -0.432881
H25   H     H_    0.874559 0.164539 0.697414 0.347649
S6    S     S_3+6 0.133132 0.869990 0.483043 0.110805
O28   O     O_2   0.096811 0.949237 0.432818 -0.250946
O29   O     O_2   0.159656 0.952926 0.634134 -0.148390
O30   O     O_3   0.173223 0.827973 0.363937 -0.440244
H26   H     H_    0.154042 0.767338 0.269866 0.333945
S7    S     S_3+6 0.010297 0.111052 0.241735 0.044449
O31   O     O_2   0.003405 0.017538 0.319039 -0.231820
O32   O     O_2   0.961641 0.135232 0.173344 -0.256054
O33   O     O_3   0.043133 0.042931 0.106206 -0.475086
H27   H     H_    0.031907 0.948753 0.065941 0.412149
S8    S     S_3+6 0.983674 0.890207 0.691909 0.033277
O34   O     O_2   0.031444 0.870923 0.770148 -0.258793
O35   O     O_2   0.991966 0.980415 0.611507 -0.245195
O36   O     O_3   0.948082 0.959815 0.819121 -0.488985
H28   H     H_    0.961524 0.052256 0.866838 0.407555

loop_
_geom_bond_atom_site_label_1
_geom_bond_atom_site_label_2
_ccdc_geom_bond_type
O18   H16   S    
C48   H20   S    
C27   C29   D    
C8    C26   A    
C14   C18   A    
S2    O18   S    
C7    H7    S    
Cu2   O3    S    
C8    H8    S    
S6    O29   D    
S3    O19   D    
Cu1   O4    S    
H6    N3    S    
C43   C47   S    
S4    O24   S    
C19   C21   A    
C23   O7    A    
C2    O2    A    
C36   O11   S    
S7    O32   D    
C9    C22   A    
O30   H26   S    
C3    C18   A    
C31   N3    D    
O27   H25   S    
C12   C42   A    
C44   C48   S    
C33   O9    S    
C31   C32   S    
C5    C33   A    
S5    O25   D    
Cu2   N3    S    
C47   H18   S    
C31   H4    S    
Cu1   N4    S    
C37   H10   S    
C27   H2    S    
C1    C27   S    
C35   N1    A    
C48   H21   S    
C41   C43   A    
S8    O35   D    
C42   C44   A    
Cu2   O6    S    
Cu1   O1    S    
S6    O28   D    
S3    O20   D    
C44   C46   A    
C5    C7    A    
C10   C21   A    
C13   C19   A    
C14   C20   A    
C42   S2    S    
S2    O16   D    
C4    C6    A    
S7    O33   S    
C40   S3    S    
S1    O14   D    
C15   C26   A    
C6    C8    A    
C19   H11   S    
C45   N1    S    
C1    O3    A    
C6    C34   A    
C46   N2    S    
C12   C40   A    
S4    O23   D    
C32   H3    S    
C29   C30   S    
C3    C9    A    
C23   O5    A    
C38   H9    S    
C28   H1    S    
Cu1   Cu2   S    
C33   N1    A    
C34   N2    A    
Cu2   O2    S    
C47   H19   S    
C11   C39   A    
H5    N4    S    
C43   C45   A    
Cu1   O5    S    
C21   S5    S    
C4    C17   A    
C20   C22   A    
C48   H22   S    
C22   S6    S    
O36   H28   S    
S5    O27   S    
C30   H13   S    
C20   H12   S    
C37   C45   A    
S3    O21   S    
O33   H27   S    
C24   O6    A    
C39   S4    S    
C32   N4    D    
C16   C25   A    
C15   C17   A    
C29   H14   S    
Cu2   O7    S    
Cu1   O8    S    
S2    O17   D    
C3    C5    A    
C25   S7    S    
C41   S1    S    
S1    O15   S    
C10   C36   A    
O24   H24   S    
C12   C24   S    
C35   O12   S    
C7    C25   A    
C13   C17   A    
S8    O36   S    
C28   C30   D    
C47   H17   S    
C37   C39   A    
C36   N2    A    
S7    O31   D    
C38   C40   A    
C24   O8    A    
S5    O26   D    
C11   C23   S    
O21   H23   S    
C1    O1    A    
C11   C41   A    
S4    O22   D    
C38   C46   A    
S1    O13   D    
C16   C18   A    
O15   H15   S    
C13   C16   A    
C9    C35   A    
C14   C15   A    
C2    C28   S    
C26   S8    S    
S8    O34   D    
C2    O4    A    
C4    C10   A    
S6    O30   S    
C34   O10   S    
