data_mof_unit_19997.cif
_audit_creation_date              2012-12-10T20:19:50-0500
_audit_creation_method            fapswitch 2.2
_symmetry_space_group_name_H-M    P1
_symmetry_Int_Tables_number       1
_space_group_crystal_system       triclinic
_cell_length_a                    27.427521
_cell_length_b                    26.730414
_cell_length_c                    18.701187
_cell_angle_alpha                 89.695062
_cell_angle_beta                  90.214752
_cell_angle_gamma                 90.119295
_cell_volume                      13710.4367452

loop_
_atom_site_label
_atom_site_type_symbol
_atom_type_description
_atom_site_fract_x
_atom_site_fract_y
_atom_site_fract_z
_atom_type_partial_charge
C1    C     C_R   0.066418 0.432479 0.500036 0.868025
C2    C     C_R   0.777870 0.260941 0.459627 -0.161696
C3    C     C_R   0.500076 0.953477 0.038579 -0.054350
C4    C     C_R   0.003333 0.500271 0.841730 0.110071
C5    C     C_R   0.003688 0.499683 0.158097 0.111566
C6    C     C_R   0.499336 0.999168 0.841964 0.109504
C7    C     C_R   0.499000 0.999557 0.158142 0.112354
C8    C     C_R   0.104069 0.603916 0.500677 -0.012269
C9    C     C_R   0.896642 0.395030 0.502218 -0.004020
C10   C     C_R   0.895773 0.603778 0.498605 -0.013306
C11   C     C_R   0.099922 0.391166 0.498776 -0.035004
C12   C     C_R   0.605335 0.103050 0.501452 -0.008484
C13   C     C_R   0.764731 0.269908 0.587460 -0.183604
C14   C     C_R   0.396237 0.895835 0.500999 -0.011268
C15   C     C_R   0.391447 0.100226 0.495911 -0.042110
C16   C     C_R   0.604177 0.896225 0.499729 -0.011179
C17   C     C_R   0.958990 0.583576 0.695265 0.189087
C18   C     C_R   0.908929 0.594536 0.698001 -0.174948
C19   C     C_R   0.891847 0.641204 0.675056 -0.126924
C20   C     C_R   0.924572 0.677297 0.649967 -0.092083
C21   C     C_R   0.974424 0.666849 0.647760 -0.191923
C22   C     C_R   0.991721 0.620226 0.670651 -0.095181
C23   C     C_R   0.946053 0.424426 0.301979 0.187210
C24   C     C_R   0.232137 0.731859 0.442705 -0.171612
C25   C     C_R   0.894887 0.424026 0.304965 -0.168559
C26   C     C_R   0.870117 0.380156 0.323878 -0.131128
C27   C     C_R   0.896197 0.336385 0.338509 -0.098220
C28   C     C_R   0.947128 0.336554 0.335227 -0.181086
C29   C     C_R   0.972008 0.380384 0.316807 -0.097788
C30   C     C_R   0.032995 0.412782 0.695829 0.182601
C31   C     C_R   0.079490 0.391235 0.702715 -0.183798
C32   C     C_R   0.086944 0.341247 0.684086 -0.119932
C33   C     C_R   0.048296 0.312462 0.658073 -0.112710
C34   C     C_R   0.001752 0.333196 0.652644 -0.189612
C35   C     C_R   0.767069 0.731384 0.427727 -0.169653
C36   C     C_R   0.993961 0.382939 0.672249 -0.078442
C37   C     C_R   0.046197 0.580994 0.304416 0.190180
C38   C     C_R   0.095859 0.593993 0.301326 -0.178304
C39   C     C_R   0.111272 0.641579 0.322556 -0.123681
C40   C     C_R   0.077367 0.676477 0.346738 -0.092926
C41   C     C_R   0.027927 0.664026 0.349395 -0.192434
C42   C     C_R   0.012249 0.616621 0.327792 -0.085532
C43   C     C_R   0.458723 0.083757 0.696286 0.186138
C44   C     C_R   0.410516 0.100088 0.706204 -0.197669
C45   C     C_R   0.396896 0.148590 0.686390 -0.124369
C46   C     C_R   0.250323 0.285437 0.474966 -0.169423
C47   C     C_R   0.431029 0.181071 0.656050 -0.106941
C48   C     C_R   0.479199 0.165555 0.647282 -0.193453
C49   C     C_R   0.493264 0.117378 0.668283 -0.077599
C50   C     C_R   0.455533 0.917969 0.305152 0.189709
C51   C     C_R   0.405713 0.905663 0.301756 -0.177850
C52   C     C_R   0.389664 0.858385 0.323883 -0.125198
C53   C     C_R   0.423125 0.823083 0.349106 -0.091710
C54   C     C_R   0.472721 0.834871 0.352103 -0.192693
C55   C     C_R   0.489019 0.882002 0.329719 -0.087969
C56   C     C_R   0.544050 0.917978 0.695942 0.190516
C57   C     C_R   0.186897 0.222223 0.486170 -0.167231
C58   C     C_R   0.594194 0.907334 0.698867 -0.176276
C59   C     C_R   0.611418 0.860691 0.676962 -0.126775
C60   C     C_R   0.578757 0.824310 0.652720 -0.091414
C61   C     C_R   0.528842 0.834494 0.650091 -0.192295
C62   C     C_R   0.511406 0.881065 0.672017 -0.091612
C63   C     C_R   0.548117 0.079628 0.302997 0.186705
C64   C     C_R   0.598874 0.086894 0.302922 -0.176596
C65   C     C_R   0.618611 0.132662 0.324673 -0.129238
C66   C     C_R   0.587847 0.171454 0.345835 -0.095129
C67   C     C_R   0.537316 0.164545 0.345512 -0.181541
C68   C     C_R   0.768176 0.731772 0.557848 -0.179276
C69   C     C_R   0.517472 0.118936 0.323467 -0.086681
C70   C     C_R   0.115104 0.737583 0.555498 0.124388
C71   C     C_R   0.099890 0.744483 0.626375 -0.188776
C72   C     C_R   0.082460 0.791026 0.648300 -0.140151
C73   C     C_R   0.079342 0.830596 0.599346 -0.127010
C74   C     C_R   0.093962 0.823738 0.528559 -0.133415
C75   C     C_R   0.112382 0.777591 0.506789 -0.117009
C76   C     C_R   0.891221 0.256817 0.537434 0.128776
C77   C     C_R   0.880836 0.232606 0.602474 -0.143384
C78   C     C_R   0.897570 0.184003 0.615237 -0.148575
C79   C     C_R   0.730075 0.232044 0.585184 -0.165087
C80   C     C_R   0.925021 0.159365 0.563440 -0.113050
C81   C     C_R   0.935728 0.183272 0.498767 -0.130872
C82   C     C_R   0.919100 0.231885 0.485857 -0.168598
C83   C     C_R   0.760878 0.391262 0.519027 0.130383
C84   C     C_R   0.739200 0.413502 0.458612 -0.160303
C85   C     C_R   0.693168 0.435545 0.463654 -0.140593
C86   C     C_R   0.668682 0.435820 0.529035 -0.114606
C87   C     C_R   0.689949 0.413585 0.589296 -0.116137
C88   C     C_R   0.735965 0.391495 0.584465 -0.132173
C89   C     C_R   0.237525 0.611750 0.462502 0.123482
C90   C     C_R   0.268437 0.767859 0.442768 -0.173162
C91   C     C_R   0.248722 0.597205 0.392443 -0.173960
C92   C     C_R   0.295429 0.579916 0.376113 -0.134844
C93   C     C_R   0.330831 0.576159 0.429821 -0.131388
C94   C     C_R   0.319635 0.589931 0.499850 -0.141944
C95   C     C_R   0.273321 0.608173 0.516104 -0.121628
C96   C     C_R   0.884539 0.738659 0.447537 0.125663
C97   C     C_R   0.902549 0.746995 0.378267 -0.185560
C98   C     C_R   0.919482 0.794395 0.358311 -0.139583
C99   C     C_R   0.919247 0.833479 0.407653 -0.128326
C100  C     C_R   0.901816 0.825262 0.476860 -0.130950
C101  C     C_R   0.269018 0.767076 0.572961 -0.170540
C102  C     C_R   0.884027 0.778196 0.496633 -0.120990
C103  C     C_R   0.118660 0.279447 0.381878 0.117152
C104  C     C_R   0.154947 0.273219 0.329806 -0.129870
C105  C     C_R   0.146956 0.241352 0.271874 -0.149019
C106  C     C_R   0.102697 0.215773 0.265207 -0.120213
C107  C     C_R   0.066306 0.222013 0.316463 -0.154725
C108  C     C_R   0.074135 0.253783 0.374513 -0.186531
C109  C     C_R   0.211405 0.347768 0.598000 0.115095
C110  C     C_R   0.218869 0.305211 0.641201 -0.150631
C111  C     C_R   0.256780 0.304335 0.691410 -0.153433
C112  C     C_R   0.933202 0.566808 0.499728 0.871470
C113  C     C_R   0.743342 0.223102 0.457335 -0.177993
C114  C     C_R   0.287413 0.345781 0.699037 -0.113251
C115  C     C_R   0.280110 0.388319 0.656683 -0.137762
C116  C     C_R   0.242235 0.389438 0.606497 -0.177858
C117  C     C_R   0.762139 0.609478 0.535625 0.123292
C118  C     C_R   0.751360 0.591485 0.604478 -0.172208
C119  C     C_R   0.705434 0.571170 0.619131 -0.124121
C120  C     C_R   0.670357 0.567972 0.564954 -0.122159
C121  C     C_R   0.681059 0.585353 0.496157 -0.138132
C122  C     C_R   0.726604 0.606506 0.481588 -0.117593
C123  C     C_R   0.618240 0.238780 0.545460 0.127887
C124  C     C_R   0.221803 0.184919 0.481433 -0.171113
C125  C     C_R   0.596978 0.249944 0.611642 -0.188289
C126  C     C_R   0.582005 0.298738 0.626494 -0.147052
C127  C     C_R   0.587775 0.336471 0.575184 -0.113671
C128  C     C_R   0.608916 0.325543 0.509195 -0.115156
C129  C     C_R   0.624416 0.276954 0.494448 -0.134544
C130  C     C_R   0.262616 0.887610 0.463643 0.124393
C131  C     C_R   0.250615 0.902226 0.393560 -0.172926
C132  C     C_R   0.203803 0.919804 0.377747 -0.134918
C133  C     C_R   0.169113 0.923757 0.431980 -0.130542
C134  C     C_R   0.181110 0.909857 0.502013 -0.141709
C135  C     C_R   0.733351 0.769257 0.557789 -0.178704
C136  C     C_R   0.227528 0.891339 0.517772 -0.123767
C137  C     C_R   0.386577 0.761498 0.555045 0.124190
C138  C     C_R   0.403691 0.754148 0.625192 -0.187667
C139  C     C_R   0.421913 0.707542 0.646321 -0.139827
C140  C     C_R   0.423947 0.668345 0.597265 -0.126105
C141  C     C_R   0.407417 0.675627 0.527202 -0.134484
C142  C     C_R   0.388172 0.721817 0.506288 -0.117743
C143  C     C_R   0.741732 0.103329 0.488993 0.121692
C144  C     C_R   0.756280 0.079847 0.425529 -0.173359
C145  C     C_R   0.803105 0.059686 0.419816 -0.128751
C146  C     C_R   0.731840 0.768519 0.427682 -0.170401
C147  C     C_R   0.835484 0.062351 0.477549 -0.100708
C148  C     C_R   0.821104 0.085224 0.541050 -0.114362
C149  C     C_R   0.774524 0.105884 0.546767 -0.123180
C150  C     C_R   0.275232 0.122946 0.595728 0.111590
C151  C     C_R   0.263322 0.164398 0.638125 -0.152381
C152  C     C_R   0.227496 0.160151 0.690834 -0.152522
C153  C     C_R   0.203697 0.114533 0.702051 -0.113348
C154  C     C_R   0.215737 0.073003 0.660705 -0.139450
C155  C     C_R   0.251438 0.077084 0.607849 -0.177021
C156  C     C_R   0.738825 0.891721 0.529835 0.123575
C157  C     C_R   0.285252 0.248416 0.474481 -0.161991
C158  C     C_R   0.751508 0.911050 0.597080 -0.171941
C159  C     C_R   0.797561 0.932251 0.608068 -0.128347
C160  C     C_R   0.830866 0.934971 0.551805 -0.121882
C161  C     C_R   0.818324 0.916096 0.484645 -0.134753
C162  C     C_R   0.772643 0.894120 0.473741 -0.117507
C163  C     C_R   0.614843 0.761196 0.451720 0.126241
C164  C     C_R   0.596109 0.752434 0.382906 -0.186395
C165  C     C_R   0.578536 0.705040 0.364700 -0.139265
C166  C     C_R   0.578838 0.666415 0.415364 -0.127456
C167  C     C_R   0.597048 0.675064 0.484104 -0.131312
C168  C     C_R   0.788272 0.284456 0.524530 0.134481
C169  C     C_R   0.615556 0.722091 0.502087 -0.120207
C170  C     C_R   0.341146 0.190253 0.359358 0.119562
C171  C     C_R   0.298933 0.186511 0.316771 -0.126382
C172  C     C_R   0.295259 0.213458 0.252716 -0.149859
C173  C     C_R   0.333647 0.244167 0.230456 -0.119700
C174  C     C_R   0.375825 0.247971 0.272191 -0.148590
C175  C     C_R   0.379692 0.221103 0.336281 -0.187167
C176  C     C_R   0.990815 0.406539 0.924116 0.126408
C177  C     C_R   0.947114 0.399938 0.885803 -0.152386
C178  C     C_R   0.939166 0.356246 0.846645 -0.155802
C179  C     C_R   0.214311 0.713621 0.507739 0.120430
C180  C     C_R   0.974600 0.318772 0.845698 -0.096287
C181  C     C_R   0.017975 0.324815 0.884156 -0.127038
C182  C     C_R   0.026117 0.368447 0.923364 -0.158904
C183  C     C_R   0.004435 0.594260 0.076246 0.127556
C184  C     C_R   0.962339 0.607063 0.114615 -0.151754
C185  C     C_R   0.960947 0.651302 0.154098 -0.155728
C186  C     C_R   0.001387 0.683171 0.155298 -0.097704
C187  C     C_R   0.043230 0.670973 0.116764 -0.127926
C188  C     C_R   0.044825 0.626754 0.077249 -0.159136
C189  C     C_R   0.019103 0.593218 0.922423 0.127142
C190  C     C_R   0.201277 0.272533 0.483387 0.093502
C191  C     C_R   0.062081 0.598989 0.882481 -0.145601
C192  C     C_R   0.069821 0.642348 0.841900 -0.155952
C193  C     C_R   0.034926 0.680357 0.841174 -0.109472
C194  C     C_R   0.992320 0.675188 0.881314 -0.125435
C195  C     C_R   0.984361 0.631862 0.921877 -0.157254
C196  C     C_R   0.007116 0.405613 0.077851 0.129167
C197  C     C_R   0.049507 0.394007 0.116996 -0.153903
C198  C     C_R   0.052203 0.349673 0.156853 -0.151249
C199  C     C_R   0.012735 0.316553 0.157793 -0.109917
C200  C     C_R   0.970536 0.327640 0.118755 -0.129999
C201  C     C_R   0.785034 0.713038 0.492829 0.120691
C202  C     C_R   0.967651 0.371931 0.078846 -0.153139
C203  C     C_R   0.491162 0.905147 0.924010 0.126996
C204  C     C_R   0.448555 0.896032 0.884113 -0.147335
C205  C     C_R   0.443840 0.852141 0.844318 -0.156067
C206  C     C_R   0.481413 0.816923 0.844361 -0.105149
C207  C     C_R   0.523688 0.825414 0.884482 -0.126305
C208  C     C_R   0.528622 0.869288 0.924266 -0.158200
C209  C     C_R   0.490201 0.093160 0.076423 0.128903
C210  C     C_R   0.447015 0.101670 0.114716 -0.153127
C211  C     C_R   0.441362 0.145476 0.154332 -0.153290
C212  C     C_R   0.286737 0.785364 0.507865 0.120214
C213  C     C_R   0.478619 0.181184 0.155792 -0.108116
C214  C     C_R   0.521525 0.173238 0.117436 -0.128043
C215  C     C_R   0.527378 0.129460 0.077804 -0.155776
C216  C     C_R   0.506841 0.093374 0.922793 0.125725
C217  C     C_R   0.549742 0.102603 0.883977 -0.149328
C218  C     C_R   0.554628 0.146459 0.843535 -0.156040
C219  C     C_R   0.516920 0.181519 0.841824 -0.100239
C220  C     C_R   0.474339 0.172914 0.880837 -0.124404
C221  C     C_R   0.469245 0.129093 0.921297 -0.158609
C222  C     C_R   0.505471 0.905257 0.078115 0.127778
C223  C     C_R   0.933453 0.432839 0.500204 0.869987
C224  C     C_R   0.719260 0.208913 0.519998 0.116047
C225  C     C_R   0.548035 0.895659 0.117924 -0.149257
C226  C     C_R   0.552115 0.851810 0.158581 -0.156747
C227  C     C_R   0.513929 0.817133 0.159522 -0.102772
C228  C     C_R   0.471668 0.826129 0.119545 -0.126188
C229  C     C_R   0.467378 0.869955 0.078880 -0.158029
C230  C     C_R   0.715188 0.787424 0.492728 0.121135
C231  C     C_R   0.271163 0.198090 0.477817 0.094034
C232  C     C_R   0.004953 0.499887 0.076898 -0.009232
C233  C     C_R   0.004523 0.499994 0.923078 -0.008892
C234  C     C_R   0.498629 0.999316 0.076977 -0.009387
C235  C     C_R   0.499143 0.999205 0.923272 -0.008809
C236  C     C_R   0.977756 0.537373 0.728146 0.101095
C237  C     C_R   0.971901 0.467273 0.270837 0.099112
C238  C     C_R   0.022879 0.462155 0.727167 0.106223
C239  C     C_R   0.066881 0.566700 0.500028 0.873900
C240  C     C_R   0.028685 0.533752 0.273205 0.107393
C241  C     C_R   0.474976 0.035857 0.727649 0.105391
C242  C     C_R   0.473543 0.964748 0.272805 0.105478
C243  C     C_R   0.525062 0.964024 0.728097 0.101968
C244  C     C_R   0.526653 0.034465 0.271468 0.102306
C245  C     C_R   0.975089 0.534661 0.803246 -0.284460
C246  C     C_R   0.970204 0.470382 0.195715 -0.283407
C247  C     C_R   0.029686 0.465664 0.801684 -0.282444
C248  C     C_R   0.035001 0.529483 0.198756 -0.284330
C249  C     C_R   0.469853 0.031648 0.802365 -0.280894
C250  C     C_R   0.566786 0.933198 0.500114 0.870077
C251  C     C_R   0.468715 0.968061 0.197954 -0.284375
C252  C     C_R   0.529117 0.966956 0.803074 -0.284711
C253  C     C_R   0.529973 0.031131 0.196559 -0.284158
C254  C     C_R   0.093374 0.650717 0.528223 -0.248849
C255  C     C_R   0.910420 0.345517 0.512785 -0.253908
C256  C     C_R   0.848047 0.409381 0.504095 -0.250508
C257  C     C_R   0.150473 0.591975 0.476755 -0.243026
C258  C     C_R   0.906365 0.651151 0.472055 -0.247732
C259  C     C_R   0.093119 0.354210 0.447485 -0.241542
C260  C     C_R   0.138698 0.388984 0.546658 -0.239328
C261  C     C_R   0.432514 0.066561 0.499459 0.872908
C262  C     C_R   0.849309 0.591130 0.521881 -0.242468
C263  C     C_R   0.594627 0.151603 0.522125 -0.251799
C264  C     C_R   0.349611 0.907698 0.477344 -0.245698
C265  C     C_R   0.407424 0.848889 0.528486 -0.247056
C266  C     C_R   0.652988 0.088028 0.488464 -0.245988
C267  C     C_R   0.353839 0.096265 0.545380 -0.232632
C268  C     C_R   0.651177 0.909355 0.520259 -0.243486
C269  C     C_R   0.593153 0.848595 0.475191 -0.247882
C270  C     C_R   0.387018 0.131766 0.436657 -0.245416
C271  C     C_R   0.129209 0.687304 0.530743 0.010342
C272  C     C_R   0.433176 0.933263 0.500111 0.873040
C273  C     C_R   0.875133 0.309042 0.524885 0.007127
C274  C     C_R   0.811919 0.373773 0.515876 0.011631
C275  C     C_R   0.187507 0.627316 0.481078 0.007388
C276  C     C_R   0.870413 0.687625 0.470390 0.011754
C277  C     C_R   0.125811 0.314987 0.441742 0.010624
C278  C     C_R   0.171356 0.349218 0.544206 0.012606
C279  C     C_R   0.812079 0.626224 0.518018 0.007738
C280  C     C_R   0.631760 0.186696 0.528395 0.012025
C281  C     C_R   0.312847 0.872084 0.481709 0.007456
C282  C     C_R   0.371872 0.811975 0.530835 0.009869
C283  C     C_R   0.566999 0.066746 0.500101 0.871296
C284  C     C_R   0.691188 0.121925 0.496747 0.009972
C285  C     C_R   0.312920 0.126802 0.539298 0.013717
C286  C     C_R   0.688491 0.874430 0.515754 0.008235
C287  C     C_R   0.629256 0.812344 0.472875 0.011134
C288  C     C_R   0.345658 0.160713 0.426743 0.009548
C289  C     C_R   0.176642 0.675557 0.507136 -0.014339
C290  C     C_R   0.825459 0.323176 0.525646 -0.018819
C291  C     C_R   0.822820 0.675075 0.493212 -0.017066
C292  C     C_R   0.165311 0.312227 0.490503 -0.002206
C293  C     C_R   0.680435 0.171827 0.516032 -0.015985
C294  C     C_R   0.232560 0.731114 0.572898 -0.171521
C295  C     C_R   0.324203 0.823635 0.507384 -0.014399
C296  C     C_R   0.309193 0.160051 0.480100 -0.002081
C297  C     C_R   0.677341 0.825299 0.493140 -0.017253
C298  C     C_R   0.000253 0.454335 0.962388 -0.053416
C299  C     C_R   0.006755 0.545705 0.037709 -0.053719
C300  C     C_R   0.009638 0.545525 0.961706 -0.054478
C301  C     C_R   0.003653 0.454113 0.038381 -0.054623
C302  C     C_R   0.497267 0.953419 0.962552 -0.054036
C303  C     C_R   0.497040 0.045066 0.037771 -0.054229
C304  C     C_R   0.500540 0.045069 0.961860 -0.053879
H1    H     H_    0.952811 0.561352 0.831443 0.150935
H2    H     H_    0.948741 0.335579 0.512535 0.132839
H3    H     H_    0.264989 0.618400 0.570671 0.121859
H4    H     H_    0.903788 0.716716 0.340038 0.118439
H5    H     H_    0.933309 0.800667 0.304874 0.119969
H6    H     H_    0.932851 0.870033 0.392431 0.110807
H7    H     H_    0.902479 0.855260 0.515434 0.128027
H8    H     H_    0.871008 0.772298 0.550595 0.115248
H9    H     H_    0.189095 0.293463 0.333570 0.132048
H10   H     H_    0.174912 0.236805 0.231795 0.118236
H11   H     H_    0.096514 0.191299 0.220145 0.117307
H12   H     H_    0.031935 0.202397 0.311071 0.118725
H13   H     H_    0.838451 0.448558 0.498095 0.130346
H14   H     H_    0.045522 0.258441 0.413697 0.123151
H15   H     H_    0.195250 0.272892 0.636232 0.126270
H16   H     H_    0.262449 0.271596 0.724599 0.115826
H17   H     H_    0.316758 0.344967 0.737877 0.114694
H18   H     H_    0.303850 0.420431 0.662663 0.122174
H19   H     H_    0.237278 0.422571 0.573695 0.126532
H20   H     H_    0.778657 0.592718 0.646429 0.115761
H21   H     H_    0.697248 0.557320 0.672238 0.117887
H22   H     H_    0.634998 0.551747 0.576146 0.106174
H23   H     H_    0.654126 0.582186 0.453985 0.121663
H24   H     H_    0.158086 0.554669 0.457172 0.135440
H25   H     H_    0.734691 0.619151 0.427798 0.120674
H26   H     H_    0.592035 0.220880 0.651566 0.118153
H27   H     H_    0.565641 0.307217 0.677576 0.119868
H28   H     H_    0.575854 0.374164 0.586537 0.109187
H29   H     H_    0.613059 0.354643 0.469248 0.128272
H30   H     H_    0.640530 0.268955 0.443020 0.112938
H31   H     H_    0.277490 0.900201 0.351427 0.115958
H32   H     H_    0.194582 0.930869 0.323620 0.121199
H33   H     H_    0.133040 0.937849 0.419837 0.113390
H34   H     H_    0.154511 0.913659 0.544211 0.124769
H35   H     H_    0.943145 0.660089 0.455190 0.131653
H36   H     H_    0.236513 0.881048 0.572342 0.121616
H37   H     H_    0.403393 0.784639 0.663129 0.119540
H38   H     H_    0.435092 0.702034 0.700412 0.119739
H39   H     H_    0.438656 0.632457 0.613363 0.112260
H40   H     H_    0.409940 0.645599 0.488862 0.123647
H41   H     H_    0.375820 0.727032 0.451721 0.115504
H42   H     H_    0.731326 0.077062 0.380685 0.118020
H43   H     H_    0.814155 0.041637 0.370828 0.117738
H44   H     H_    0.871567 0.046350 0.473294 0.105583
H45   H     H_    0.845866 0.086474 0.586155 0.115953
H46   H     H_    0.062657 0.356582 0.410576 0.145107
H47   H     H_    0.763649 0.122821 0.596693 0.117885
H48   H     H_    0.281746 0.199861 0.630304 0.133719
H49   H     H_    0.218139 0.192149 0.723121 0.116151
H50   H     H_    0.175991 0.111342 0.742887 0.115163
H51   H     H_    0.197345 0.037653 0.669521 0.122653
H52   H     H_    0.260237 0.044656 0.575914 0.131045
H53   H     H_    0.725539 0.910239 0.640564 0.116468
H54   H     H_    0.807188 0.947183 0.659924 0.118198
H55   H     H_    0.866283 0.951943 0.560116 0.107799
H56   H     H_    0.843916 0.918776 0.440883 0.121370
H57   H     H_    0.143349 0.418234 0.586066 0.146528
H58   H     H_    0.763058 0.880446 0.421108 0.120227
H59   H     H_    0.594725 0.782406 0.343724 0.118481
H60   H     H_    0.564113 0.698444 0.311624 0.119692
H61   H     H_    0.564691 0.629886 0.401529 0.110737
H62   H     H_    0.596434 0.645436 0.523702 0.126723
H63   H     H_    0.629242 0.728322 0.555667 0.114722
H64   H     H_    0.269108 0.162363 0.332761 0.127201
H65   H     H_    0.262766 0.210278 0.220070 0.117535
H66   H     H_    0.330770 0.264898 0.180757 0.119104
H67   H     H_    0.405584 0.271689 0.254819 0.119975
H68   H     H_    0.841793 0.553409 0.540619 0.134038
H69   H     H_    0.412593 0.224589 0.368093 0.118960
H70   H     H_    0.919580 0.428923 0.885586 0.123530
H71   H     H_    0.905665 0.351576 0.816632 0.120858
H72   H     H_    0.968515 0.285128 0.814951 0.119686
H73   H     H_    0.045467 0.295849 0.883122 0.123020
H74   H     H_    0.060268 0.373085 0.951830 0.127148
H75   H     H_    0.930942 0.582423 0.114640 0.123604
H76   H     H_    0.928635 0.660723 0.184176 0.119780
H77   H     H_    0.000351 0.717230 0.186294 0.117043
H78   H     H_    0.074585 0.695600 0.117972 0.122733
H79   H     H_    0.557122 0.162336 0.531440 0.129913
H80   H     H_    0.077787 0.617264 0.048705 0.125977
H81   H     H_    0.089173 0.569574 0.882028 0.123994
H82   H     H_    0.102740 0.646353 0.810636 0.122047
H83   H     H_    0.040846 0.713746 0.809339 0.115135
H84   H     H_    0.965239 0.704573 0.880486 0.123443
H85   H     H_    0.950700 0.627861 0.951454 0.126002
H86   H     H_    0.080200 0.419565 0.117124 0.125232
H87   H     H_    0.084787 0.341103 0.187342 0.140006
H88   H     H_    0.014777 0.282403 0.189007 0.128883
H89   H     H_    0.939904 0.302068 0.119833 0.124233
H90   H     H_    0.341622 0.945141 0.457954 0.136512
H91   H     H_    0.934413 0.380491 0.049889 0.125441
H92   H     H_    0.419386 0.923278 0.883087 0.124184
H93   H     H_    0.411181 0.845573 0.813059 0.121170
H94   H     H_    0.477819 0.783126 0.813134 0.115695
H95   H     H_    0.552831 0.798185 0.884260 0.123133
H96   H     H_    0.561988 0.875894 0.953911 0.125888
H97   H     H_    0.418055 0.074064 0.114507 0.125914
H98   H     H_    0.408213 0.151606 0.184240 0.147494
H99   H     H_    0.474310 0.214931 0.186832 0.118182
H100  H     H_    0.550427 0.200841 0.118869 0.123527
H101  H     H_    0.444323 0.840665 0.545787 0.132267
H102  H     H_    0.561175 0.123320 0.049452 0.125497
H103  H     H_    0.579004 0.075458 0.884256 0.123495
H104  H     H_    0.587518 0.153110 0.813104 0.120848
H105  H     H_    0.520637 0.215273 0.810063 0.116328
H106  H     H_    0.445078 0.199998 0.879201 0.122796
H107  H     H_    0.435632 0.122377 0.950015 0.127313
H108  H     H_    0.577675 0.922494 0.118190 0.123321
H109  H     H_    0.584754 0.844861 0.189755 0.120709
H110  H     H_    0.517031 0.783374 0.191422 0.116050
H111  H     H_    0.442047 0.799329 0.120550 0.123091
H112  H     H_    0.944220 0.447613 0.166758 0.150299
H113  H     H_    0.660448 0.049410 0.474737 0.131291
H114  H     H_    0.434046 0.876957 0.049300 0.125910
H115  H     H_    0.356383 0.069377 0.588794 0.155139
H116  H     H_    0.659006 0.947341 0.537067 0.133938
H117  H     H_    0.556022 0.839360 0.460130 0.131712
H118  H     H_    0.415395 0.132759 0.396692 0.144779
H119  H     H_    0.218707 0.716730 0.623151 0.127875
H120  H     H_    0.796399 0.272099 0.411015 0.119125
H121  H     H_    0.773406 0.287583 0.637893 0.112896
H122  H     H_    0.217818 0.718223 0.392348 0.121993
H123  H     H_    0.780303 0.716849 0.377456 0.126773
H124  H     H_    0.052476 0.438554 0.828709 0.151648
H125  H     H_    0.261584 0.324235 0.471298 0.139365
H126  H     H_    0.148911 0.212047 0.492547 0.138791
H127  H     H_    0.782389 0.717667 0.608178 0.122204
H128  H     H_    0.711387 0.220992 0.633707 0.126517
H129  H     H_    0.282346 0.782115 0.392457 0.121934
H130  H     H_    0.283230 0.780896 0.623261 0.128019
H131  H     H_    0.734679 0.205484 0.406795 0.124488
H132  H     H_    0.210643 0.146045 0.483006 0.141848
H133  H     H_    0.720136 0.783788 0.608088 0.122193
H134  H     H_    0.717574 0.782601 0.377387 0.126414
H135  H     H_    0.061627 0.552863 0.172186 0.150171
H136  H     H_    0.323376 0.258968 0.472079 0.137825
H137  H     H_    0.883338 0.567172 0.718609 0.111957
H138  H     H_    0.853282 0.649524 0.677077 0.117735
H139  H     H_    0.911335 0.713473 0.632675 0.119112
H140  H     H_    0.999667 0.695254 0.629457 0.137140
H141  H     H_    0.030594 0.613210 0.671090 0.130479
H142  H     H_    0.874335 0.457351 0.291533 0.114388
H143  H     H_    0.830704 0.379904 0.326371 0.118592
H144  H     H_    0.876908 0.302372 0.352359 0.116455
H145  H     H_    0.967347 0.302579 0.345719 0.119255
H146  H     H_    0.445481 0.056657 0.829907 0.151291
H147  H     H_    0.011295 0.379651 0.311552 0.121281
H148  H     H_    0.109672 0.412843 0.723851 0.117953
H149  H     H_    0.122640 0.324733 0.690312 0.133599
H150  H     H_    0.054199 0.273801 0.643609 0.125112
H151  H     H_    0.971443 0.310231 0.635387 0.139996
H152  H     H_    0.957127 0.397368 0.672374 0.136943
H153  H     H_    0.122421 0.567531 0.281685 0.111437
H154  H     H_    0.149471 0.651550 0.319985 0.115522
H155  H     H_    0.089372 0.713288 0.362926 0.117154
H156  H     H_    0.001706 0.691480 0.366938 0.131211
H157  H     H_    0.443777 0.943183 0.170693 0.150275
H158  H     H_    0.973627 0.608154 0.327474 0.127816
H159  H     H_    0.383698 0.075505 0.730301 0.120067
H160  H     H_    0.359888 0.161015 0.694754 0.134415
H161  H     H_    0.420343 0.218536 0.640459 0.122569
H162  H     H_    0.505816 0.191389 0.625888 0.128381
H163  H     H_    0.531294 0.107004 0.665173 0.134959
H164  H     H_    0.379529 0.932419 0.281142 0.112955
H165  H     H_    0.351326 0.848962 0.321137 0.116120
H166  H     H_    0.410655 0.786475 0.365850 0.117830
H167  H     H_    0.498571 0.807109 0.370529 0.132743
H168  H     H_    0.553369 0.941630 0.830980 0.151196
H169  H     H_    0.527746 0.889949 0.329628 0.129948
H170  H     H_    0.619734 0.934906 0.718897 0.112064
H171  H     H_    0.650048 0.852623 0.679134 0.117689
H172  H     H_    0.592108 0.788151 0.636286 0.118570
H173  H     H_    0.503650 0.805954 0.632198 0.135309
H174  H     H_    0.472496 0.887856 0.672218 0.128762
H175  H     H_    0.622948 0.057378 0.285358 0.113234
H176  H     H_    0.657723 0.138140 0.324907 0.119881
H177  H     H_    0.603169 0.206869 0.362364 0.117876
H178  H     H_    0.513512 0.194756 0.361273 0.120795
H179  H     H_    0.554784 0.055629 0.168208 0.149542
H180  H     H_    0.478336 0.114573 0.320259 0.117084
H181  H     H_    0.101079 0.713715 0.664288 0.120071
H182  H     H_    0.070760 0.796211 0.702966 0.119721
H183  H     H_    0.065278 0.866452 0.616105 0.112397
H184  H     H_    0.090628 0.854075 0.490360 0.123821
H185  H     H_    0.123264 0.772672 0.451692 0.115025
H186  H     H_    0.860556 0.251635 0.643717 0.113092
H187  H     H_    0.889467 0.165519 0.665445 0.114983
H188  H     H_    0.938001 0.121754 0.573431 0.107598
H189  H     H_    0.957077 0.164215 0.458729 0.117541
H190  H     H_    0.056650 0.659078 0.545537 0.132954
H191  H     H_    0.927927 0.249989 0.435740 0.114078
H192  H     H_    0.758335 0.414517 0.408066 0.116195
H193  H     H_    0.676694 0.452876 0.417073 0.118683
H194  H     H_    0.633165 0.453132 0.532954 0.104499
H195  H     H_    0.671004 0.413984 0.639950 0.116024
H196  H     H_    0.752795 0.376107 0.632149 0.108963
H197  H     H_    0.221329 0.599099 0.350702 0.116046
H198  H     H_    0.304027 0.568936 0.321994 0.121165
H199  H     H_    0.366830 0.562297 0.417287 0.113234
H200  H     H_    0.346769 0.586231 0.541679 0.125216
N1    N     N_R   0.000000 0.500000 0.689440 -0.134609
N2    N     N_R   0.000000 0.500000 0.310560 -0.133426
N3    N     N_R   0.500000 0.000000 0.689440 -0.135018
N4    N     N_R   0.500000 0.000000 0.310560 -0.133567
O1    O     O_R   0.050900 0.449080 0.560840 -0.613404
O2    O     O_R   0.449100 0.050920 0.439160 -0.628328
O3    O     O_R   0.449100 0.050920 0.560840 -0.614001
O4    O     O_R   0.550900 0.949080 0.439160 -0.631969
O5    O     O_R   0.449100 0.949080 0.439160 -0.609427
O6    O     O_R   0.550900 0.050920 0.560840 -0.633409
O7    O     O_R   0.550900 0.050920 0.439160 -0.606977
O8    O     O_R   0.449100 0.949080 0.560840 -0.630832
O9    O     O_R   0.949100 0.550920 0.439160 -0.632521
O10   O     O_R   0.949100 0.550920 0.560840 -0.608224
O11   O     O_R   0.050900 0.449080 0.439160 -0.625554
O12   O     O_R   0.949100 0.449080 0.439160 -0.608643
O13   O     O_R   0.050900 0.550920 0.560840 -0.629192
O14   O     O_R   0.050900 0.550920 0.439160 -0.610199
O15   O     O_R   0.949100 0.449080 0.560840 -0.632895
O16   O     O_R   0.550900 0.949080 0.560840 -0.608548
Zn1   Zn    Zn3+2 0.000000 0.500000 0.581210 0.939393
Zn2   Zn    Zn3+2 0.000000 0.500000 0.418790 0.940448
Zn3   Zn    Zn3+2 0.500000 0.000000 0.581210 0.937483
Zn4   Zn    Zn3+2 0.500000 0.000000 0.418790 0.940949

loop_
_geom_bond_atom_site_label_1
_geom_bond_atom_site_label_2
_ccdc_geom_bond_type
C13   C79   A    
C168  C290  S    
C126  C127  A    
C96   C102  A    
C126  H27   S    
C19   C20   A    
C82   H191  S    
C85   H193  S    
C114  C115  A    
C71   H181  S    
C79   C224  A    
C277  C292  A    
C44   C45   A    
C41   H156  S    
C176  C182  A    
O4    Zn4   S    
C242  C251  A    
C47   H161  S    
C16   C269  A    
C237  N2    A    
C106  C107  A    
C135  H133  S    
C143  C144  A    
C153  H50   S    
C73   H183  S    
C186  H77   S    
C41   C42   A    
C37   C42   A    
C110  C111  A    
C52   H165  S    
C79   H128  S    
C36   H152  S    
C222  C229  A    
C238  C247  A    
C234  C303  A    
C75   H185  S    
C150  C285  S    
C83   C274  S    
C93   H199  S    
C83   C88   A    
C151  C152  A    
C59   C60   A    
C201  C291  S    
C21   C22   A    
C187  H78   S    
C264  C281  A    
C256  C274  A    
C174  H67   S    
C122  H25   S    
C95   H3    S    
C104  C105  A    
C81   H189  S    
C42   H158  S    
C45   C47   A    
C101  C212  A    
C198  H87   S    
C61   H173  S    
C257  C275  A    
C258  C276  A    
C51   C52   A    
C110  H15   S    
C241  C249  A    
C140  C141  A    
C128  H29   S    
C206  C207  A    
C196  C197  A    
C181  H73   S    
C147  H44   S    
C213  C214  A    
C173  H66   S    
C10   C262  A    
C112  O10   A    
C11   C259  A    
C261  O2    A    
C43   C44   A    
C37   C38   A    
C118  H20   S    
C227  C228  A    
O16   Zn3   S    
C196  C301  S    
C102  H8    S    
C55   H169  S    
C76   C77   A    
O6    Zn3   S    
C6    C235  S    
C154  C155  A    
C14   C264  A    
C232  C299  A    
C137  C282  S    
C3    C222  S    
C158  C159  A    
C56   C62   A    
C235  C304  A    
C162  H58   S    
C184  H75   S    
C91   C92   A    
C266  C284  A    
C100  H7    S    
C205  C206  A    
C28   C29   A    
C97   H4    S    
C220  H106  S    
C149  H47   S    
C253  H179  S    
C34   H151  S    
C43   C49   A    
C72   C73   A    
C24   C90   A    
C105  H10   S    
C139  C140  A    
C283  O7    A    
C260  H57   S    
C194  H84   S    
C30   C36   A    
C144  C145  A    
C156  C158  A    
C130  C131  A    
C25   C26   A    
C183  C188  A    
C32   C33   A    
C84   H192  S    
C262  C279  A    
O2    Zn4   S    
C195  H85   S    
C76   C273  S    
C148  C149  A    
C288  C296  A    
C54   H167  S    
C282  C295  A    
C12   C266  A    
C4    C245  A    
C160  H55   S    
C146  H134  S    
C143  C149  A    
C20   C21   A    
C74   H184  S    
C98   C99   A    
C89   C275  S    
C179  C294  A    
C186  C187  A    
C271  C289  A    
C239  O14   A    
C137  C142  A    
C147  C148  A    
C175  H69   S    
C247  H124  S    
C128  C129  A    
C97   C98   A    
C46   H125  S    
C167  C169  A    
C85   C86   A    
C22   H141  S    
C209  C215  A    
C21   H140  S    
C23   C29   A    
C204  H92   S    
C38   C39   A    
C78   C80   A    
C170  C171  A    
C263  C280  A    
C254  C271  A    
C184  C185  A    
C189  C191  A    
C9    C223  S    
C174  C175  A    
O11   Zn2   S    
C63   C69   A    
C135  C230  A    
C88   H196  S    
C107  C108  A    
C235  C302  A    
C89   C91   A    
C161  H56   S    
C154  H51   S    
C145  H43   S    
C66   C67   A    
C7    C234  S    
C250  O16   A    
C59   H171  S    
C9    C255  A    
C30   C238  S    
C267  H115  S    
C220  C221  A    
C245  H1    S    
C106  H11   S    
C209  C210  A    
C294  H119  S    
C57   H126  S    
C249  H146  S    
O14   Zn2   S    
C76   C82   A    
C39   C40   A    
N4    Zn4   S    
C13   C168  A    
C222  C225  A    
C217  C218  A    
C7    C251  A    
C117  C122  A    
C91   H197  S    
C4    C247  A    
C53   H166  S    
C15   C261  S    
C83   C84   A    
C236  N1    A    
C26   H143  S    
C17   C18   A    
C10   C112  S    
C274  C290  A    
C262  H68   S    
C200  C202  A    
C193  C194  A    
C150  C155  A    
C31   H148  S    
C96   C276  S    
C248  H135  S    
C155  H52   S    
C259  C277  A    
C5    C248  A    
C73   C74   A    
C2    C168  A    
C52   C53   A    
C157  C231  A    
C256  H13   S    
C17   C236  S    
C54   C55   A    
C40   C41   A    
C68   C135  A    
C38   H153  S    
C278  C292  A    
C203  C208  A    
C246  H112  S    
C216  C304  S    
C25   H142  S    
C230  C297  S    
C191  H81   S    
C231  C296  S    
C117  C118  A    
C281  C295  A    
C70   C271  S    
C63   C244  S    
C64   C65   A    
C56   C58   A    
C172  H65   S    
C259  H46   S    
C34   C36   A    
C61   C62   A    
C63   C64   A    
C199  C200  A    
C152  C153  A    
C267  C285  A    
C226  C227  A    
C225  H108  S    
C70   C75   A    
C92   H198  S    
C150  C151  A    
C132  H32   S    
C67   H178  S    
C116  H19   S    
C207  H95   S    
O7    Zn4   S    
C20   H139  S    
C87   C88   A    
C152  H49   S    
C127  H28   S    
C87   H195  S    
C40   H155  S    
C188  H80   S    
C86   H194  S    
C49   H163  S    
C161  C162  A    
C189  C300  S    
O3    Zn3   S    
C181  C182  A    
C120  C121  A    
C198  C199  A    
C265  H101  S    
C26   C27   A    
C165  C166  A    
C176  C298  S    
C209  C303  S    
C158  H53   S    
C164  C165  A    
C193  H83   S    
C48   H162  S    
C130  C281  S    
C15   C267  A    
C238  N1    A    
C30   C31   A    
C272  O8    A    
C14   C272  S    
C123  C125  A    
C264  H90   S    
C18   C19   A    
C169  H63   S    
C199  H88   S    
O13   Zn1   S    
C216  C221  A    
C200  H89   S    
C244  N4    A    
C109  C116  A    
C276  C291  A    
C190  C292  S    
C192  H82   S    
C280  C293  A    
C148  H45   S    
C286  C297  A    
C144  H42   S    
C70   C71   A    
C114  H17   S    
C270  H118  S    
C15   C270  A    
C5    C246  A    
C3    C302  A    
C14   C265  A    
C268  C286  A    
C62   H174  S    
C194  C195  A    
C1    O11   A    
C203  C302  S    
C104  H9    S    
C258  H35   S    
C183  C299  S    
C145  C147  A    
C265  C282  A    
C28   H145  S    
C170  C175  A    
C163  C287  S    
C124  H132  S    
C233  C298  A    
C207  C208  A    
C254  H190  S    
C84   C85   A    
C252  H168  S    
C219  C220  A    
C86   C87   A    
C37   C240  S    
C50   C242  S    
C58   C59   A    
C53   C54   A    
C191  C192  A    
C60   C61   A    
C298  C301  A    
C89   C95   A    
C299  C300  A    
C260  C278  A    
C202  H91   S    
C189  C195  A    
C159  C160  A    
C241  N3    A    
C98   H5    S    
C50   C51   A    
C182  H74   S    
C5    C232  S    
O5    Zn4   S    
C164  H59   S    
C129  H30   S    
C121  C122  A    
C48   C49   A    
C244  C253  A    
C19   H138  S    
C133  C134  A    
C205  H93   S    
C125  H26   S    
C273  C290  A    
N2    Zn2   S    
C127  C128  A    
C159  H54   S    
C133  H33   S    
C180  C181  A    
C239  O13   A    
C227  H110  S    
C101  H130  S    
C287  C297  A    
C6    C249  A    
C68   C201  A    
C123  C280  S    
C236  C245  A    
C170  C288  S    
C177  H70   S    
C178  C180  A    
C119  C120  A    
C142  H41   S    
C232  C301  A    
C157  H136  S    
C24   H122  S    
C105  C106  A    
C223  O15   A    
C17   C22   A    
C112  O9    A    
C11   C260  A    
C261  O3    A    
C90   H129  S    
C187  C188  A    
C109  C110  A    
C192  C193  A    
C57   C124  A    
C90   C212  A    
O15   Zn1   S    
C185  C186  A    
C180  H72   S    
C285  C296  A    
C92   C93   A    
C237  C246  A    
C219  H105  S    
C111  C114  A    
C250  O4    A    
C94   C95   A    
C163  C169  A    
C124  C231  A    
C138  C139  A    
C12   C283  S    
C71   C72   A    
C251  H157  S    
C177  C178  A    
C103  C104  A    
C240  C248  A    
C140  H39   S    
C263  H79   S    
C136  H36   S    
C35   C146  A    
C44   H159  S    
C115  C116  A    
C64   H175  S    
O10   Zn1   S    
C215  H102  S    
C120  H22   S    
C171  C172  A    
C93   C94   A    
C233  C300  A    
C4    C233  S    
C163  C164  A    
C1    C11   S    
C183  C184  A    
C156  C286  S    
C81   C82   A    
C111  H16   S    
C173  C174  A    
C43   C241  S    
C185  H76   S    
C108  H14   S    
C143  C284  S    
C255  C273  A    
C141  H40   S    
C113  H131  S    
C45   H160  S    
C3    C234  A    
C101  C294  A    
C23   C237  S    
C2    C113  A    
C27   H144  S    
C69   H180  S    
C2    H120  S    
C221  H107  S    
C218  H104  S    
C8    C257  A    
C118  C119  A    
C223  O12   A    
C255  H2    S    
C107  H12   S    
C303  C304  A    
C132  C133  A    
C10   C258  A    
C138  H37   S    
C103  C108  A    
C134  H34   S    
C18   H137  S    
C226  H109  S    
C77   C78   A    
C131  H31   S    
C206  H94   S    
C156  C162  A    
C123  C129  A    
C58   H170  S    
C197  C198  A    
C33   H150  S    
C46   C190  A    
C66   H177  S    
C77   H186  S    
C115  H18   S    
C257  H24   S    
C74   C75   A    
C65   H176  S    
C139  H38   S    
C47   C48   A    
N1    Zn1   S    
C78   H187  S    
C210  H97   S    
C216  C217  A    
C275  C289  A    
C39   H154  S    
N3    Zn3   S    
C32   H149  S    
C16   C250  S    
C214  C215  A    
C121  H23   S    
C134  C136  A    
C119  H21   S    
C46   C157  A    
C94   H200  S    
C167  H62   S    
C213  H99   S    
C67   C69   A    
C12   C263  A    
C214  H100  S    
C151  H48   S    
C113  C224  A    
C240  N2    A    
C268  H116  S    
C35   H123  S    
C80   H188  S    
C269  H117  S    
C99   C100  A    
C35   C201  A    
C96   C97   A    
C24   C179  A    
C100  C102  A    
C33   C34   A    
O9    Zn2   S    
C204  C205  A    
C228  H111  S    
C16   C268  A    
C72   H182  S    
C176  C177  A    
C211  C213  A    
C56   C243  S    
C210  C211  A    
C279  C291  A    
C60   H172  S    
C109  C278  S    
C166  C167  A    
C9    C256  A    
C103  C277  S    
C196  C202  A    
C178  H71   S    
C211  H98   S    
C217  H103  S    
C172  C173  A    
C165  H60   S    
C146  C230  A    
C8    C239  S    
C283  O6    A    
O12   Zn2   S    
C243  C252  A    
C225  C226  A    
C224  C293  S    
C51   H164  S    
C269  C287  A    
C31   C32   A    
C130  C136  A    
C270  C288  A    
C80   C81   A    
C99   H6    S    
C197  H86   S    
C266  H113  S    
C137  C138  A    
O1    Zn1   S    
C50   C55   A    
C6    C252  A    
C160  C161  A    
O8    Zn3   S    
C13   H121  S    
C242  N4    A    
C57   C190  A    
C117  C279  S    
C212  C295  S    
C141  C142  A    
C166  H61   S    
C272  O5    A    
C218  C219  A    
C125  C126  A    
C284  C293  A    
C8    C254  A    
C229  H114  S    
C68   H127  S    
C1    O1    A    
C179  C289  S    
C23   C25   A    
C243  N3    A    
C171  H64   S    
C228  C229  A    
C65   C66   A    
C27   C28   A    
C203  C204  A    
C208  H96   S    
C153  C154  A    
C29   H147  S    
C7    C253  A    
C131  C132  A    
