data_mof_unit_42896.cif
_audit_creation_date              2012-12-10T17:04:34-0500
_audit_creation_method            fapswitch 2.2
_symmetry_space_group_name_H-M    P1
_symmetry_Int_Tables_number       1
_space_group_crystal_system       triclinic
_cell_length_a                    14.977622
_cell_length_b                    10.472202
_cell_length_c                    10.193248
_cell_angle_alpha                 87.767048
_cell_angle_beta                  89.921358
_cell_angle_gamma                 94.602375
_cell_volume                      1592.41594781

loop_
_atom_site_label
_atom_site_type_symbol
_atom_type_description
_atom_site_fract_x
_atom_site_fract_y
_atom_site_fract_z
_atom_type_partial_charge
C1    C     C_R   0.485322 0.262688 0.503041 0.881694
C2    C     C_R   0.179709 0.385878 0.439387 0.102405
C3    C     C_R   0.231537 0.484777 0.501718 -0.078717
C4    C     C_R   0.327386 0.493750 0.500271 0.821134
C5    C     C_R   0.192770 0.578759 0.569025 -0.295729
C6    C     C_2   0.425006 0.925159 0.413885 0.200856
C7    C     C_2   0.488426 0.872353 0.486823 -0.386973
C8    C     C_2   0.432329 0.064819 0.405016 -0.179748
C9    C     C_2   0.443841 0.132051 0.514048 -0.058800
C10   C     C_2   0.545576 0.587847 0.920414 -0.038232
C11   C     C_2   0.545001 0.590810 0.071795 0.417796
C12   C     C_R   0.916327 0.599483 0.564979 -0.008705
C13   C     C_R   0.494830 0.737333 0.497121 1.006340
C14   C     C_R   0.673118 0.507014 0.499717 1.029493
C15   C     C_R   0.824178 0.613314 0.551334 0.382577
C16   C     C_R   0.769530 0.511010 0.499201 -0.186505
C17   C     C_R   0.806737 0.405954 0.447471 -0.302455
C18   C     C_R   0.898604 0.398941 0.447718 0.130813
C19   C     C_R   0.953760 0.494532 0.508012 0.013245
C20   C     C_3   0.410036 0.078984 0.649112 -0.385716
C21   C     C_3   0.328773 0.145563 0.693980 -0.857480
C22   C     C_3   0.603080 0.690466 0.844818 -0.120350
C23   C     C_R   0.935839 0.297340 0.388797 -0.160866
C24   C     C_3   0.560695 0.819875 0.832345 -0.707136
C25   C     C_3   0.224902 0.279771 0.373191 -0.411100
C26   C     C_3   0.229320 0.302623 0.224276 -0.816959
C27   C     C_3   0.349486 0.846227 0.347111 -0.324275
C28   C     C_3   0.276520 0.925843 0.290521 -0.873725
C29   C     C_R   0.028121 0.291766 0.385586 -0.210117
C30   C     C_R   0.085345 0.386917 0.443766 0.085062
C31   C     C_R   0.046834 0.487211 0.508207 0.050366
C32   C     C_R   0.101290 0.581860 0.571414 0.127564
C33   C     C_R   0.064042 0.680161 0.635129 -0.233547
C34   C     C_R   0.972651 0.689219 0.631893 -0.099221
H1    H     H_    0.538229 0.931431 0.539497 0.139855
H2    H     H_    0.947537 0.767242 0.683088 0.224460
H3    H     H_    0.682534 0.864869 0.475152 0.386873
H4    H     H_    0.345317 0.249765 0.703884 0.278773
H5    H     H_    0.273210 0.130706 0.622833 0.249312
H6    H     H_    0.305586 0.103924 0.791149 0.246125
H7    H     H_    0.388368 0.975250 0.650415 0.216535
H8    H     H_    0.464672 0.091389 0.722279 0.217588
H9    H     H_    0.489048 0.806066 0.804809 0.229942
H10   H     H_    0.562581 0.873178 0.923375 0.288785
H11   H     H_    0.597257 0.882297 0.756206 0.248187
H12   H     H_    0.445430 0.109308 0.308115 0.171175
H13   H     H_    0.671750 0.695669 0.882740 0.250564
H14   H     H_    0.617274 0.661379 0.746844 0.269949
H15   H     H_    0.696985 0.895979 0.101623 0.389905
H16   H     H_    0.161263 0.304506 0.181838 0.255210
H17   H     H_    0.267953 0.395147 0.198536 0.272233
H18   H     H_    0.263298 0.224473 0.179563 0.235955
H19   H     H_    0.293905 0.271608 0.409702 0.210085
H20   H     H_    0.189870 0.184859 0.399015 0.190356
H21   H     H_    0.246718 0.979175 0.369400 0.261678
H22   H     H_    0.304478 0.994019 0.211972 0.257917
H23   H     H_    0.459888 0.432292 0.901268 0.142617
H24   H     H_    0.222788 0.861345 0.247494 0.258877
H25   H     H_    0.376502 0.792065 0.266773 0.256702
H26   H     H_    0.317291 0.775901 0.420478 0.172948
H27   H     H_    0.470178 0.422767 0.104665 0.109452
H28   H     H_    0.763597 0.329756 0.405743 0.164499
H29   H     H_    0.893534 0.223053 0.342922 0.166474
H30   H     H_    0.053068 0.212498 0.336124 0.168103
H31   H     H_    0.234756 0.652520 0.616787 0.152269
H32   H     H_    0.105879 0.751777 0.685681 0.152700
N1    N     N_2   0.500970 0.501330 0.852150 -0.229960
N2    N     N_2   0.500990 0.501360 0.147810 -0.255914
O1    O     O_R   0.499990 0.319060 0.613040 -0.605376
O2    O     O_2   0.846147 0.867039 0.507886 -0.316587
O3    O     O_3   0.680736 0.778818 0.519434 -0.579898
O4    O     O_2   0.532562 0.824163 0.168946 -0.364365
O5    O     O_2   0.647643 0.701760 0.269497 -0.221298
O6    O     O_3   0.684665 0.814304 0.056567 -0.573328
O7    O     O_R   0.500010 0.319100 0.386900 -0.636033
O8    O     O_R   0.367830 0.499950 0.613080 -0.628282
O9    O     O_R   0.367860 0.499990 0.386940 -0.628984
O10   O     O_R   0.499990 0.680900 0.613100 -0.628569
O11   O     O_R   0.500010 0.680940 0.386960 -0.515587
O12   O     O_R   0.632140 0.500010 0.613060 -0.634351
O13   O     O_R   0.632170 0.500050 0.386920 -0.548741
O14   O     O_2   0.785006 0.791331 0.721309 -0.333828
S1    S     S_3+6 0.784012 0.766170 0.577342 -0.017410
S2    S     S_3+6 0.602106 0.732252 0.144051 0.023349
Zn1   Zn    Zn3+2 0.499980 0.499970 0.650990 0.935231
Zn2   Zn    Zn3+2 0.500020 0.500030 0.349010 1.010838

loop_
_geom_bond_atom_site_label_1
_geom_bond_atom_site_label_2
_ccdc_geom_bond_type
C22   H14   S    
C13   O11   A    
N2    Zn2   S    
C19   C31   A    
C20   H7    S    
C28   H22   S    
C10   N1    D    
C10   C22   S    
C29   C30   A    
C6    C8    S    
C24   H11   S    
C23   C29   A    
C22   C24   S    
C25   H19   S    
C27   H26   S    
C26   H16   S    
C30   C31   A    
C15   C16   A    
C18   C19   A    
O7    Zn2   S    
C21   H4    S    
C31   C32   A    
C8    C9    D    
C14   O12   A    
O5    S2    D    
O13   Zn2   S    
C5    C32   A    
C23   H29   S    
C22   H13   S    
C29   H30   S    
H23   N1    S    
C28   H21   S    
C33   H32   S    
C33   C34   A    
O3    S1    S    
N1    Zn1   S    
C18   C23   A    
C1    O7    A    
C1    C9    S    
C25   H20   S    
C5    H31   S    
C16   C17   A    
C15   S1    S    
C25   C26   S    
C1    O1    A    
O12   Zn1   S    
C26   H18   S    
C17   H28   S    
C9    C20   S    
C6    C27   S    
C21   H5    S    
C12   C15   A    
C17   C18   A    
O2    S1    D    
O4    S2    D    
O10   Zn1   S    
O9    Zn2   S    
H3    O3    S    
C24   H10   S    
C14   C16   S    
C12   C34   A    
C3    C4    S    
O1    Zn1   S    
C11   N2    D    
C13   O10   A    
C7    H1    S    
O6    S2    S    
C3    C5    A    
C20   H8    S    
C6    C7    D    
C28   H24   S    
C11   S2    S    
C2    C30   A    
C32   C33   A    
C2    C3    A    
C4    O9    A    
C27   H25   S    
C26   H17   S    
H27   N2    S    
C21   H6    S    
C12   C19   A    
C2    C25   S    
C34   H2    S    
C8    H12   S    
C4    O8    A    
C10   C11   S    
C7    C13   S    
C20   C21   S    
O14   S1    D    
C27   C28   S    
C24   H9    S    
H15   O6    S    
C14   O13   A    
O8    Zn1   S    
O11   Zn2   S    
