data_mof_unit_52130.cif
_audit_creation_date              2012-12-10T20:46:50-0500
_audit_creation_method            fapswitch 2.2
_symmetry_space_group_name_H-M    P1
_symmetry_Int_Tables_number       1
_space_group_crystal_system       triclinic
_cell_length_a                    12.893486
_cell_length_b                    8.93195
_cell_length_c                    8.115376
_cell_angle_alpha                 89.960259
_cell_angle_beta                  97.407183
_cell_angle_gamma                 90.046663
_cell_volume                      926.799245285

loop_
_atom_site_label
_atom_site_type_symbol
_atom_type_description
_atom_site_fract_x
_atom_site_fract_y
_atom_site_fract_z
_atom_type_partial_charge
C1    C     C_R   0.499975 0.218025 0.500028 0.956602
C2    C     C_R   0.863908 0.599457 0.667214 -0.186890
C3    C     C_R   0.131880 0.583733 0.555442 -0.082953
C4    C     C_R   0.868118 0.416242 0.444564 -0.082981
C5    C     C_R   0.025419 0.553728 0.556540 0.087176
C6    C     C_R   0.974579 0.446249 0.443463 0.087170
C7    C     C_1   0.499994 0.065200 0.500046 -0.142392
C8    C     C_1   0.500006 0.934800 0.499954 -0.142408
C9    C     C_2   0.812528 0.301463 0.332761 0.903493
C10   C     C_2   0.187471 0.698489 0.667272 0.903503
C11   C     C_R   0.500025 0.781975 0.499972 0.956571
C12   C     C_R   0.298029 0.503865 0.467369 0.900917
C13   C     C_R   0.701970 0.496132 0.532631 0.900964
C14   C     C_R   0.813719 0.497974 0.553682 -0.109529
C15   C     C_R   0.186280 0.502010 0.446320 -0.109548
C16   C     C_R   0.031345 0.371567 0.332117 -0.153317
C17   C     C_R   0.968656 0.628409 0.667892 -0.153311
C18   C     C_R   0.136093 0.400526 0.332790 -0.186882
H1    H     H_    0.820519 0.663116 0.749192 0.171585
H2    H     H_    0.179484 0.336869 0.250814 0.171592
H3    H     H_    0.996783 0.287294 0.246591 0.181658
H4    H     H_    0.003223 0.712675 0.753426 0.181614
H5    H     H_    0.766089 0.233008 0.098002 0.349571
H6    H     H_    0.233945 0.766853 0.902045 0.349562
N1    N     N_1   0.500020 0.500000 0.073640 -0.017231
N2    N     N_1   0.499980 0.500000 0.926360 -0.017227
O1    O     O_R   0.499990 0.285340 0.636850 -0.619510
O2    O     O_R   0.807358 0.316643 0.160375 -0.794200
O3    O     O_2   0.231474 0.803076 0.607925 -0.636126
O4    O     O_R   0.192679 0.683227 0.839647 -0.794171
O5    O     O_R   0.500010 0.714660 0.363150 -0.619514
O6    O     O_R   0.500010 0.285340 0.363150 -0.611157
O7    O     O_R   0.499990 0.714660 0.636850 -0.611164
O8    O     O_R   0.346350 0.500000 0.614250 -0.609000
O9    O     O_R   0.653650 0.500000 0.385750 -0.609018
O10   O     O_R   0.346360 0.500000 0.340500 -0.619111
O11   O     O_R   0.653640 0.500000 0.659500 -0.619115
O12   O     O_2   0.768487 0.196925 0.392140 -0.636126
Zn1   Zn    Zn3+2 0.499990 0.500000 0.682780 1.030455
Zn2   Zn    Zn3+2 0.500010 0.500000 0.317220 1.030448

loop_
_geom_bond_atom_site_label_1
_geom_bond_atom_site_label_2
_ccdc_geom_bond_type
C15   C18   A    
C16   H3    S    
C13   C14   S    
C12   O10   A    
C10   O4    S    
C13   O11   A    
C17   H4    S    
C12   C15   S    
O10   Zn2   S    
O9    Zn2   S    
C4    C9    S    
C11   O5    A    
C7    C8    T    
O11   Zn1   S    
C3    C10   S    
H5    O2    S    
C2    C17   A    
C10   O3    D    
O7    Zn1   S    
C8    C11   S    
C4    C6    A    
C9    O12   D    
N1    N2    T    
C13   O9    A    
C18   H2    S    
O6    Zn2   S    
N1    Zn2   S    
C4    C14   A    
C5    C6    A    
C2    C14   A    
H6    O4    S    
N2    Zn1   S    
C5    C17   A    
C12   O8    A    
O8    Zn1   S    
C11   O7    A    
C3    C15   A    
O5    Zn2   S    
C16   C18   A    
C1    O1    A    
C2    H1    S    
C1    C7    S    
C6    C16   A    
C1    O6    A    
C9    O2    S    
O1    Zn1   S    
C3    C5    A    
