data_mof_unit_19712.cif
_audit_creation_date              2012-12-11T14:03:30-0500
_audit_creation_method            fapswitch 2.2
_symmetry_space_group_name_H-M    P1
_symmetry_Int_Tables_number       1
_space_group_crystal_system       triclinic
_cell_length_a                    6.984166
_cell_length_b                    11.376903
_cell_length_c                    18.951909
_cell_angle_alpha                 90.000043
_cell_angle_beta                  93.200605
_cell_angle_gamma                 90.0
_cell_volume                      1503.5352637

loop_
_atom_site_label
_atom_site_type_symbol
_atom_type_description
_atom_site_fract_x
_atom_site_fract_y
_atom_site_fract_z
_atom_type_partial_charge
O1    O     O_R   0.330540 0.606360 0.598870 -0.536173
O2    O     O_R   0.669460 0.106360 0.401130 -0.536173
O3    O     O_R   0.026770 0.620470 0.750430 -0.553036
O4    O     O_R   0.973230 0.120470 0.249570 -0.553037
O5    O     O_R   0.856460 0.393640 0.750930 -0.547711
O6    O     O_R   0.143540 0.893640 0.249070 -0.547711
C1    C     C_R   0.199690 0.648406 0.773512 0.684436
C2    C     C_R   0.800310 0.148406 0.226488 0.684438
O7    O     O_R   0.000920 0.620350 0.599420 -0.546668
O8    O     O_R   0.999080 0.120350 0.400580 -0.546668
O9    O     O_R   0.830430 0.393520 0.598850 -0.535129
O10   O     O_R   0.169570 0.893520 0.401150 -0.535128
C3    C     C_R   0.166601 0.647833 0.574599 0.766490
C4    C     C_R   0.833399 0.147833 0.425401 0.766491
O11   O     O_R   0.356570 0.606480 0.750960 -0.547309
O12   O     O_R   0.643430 0.106480 0.249040 -0.547309
O13   O     O_3   0.176990 0.425580 0.674890 -0.372318
O14   O     O_3   0.823010 0.925580 0.325110 -0.372318
V1    V     V_3+5 0.902170 0.513810 0.674910 1.389688
V2    V     V_3+5 0.097830 0.013810 0.325090 1.389688
O15   O     O_R   0.500800 0.379530 0.599380 -0.546835
O16   O     O_R   0.499200 0.879530 0.400620 -0.546835
C5    C     C_R   0.666490 0.352069 0.574558 0.770117
C6    C     C_R   0.333510 0.852069 0.425442 0.770117
O17   O     O_R   0.526650 0.379650 0.750390 -0.546835
O18   O     O_R   0.473350 0.879650 0.249610 -0.546835
C7    C     C_R   0.698805 0.357429 0.776544 0.685225
C8    C     C_R   0.301195 0.857429 0.223456 0.685225
V3    V     V_3+5 0.402160 0.486190 0.674900 1.398710
V4    V     V_3+5 0.597840 0.986190 0.325100 1.398710
O19   O     O_3   0.677210 0.574420 0.674910 -0.380358
O20   O     O_3   0.322790 0.074420 0.325090 -0.380358
C9    C     C_R   0.772682 0.092160 0.886586 -0.179043
C10   C     C_R   0.227319 0.592160 0.113414 -0.179043
H1    H     H_    0.753062 0.132088 0.777164 0.114612
H2    H     H_    0.246938 0.632088 0.222835 0.114612
H3    H     H_    0.811717 0.958704 0.997662 0.137371
H4    H     H_    0.188283 0.458704 0.002337 0.137371
H5    H     H_    0.798526 0.999938 0.876019 0.133034
H6    H     H_    0.201474 0.499938 0.123980 0.133035
C11   C     C_R   0.718117 0.286805 0.840776 -0.019252
C12   C     C_R   0.281883 0.786805 0.159224 -0.019252
C13   C     C_R   0.733388 0.349373 0.189995 -0.174524
C14   C     C_R   0.266611 0.849373 0.810005 -0.174524
C15   C     C_R   0.661977 0.428133 0.139831 -0.120215
C16   C     C_R   0.338022 0.928134 0.860169 -0.120214
C17   C     C_R   0.642172 0.395156 0.069179 -0.203283
C18   C     C_R   0.357827 0.895157 0.930821 -0.203279
C19   C     C_R   0.714310 0.286766 0.044390 0.054420
C20   C     C_R   0.285690 0.786766 0.955610 0.054417
C21   C     C_R   0.762295 0.201730 0.097923 0.073604
C22   C     C_R   0.237705 0.701731 0.902077 0.073603
C23   C     C_R   0.726296 0.254599 0.970347 0.033609
C24   C     C_R   0.273705 0.754599 0.029653 0.033607
C25   C     C_R   0.762853 0.133302 0.955535 0.126188
C26   C     C_R   0.237148 0.633302 0.044465 0.126189
C27   C     C_R   0.788779 0.050824 0.009445 -0.233992
C28   C     C_R   0.211221 0.550824 0.990555 -0.233993
C29   C     C_R   0.786440 0.084011 0.079115 -0.219242
C30   C     C_R   0.213560 0.584012 0.920885 -0.219246
C31   C     C_R   0.714140 0.335135 0.910631 0.018232
C32   C     C_R   0.285861 0.835135 0.089369 0.018232
C33   C     C_R   0.747368 0.167435 0.830159 -0.221858
C34   C     C_R   0.252632 0.667435 0.169840 -0.221857
C35   C     C_R   0.775281 0.234878 0.170113 -0.070080
C36   C     C_R   0.224719 0.734878 0.829886 -0.070075
H7    H     H_    0.740408 0.374671 0.245224 0.102757
H8    H     H_    0.259591 0.874672 0.754776 0.102755
H9    H     H_    0.557106 0.454236 0.037426 0.135423
H10   H     H_    0.442892 0.954238 0.962574 0.135422
H11   H     H_    0.612735 0.513577 0.156215 0.138260
H12   H     H_    0.387264 0.013578 0.843785 0.138259
H13   H     H_    0.800940 0.015114 0.118372 0.120677
H14   H     H_    0.199060 0.515115 0.881628 0.120678
C37   C     C_2   0.831500 0.233605 0.484718 -0.347262
C38   C     C_2   0.168500 0.733605 0.515282 -0.347262
H15   H     H_    0.968274 0.270271 0.503919 0.151334
H16   H     H_    0.031726 0.770271 0.496081 0.151334
C39   C     C_2   0.668400 0.266313 0.515231 -0.348101
C40   C     C_2   0.331600 0.766314 0.484769 -0.348101
H17   H     H_    0.531626 0.229652 0.496025 0.151227
H18   H     H_    0.468374 0.729652 0.503975 0.151227
C41   C     C_3   0.698550 0.468210 0.923015 -0.463213
C42   C     C_3   0.754272 0.557795 0.867888 -0.277314
C43   C     C_3   0.764476 0.682395 0.898284 -0.756111
H19   H     H_    0.622329 0.709581 0.914584 0.239375
H20   H     H_    0.865344 0.687683 0.945422 0.236809
H21   H     H_    0.810612 0.744915 0.857599 0.223348
H22   H     H_    0.894211 0.532931 0.849607 0.218813
H23   H     H_    0.646926 0.560291 0.823084 0.224504
H24   H     H_    0.547027 0.486688 0.931205 0.199680
H25   H     H_    0.795695 0.489431 0.969528 0.217916
C44   C     C_3   0.301451 0.968210 0.076985 -0.463212
C45   C     C_3   0.245727 0.057795 0.132112 -0.277312
C46   C     C_3   0.235523 0.182395 0.101717 -0.756116
H26   H     H_    0.377672 0.209586 0.085423 0.239376
H27   H     H_    0.134667 0.187682 0.054576 0.236809
H28   H     H_    0.189373 0.244913 0.142400 0.223349
H29   H     H_    0.105788 0.032930 0.150393 0.218812
H30   H     H_    0.353072 0.060291 0.176917 0.224504
H31   H     H_    0.452973 0.986688 0.068796 0.199681
H32   H     H_    0.204305 0.989431 0.030472 0.217915

loop_
_geom_bond_atom_site_label_1
_geom_bond_atom_site_label_2
_ccdc_geom_bond_type
C9    C25   A    
C10   C26   A    
C44   C45   S    
C15   H11   S    
O13   V3    S    
C14   C36   A    
C46   H26   S    
C11   C31   A    
O4    C2    A    
V1    O19   S    
C46   H28   S    
C17   C19   A    
C43   H19   S    
C41   H25   S    
O9    V1    S    
C9    H5    S    
C37   C39   D    
C10   H6    S    
C38   H16   S    
O3    C1    A    
C27   C29   A    
O12   V4    S    
C21   C35   A    
C15   C17   A    
C30   H14   S    
O7    C3    A    
C17   H9    S    
C22   C30   A    
O5    C7    A    
C23   C31   A    
C6    C40   S    
O6    C8    A    
C14   C16   A    
C19   C21   A    
C20   C22   A    
O3    V1    S    
O14   V4    S    
C12   C32   A    
C16   H12   S    
C9    C33   A    
C43   H20   S    
C2    C35   S    
C2    O12   A    
H4    C28   S    
C8    C12   S    
C42   H23   S    
C10   C34   A    
O7    V1    S    
O11   V3    S    
C16   C18   A    
C23   C25   A    
O17   V3    S    
C24   C26   A    
C42   C43   S    
C40   H18   S    
O8    C4    A    
C44   H31   S    
C39   H17   S    
C1    O11   A    
C24   C32   A    
O15   V3    S    
C13   C15   A    
C7    C11   S    
C41   C42   S    
C3    C38   S    
C45   H30   S    
C13   C35   A    
O10   V2    S    
O1    V3    S    
C20   C24   A    
C18   C20   A    
C37   H15   S    
O18   V4    S    
C25   C27   A    
C31   C41   S    
O16   C6    A    
C14   H8    S    
O1    C3    A    
C42   H22   S    
C11   C33   A    
C41   H24   S    
C12   C34   A    
C22   C36   A    
V2    O20   S    
C43   H21   S    
C29   H13   S    
O16   V4    S    
C38   C40   D    
C18   H10   S    
C44   H32   S    
C46   H27   S    
O5    V1    S    
O17   C7    A    
O6    V2    S    
O10   C6    A    
O18   C8    A    
O2    V4    S    
C4    C37   S    
O15   C5    A    
V3    O19   S    
C1    C36   S    
V4    O20   S    
O8    V2    S    
C45   H29   S    
C19   C23   A    
O9    C5    A    
O13   V1    S    
C26   C28   A    
O14   V2    S    
C45   C46   S    
O2    C4    A    
O4    V2    S    
C21   C29   A    
C13   H7    S    
C32   C44   S    
H1    C33   S    
C5    C39   S    
H2    C34   S    
C28   C30   A    
H3    C27   S    
