data_mof_unit_46885.cif
_audit_creation_date              2012-12-10T20:39:59-0500
_audit_creation_method            fapswitch 2.2
_symmetry_space_group_name_H-M    P1
_symmetry_Int_Tables_number       1
_space_group_crystal_system       triclinic
_cell_length_a                    23.440306
_cell_length_b                    10.683942
_cell_length_c                    9.858453
_cell_angle_alpha                 89.001503
_cell_angle_beta                  90.104012
_cell_angle_gamma                 90.393267
_cell_volume                      2468.46379866

loop_
_atom_site_label
_atom_site_type_symbol
_atom_type_description
_atom_site_fract_x
_atom_site_fract_y
_atom_site_fract_z
_atom_type_partial_charge
C1    C     C_R   0.502219 0.259641 0.500622 0.889031
C2    C     C_R   0.970504 0.260364 0.477943 0.366376
C3    C     C_R   0.030542 0.260861 0.481131 0.362783
C4    C     C_R   0.061082 0.374905 0.498474 -0.174030
C5    C     C_R   0.030512 0.487326 0.515330 -0.067131
C6    C     C_R   0.059992 0.601901 0.533478 0.002029
C7    C     C_R   0.029814 0.712786 0.553310 -0.112795
C8    C     C_R   0.970782 0.711325 0.555086 -0.104756
C9    C     C_R   0.121298 0.382109 0.500184 0.562584
C10   C     C_R   0.119344 0.603301 0.531322 0.514948
C11   C     C_R   0.237259 0.551002 0.398577 -0.114635
C12   C     C_R   0.389454 0.499917 0.500263 0.862076
C13   C     C_R   0.296526 0.550939 0.394005 -0.197380
C14   C     C_R   0.327510 0.499579 0.502792 -0.028434
C15   C     C_R   0.298974 0.449731 0.616683 -0.225239
C16   C     C_R   0.239879 0.449236 0.620706 -0.095106
C17   C     C_R   0.209046 0.499130 0.511407 0.294468
C18   C     C_R   0.760491 0.415868 0.595688 -0.109658
C19   C     C_R   0.701281 0.416313 0.593125 0.325330
C20   C     C_R   0.672561 0.496959 0.501374 -0.248148
C21   C     C_R   0.703980 0.575250 0.411844 0.322417
C22   C     C_R   0.763186 0.570980 0.413336 -0.096165
C23   C     C_R   0.502590 0.739970 0.498880 0.892458
C24   C     C_R   0.791476 0.492308 0.505643 0.136389
C25   C     C_R   0.522131 0.060823 0.619407 0.216062
C26   C     C_R   0.512864 0.128229 0.499303 -0.118471
C27   C     C_R   0.516704 0.066793 0.374579 -0.214584
C28   C     C_R   0.517041 0.937400 0.373226 -0.173748
C29   C     C_R   0.513738 0.870864 0.496641 -0.111198
C30   C     C_R   0.522476 0.932927 0.617850 0.160448
C31   C     C_3   0.491904 0.920153 0.749985 -0.481887
C32   C     C_3   0.491369 0.061560 0.751827 -0.515634
C33   C     C_R   0.453468 0.456527 0.072304 0.164146
C34   C     C_R   0.610520 0.499738 0.500196 0.996767
C35   C     C_R   0.543236 0.554107 0.071019 -0.099598
C36   C     C_R   0.543213 0.554271 0.927098 -0.082705
C37   C     C_R   0.453826 0.455830 0.929149 0.179172
C38   C     C_3   0.431706 0.325425 0.925246 -0.548688
C39   C     C_3   0.430554 0.325685 0.079362 -0.224949
C40   C     C_R   0.881406 0.598004 0.535310 0.539475
C41   C     C_R   0.879853 0.380290 0.484059 0.602308
C42   C     C_R   0.939966 0.373816 0.491897 -0.192804
C43   C     C_R   0.970401 0.486399 0.514098 -0.067615
C44   C     C_R   0.940765 0.599303 0.534924 -0.004368
H1    H     H_    0.787467 0.630211 0.343962 0.202927
H2    H     H_    0.514835 0.117115 0.278442 0.171042
H3    H     H_    0.515057 0.890769 0.276601 0.180902
H4    H     H_    0.448605 0.877998 0.739993 0.210705
H5    H     H_    0.519156 0.877622 0.830645 0.220005
H6    H     H_    0.447624 0.100475 0.742480 0.200534
H7    H     H_    0.518664 0.099411 0.833988 0.228833
H8    H     H_    0.578615 0.595897 0.124467 0.208668
H9    H     H_    0.578598 0.596217 0.872199 0.173163
H10   H     H_    0.389648 0.318412 0.873809 0.193966
H11   H     H_    0.464495 0.262707 0.885867 0.213749
H12   H     H_    0.461978 0.259572 0.124883 0.162639
H13   H     H_    0.051692 0.801213 0.567853 0.229915
H14   H     H_    0.948772 0.798699 0.570912 0.231574
H15   H     H_    0.213190 0.589565 0.314012 0.144336
H16   H     H_    0.318063 0.591016 0.306183 0.158375
H17   H     H_    0.322299 0.409941 0.701775 0.148644
H18   H     H_    0.217929 0.409586 0.708143 0.146386
H19   H     H_    0.782689 0.355063 0.666955 0.201736
N1    N     N_R   0.852407 0.490189 0.508424 -0.348364
N2    N     N_R   0.148335 0.494868 0.514047 -0.365774
N3    N     N_R   0.499610 0.499140 0.142800 -0.125027
N4    N     N_R   0.499610 0.499180 0.857150 -0.105352
O1    O     O_R   0.500010 0.316790 0.614690 -0.600792
O2    O     O_2   0.848553 0.279425 0.449616 -0.450025
O3    O     O_2   0.153222 0.278627 0.487885 -0.512263
O4    O     O_2   0.148171 0.711949 0.547302 -0.528481
O5    O     O_R   0.500000 0.316760 0.385350 -0.635071
O6    O     O_R   0.416160 0.499980 0.614700 -0.624613
O7    O     O_R   0.416150 0.499940 0.385360 -0.619234
O8    O     O_R   0.500000 0.683240 0.614650 -0.627435
O9    O     O_R   0.499990 0.683210 0.385310 -0.617103
O10   O     O_R   0.583850 0.500060 0.614640 -0.586369
O11   O     O_R   0.583840 0.500020 0.385300 -0.586209
O12   O     O_2   0.852636 0.703677 0.562761 -0.505702
Zn1   Zn    Zn3+2 0.500000 0.500020 0.653130 0.982008
Zn2   Zn    Zn3+2 0.500000 0.499980 0.346870 0.978509
Cl1   Cl    Cl    0.935490 0.113255 0.462112 -0.425932
Cl2   Cl    Cl    0.665082 0.310297 0.702595 -0.554886
Cl3   Cl    Cl    0.671300 0.685200 0.301828 -0.583845
Cl4   Cl    Cl    0.065366 0.114941 0.462280 -0.460544
C45   C     C_R   0.371288 0.313741 0.139514 0.213665
C46   C     C_R   0.361229 0.224813 0.243643 -0.159929
C47   C     C_R   0.306086 0.204971 0.293701 -0.126217
C48   C     C_R   0.260448 0.272794 0.239495 -0.050320
C49   C     C_R   0.270012 0.363046 0.137804 -0.170353
C50   C     C_R   0.325185 0.384876 0.089118 -0.164427
H20   H     H_    0.395902 0.169432 0.284859 0.122166
H21   H     H_    0.298627 0.135800 0.373329 0.159170
H22   H     H_    0.217676 0.255815 0.276420 0.198638
H23   H     H_    0.234659 0.416455 0.096993 0.145335
H24   H     H_    0.331625 0.455277 0.010223 0.127134

loop_
_geom_bond_atom_site_label_1
_geom_bond_atom_site_label_2
_ccdc_geom_bond_type
O1    Zn1   S    
C46   C47   A    
C28   H3    S    
C12   O7    A    
C3    Cl4   S    
C41   C42   A    
C19   C20   A    
C23   O9    A    
C36   N4    A    
C7    C8    A    
C13   H16   S    
C26   C27   A    
C29   C30   A    
C18   C24   A    
C5    C6    A    
C23   C29   S    
C21   C22   A    
C28   C29   A    
C45   C50   A    
C34   O10   A    
C30   C31   S    
C19   Cl2   S    
C18   H19   S    
C10   N2    A    
C15   C16   A    
C1    O1    A    
C18   C19   A    
C48   H22   S    
C36   H9    S    
C8    H14   S    
C50   H24   S    
C38   H11   S    
C31   C32   S    
C16   C17   A    
O8    Zn1   S    
O5    Zn2   S    
C20   C34   S    
C10   O4    S    
C25   C32   S    
C5    C43   A    
C24   N1    S    
C13   C14   A    
C16   H18   S    
C31   H5    S    
C11   H15   S    
C12   O6    A    
C33   N3    A    
C1    O5    A    
C49   H23   S    
C9    O3    S    
C45   C46   A    
C35   N3    A    
C25   C26   A    
C33   C37   A    
C35   C36   A    
C43   C44   A    
C32   H7    S    
C37   C38   S    
C39   H12   S    
C38   H10   S    
C21   Cl3   S    
C15   H17   S    
C40   O12   S    
C33   C39   S    
C20   C21   A    
C32   H6    S    
C27   H2    S    
C12   C14   S    
C31   H4    S    
C1    C26   S    
C22   C24   A    
C2    Cl1   S    
C42   C43   A    
O7    Zn2   S    
C3    C4    A    
C35   H8    S    
C41   O2    S    
O10   Zn1   S    
C25   C30   A    
C47   H21   S    
C11   C17   A    
N4    Zn1   S    
C8    C44   A    
C23   O8    A    
C4    C5    A    
O9    Zn2   S    
C6    C10   A    
C6    C7    A    
C17   N2    S    
C40   N1    A    
C39   C45   S    
C2    C3    A    
C4    C9    A    
C34   O11   A    
N3    Zn2   S    
C11   C13   A    
O11   Zn2   S    
C49   C50   A    
C38   C39   S    
C2    C42   A    
C37   N4    A    
O6    Zn1   S    
C9    N2    A    
C40   C44   A    
C22   H1    S    
C47   C48   A    
C27   C28   A    
C14   C15   A    
C41   N1    A    
C48   C49   A    
C46   H20   S    
C7    H13   S    
