data_mof_unit_14937.cif
_audit_creation_date              2013-03-05T15:46:07-0500
_audit_creation_method            fapswitch 2.2
_symmetry_space_group_name_H-M    P1
_symmetry_Int_Tables_number       1
_space_group_crystal_system       triclinic
_cell_length_a                    13.881506
_cell_length_b                    10.945586
_cell_length_c                    9.936911
_cell_angle_alpha                 109.728443
_cell_angle_beta                  94.319064
_cell_angle_gamma                 93.297428
_cell_volume                      1411.62455281

loop_
_atom_site_label
_atom_site_type_symbol
_atom_site_description
_atom_site_fract_x
_atom_site_fract_y
_atom_site_fract_z
_atom_type_partial_charge
O1    O     O_R   0.508810 0.332170 0.576290 -0.519124
O2    O     O_R   0.491190 0.667830 0.423710 -0.543844
O3    O     O_R   0.480920 0.295870 0.335040 -0.573997
O4    O     O_R   0.519080 0.704130 0.664960 -0.581571
C1    C     C_R   0.494050 0.254312 0.443748 0.819715
C2    C     C_R   0.513088 0.744263 0.555702 0.868774
O5    O     O_R   0.378070 0.520740 0.637680 -0.539674
O6    O     O_R   0.621930 0.479260 0.362320 -0.527434
O7    O     O_R   0.350180 0.484440 0.396440 -0.589272
O8    O     O_R   0.649820 0.515560 0.603560 -0.580033
C3    C     C_R   0.319920 0.501592 0.521925 0.870763
C4    C     C_R   0.679834 0.495247 0.477666 0.874719
Cu1   Cu    Cu3+1 0.516510 0.521490 0.642840 1.065381
Cu2   Cu    Cu3+1 0.483490 0.478510 0.357160 1.060246
N1    N     N_2   0.458660 0.446210 0.142550 -0.269212
N2    N     N_2   0.541340 0.553790 0.857450 -0.278960
C5    C     C_1   0.779845 0.478370 0.464590 -0.051795
C6    C     C_1   0.218188 0.497391 0.533037 -0.095545
C7    C     C_2   0.963977 0.434102 0.445191 -0.024499
C8    C     C_2   0.030470 0.491885 0.560230 -0.028069
C9    C     C_2   0.519791 0.495611 0.075295 0.326259
C10   C     C_2   0.502128 0.475284 0.917291 0.312669
C11   C     C_1   0.132670 0.493663 0.543976 -0.036285
C12   C     C_1   0.863699 0.459489 0.455984 -0.012526
C13   C     C_2   0.485842 0.114872 0.424030 0.073334
C14   C     C_2   0.552261 0.874701 0.573922 0.101019
C15   C     C_2   0.532889 0.078204 0.528007 0.248467
C16   C     C_2   0.492571 0.965041 0.562618 0.201600
C17   C     C_R   0.585852 0.679706 0.939922 0.223893
C18   C     C_R   0.685857 0.706597 0.939830 -0.021498
C19   C     C_R   0.729167 0.833781 0.004799 -0.103074
C20   C     C_R   0.672314 0.935516 0.066274 -0.058571
C21   C     C_R   0.572178 0.910071 0.062557 -0.052088
C22   C     C_R   0.528860 0.782433 0.000208 -0.091411
H1    H     H_    0.729749 0.628960 0.888099 0.158161
H2    H     H_    0.806408 0.853983 0.004998 0.149190
H3    H     H_    0.705576 0.034324 0.114562 0.158559
H4    H     H_    0.528126 0.989848 0.105441 0.179766
H5    H     H_    0.450927 0.763918 0.994283 0.151093
C23   C     C_R   0.358873 0.423561 0.088769 0.236759
C24   C     C_R   0.312355 0.297549 0.046610 -0.005520
C25   C     C_R   0.216473 0.272729 0.984081 -0.095776
C26   C     C_R   0.165302 0.374522 0.968900 -0.087102
C27   C     C_R   0.209889 0.501533 0.017006 -0.110129
C28   C     C_R   0.306410 0.526351 0.077073 -0.165080
H6    H     H_    0.351738 0.217995 0.056608 0.180311
H7    H     H_    0.182569 0.174139 0.945495 0.150562
H8    H     H_    0.091329 0.355052 0.919371 0.140175
H9    H     H_    0.170151 0.580357 0.005967 0.162465
H10   H     H_    0.340992 0.624667 0.112056 0.159454
C29   C     C_R   0.002439 0.557877 0.707319 0.128928
C30   C     C_R   0.042343 0.684681 0.789150 -0.115373
C31   C     C_R   0.020382 0.743042 0.930522 -0.148616
C32   C     C_R   0.959501 0.675012 0.991896 -0.130785
C33   C     C_R   0.920070 0.548645 0.911779 -0.156649
C34   C     C_R   0.941303 0.490148 0.770177 -0.149859
H11   H     H_    0.090521 0.738138 0.743657 0.154481
H12   H     H_    0.051307 0.840568 0.992902 0.138616
H13   H     H_    0.942979 0.720134 0.101567 0.161214
H14   H     H_    0.873185 0.495815 0.959445 0.175656
H15   H     H_    0.911564 0.391201 0.710459 0.164701
C35   C     C_R   0.987478 0.339672 0.306271 0.117380
C36   C     C_R   0.045521 0.237907 0.304533 -0.100191
C37   C     C_R   0.055618 0.138429 0.175387 -0.126739
C38   C     C_R   0.006801 0.138132 0.047084 -0.149749
C39   C     C_R   0.949947 0.239257 0.047026 -0.124187
C40   C     C_R   0.940463 0.339710 0.175618 -0.129034
H16   H     H_    0.079950 0.232414 0.403527 0.152034
H17   H     H_    0.100017 0.060341 0.175340 0.162136
H18   H     H_    0.013645 0.060067 0.947467 0.144883
H19   H     H_    0.912666 0.239416 0.947403 0.164722
H20   H     H_    0.894530 0.415920 0.173753 0.161848
N3    N     N_R   0.390587 0.956558 0.586606 0.141375
O9    O     O_R   0.352640 0.864834 0.627377 -0.394204
O10   O     O_R   0.338384 0.051910 0.587806 -0.277979
N4    N     N_R   0.619665 0.153604 0.612799 0.153554
O11   O     O_R   0.643331 0.152409 0.741581 -0.287821
O12   O     O_R   0.681588 0.209015 0.554422 -0.382385
N5    N     N_R   0.654885 0.888730 0.562283 0.140381
O13   O     O_R   0.714615 0.848483 0.642299 -0.355826
O14   O     O_R   0.686245 0.913109 0.452951 -0.291526
N6    N     N_R   0.413017 0.028635 0.317204 0.113853
O15   O     O_R   0.347122 0.076031 0.253635 -0.373974
O16   O     O_R   0.414988 0.902727 0.277264 -0.384963
N7    N     N_R   0.450461 0.353954 0.828450 0.139874
O17   O     O_R   0.474931 0.246711 0.845243 -0.338155
O18   O     O_R   0.365281 0.353297 0.764197 -0.339764
N8    N     N_R   0.613961 0.551338 0.144542 0.126888
O19   O     O_R   0.690303 0.495541 0.094351 -0.397163
O20   O     O_R   0.624543 0.668837 0.237901 -0.318827

loop_
_geom_bond_atom_site_label_1
_geom_bond_atom_site_label_2
_geom_bond_distance
_ccdc_geom_bond_type
C27   H9    1.081773 S    
C33   C34   1.397376 A    
C3    C6    1.424101 S    
C24   C25   1.396876 A    
C7    C8    1.358144 D    
O7    Cu2   1.920048 S    
C31   C32   1.397308 A    
C27   C28   1.397667 A    
O5    C3    1.302501 A    
C35   C36   1.408032 A    
C35   C40   1.408632 A    
O1    C1    1.297840 A    
N4    O12   1.302269 A    
C40   H20   1.082860 S    
C8    C29   1.488186 S    
C19   H2    1.081971 S    
C18   C19   1.398103 A    
C7    C35   1.491206 S    
C38   H18   1.082343 S    
C29   C34   1.407139 A    
N3    O9    1.302111 A    
C10   N7    1.435606 S    
O4    Cu1   1.933897 S    
C36   H16   1.082637 S    
C22   H5    1.082590 S    
C19   C20   1.396594 A    
C4    C5    1.420874 S    
O6    Cu2   1.918046 S    
C24   H6    1.082582 S    
C26   H8    1.081644 S    
C33   H14   1.081835 S    
C39   C40   1.397327 A    
C9    N8    1.429618 S    
Cu1   Cu2   2.714343 S    
N3    O10   1.301715 A    
O2    C2    1.297107 A    
C16   N3    1.456110 S    
C32   H13   1.082347 S    
N7    O18   1.299244 A    
C23   C28   1.406958 A    
C5    C12   1.198197 T    
C20   H3    1.082558 S    
C29   C30   1.405770 A    
N4    O11   1.301608 A    
O4    C2    1.300449 A    
N5    O14   1.301771 A    
N2    C17   1.419903 S    
N7    O17   1.300274 A    
C17   C22   1.402858 A    
C6    C11   1.199824 T    
C26   C27   1.397169 A    
C17   C18   1.402561 A    
C39   H19   1.082546 S    
C8    C11   1.439655 S    
O5    Cu1   1.918045 S    
O6    C4    1.303870 A    
C21   C22   1.400049 A    
C37   H17   1.082018 S    
O7    C3    1.302475 A    
O3    Cu2   1.933895 S    
O8    C4    1.299769 A    
C1    C13   1.468175 S    
C18   H1    1.081398 S    
C23   C24   1.400568 A    
N8    O20   1.299422 A    
C38   C39   1.396025 A    
N6    O16   1.301625 A    
C13   N6    1.446338 S    
N5    O13   1.301127 A    
O1    Cu1   1.944618 S    
C25   C26   1.398961 A    
C15   N4    1.450991 S    
C30   C31   1.398391 A    
C32   C33   1.396569 A    
N2    C10   1.314592 D    
C34   H15   1.083184 S    
C14   N5    1.441530 S    
O3    C1    1.310966 A    
O8    Cu1   1.920049 S    
C31   H12   1.080971 S    
C13   C15   1.365141 D    
C14   C16   1.353581 D    
C21   H4    1.080501 S    
C20   C21   1.397114 A    
C7    C12   1.439890 S    
C37   C38   1.396964 A    
C2    C14   1.445060 S    
C28   H10   1.082686 S    
C25   H7    1.080785 S    
O2    Cu2   1.944619 S    
N1    C23   1.423149 S    
C30   H11   1.083098 S    
C36   C37   1.397645 A    
N1    C9    1.317472 D    
N8    O19   1.301234 A    
N6    O15   1.301408 A    
Cu1   N2    2.039085 S    
C15   C16   1.484104 S    
Cu2   N1    2.039084 S    
C9    C10   1.508194 S    
