data_mof_unit_50324.cif
_audit_creation_date              2013-03-05T15:41:43-0500
_audit_creation_method            fapswitch 2.2
_symmetry_space_group_name_H-M    P1
_symmetry_Int_Tables_number       1
_space_group_crystal_system       triclinic
_cell_length_a                    6.945165
_cell_length_b                    13.5773
_cell_length_c                    20.454749
_cell_angle_alpha                 102.254582
_cell_angle_beta                  89.897272
_cell_angle_gamma                 90.697737
_cell_volume                      1884.72300246

loop_
_atom_site_label
_atom_site_type_symbol
_atom_site_description
_atom_site_fract_x
_atom_site_fract_y
_atom_site_fract_z
_atom_type_partial_charge
O1    O     O_R   0.506860 0.599390 0.449240 -0.565113
O2    O     O_R   0.180220 0.594600 0.586780 -0.554357
O3    O     O_R   0.004500 0.400610 0.550760 -0.546860
C1    C     C_R   0.349019 0.616190 0.613414 0.868511
O4    O     O_R   0.177490 0.611290 0.451970 -0.570383
O5    O     O_R   0.001750 0.417420 0.414990 -0.567165
C2    C     C_R   0.347093 0.637803 0.434993 0.811253
O6    O     O_R   0.509610 0.582580 0.585010 -0.537496
O7    O     O_3   0.337420 0.436370 0.488020 -0.282729
V1    V     V_3+5 0.064680 0.511800 0.502220 1.160316
O8    O     O_R   0.671710 0.405400 0.413220 -0.571646
C3    C     C_R   0.839786 0.384106 0.386516 0.823470
O9    O     O_R   0.674440 0.388710 0.548030 -0.548796
C4    C     C_R   0.842437 0.361712 0.564525 0.926386
V2    V     V_3+5 0.564010 0.488200 0.497780 1.166815
O10   O     O_3   0.841140 0.563630 0.511980 -0.275406
C5    C     C_R   0.844561 0.111620 0.614271 0.426294
H1    H     H_    0.863259 0.162441 0.522077 0.082441
H2    H     H_    0.797343 0.987648 0.699013 0.105808
C6    C     C_R   0.848339 0.287199 0.606677 -0.200388
C7    C     C_R   0.910142 0.315717 0.929192 -0.130457
C8    C     C_R   0.940447 0.389906 0.892842 -0.076511
C9    C     C_R   0.924565 0.366831 0.823408 -0.003630
C10   C     C_R   0.865838 0.269595 0.788482 0.079789
C11   C     C_R   0.845084 0.192683 0.825859 0.019475
C12   C     C_R   0.843959 0.244288 0.717176 -0.070666
C13   C     C_R   0.834335 0.140505 0.684668 -0.023299
C14   C     C_R   0.813454 0.066608 0.722720 -0.079705
C15   C     C_R   0.813656 0.092424 0.791967 -0.112971
C16   C     C_R   0.830546 0.317595 0.676738 0.294092
C17   C     C_R   0.856780 0.185221 0.576130 -0.209241
C18   C     C_R   0.866719 0.216880 0.896338 -0.096359
H3    H     H_    0.928189 0.334502 0.983041 0.075152
H4    H     H_    0.968953 0.425207 0.798099 0.133888
H5    H     H_    0.982761 0.465203 0.918458 0.082763
H6    H     H_    0.797032 0.031989 0.818640 0.073062
C19   C     C_2   0.005407 0.289340 0.284830 -0.092533
C20   C     C_2   0.842230 0.315744 0.319705 -0.208712
H7    H     H_    0.142532 0.318326 0.306704 0.097929
H8    H     H_    0.703625 0.287239 0.299503 0.068672
C21   C     C_2   0.013775 0.221218 0.217200 -0.088215
C22   C     C_2   0.858579 0.183596 0.180270 -0.208637
H9    H     H_    0.156641 0.202179 0.197118 0.096921
H10   H     H_    0.714416 0.201942 0.198720 0.069138
C23   C     C_2   0.204852 0.791986 0.781982 -0.092996
C24   C     C_2   0.363656 0.815848 0.819825 -0.206249
H11   H     H_    0.067492 0.823004 0.801190 0.098149
H12   H     H_    0.501914 0.785352 0.801894 0.084152
C25   C     C_2   0.203017 0.723704 0.714365 -0.075818
C26   C     C_2   0.360985 0.684524 0.680140 -0.178742
H13   H     H_    0.061925 0.705846 0.691844 0.125049
H14   H     H_    0.504031 0.702117 0.700542 0.088726
C27   C     C_R   0.413766 0.887424 0.386298 -0.071583
H15   H     H_    0.417206 0.837105 0.478747 0.065609
H16   H     H_    0.436342 0.012451 0.303181 0.065459
H17   H     H_    0.441690 0.965135 0.410982 0.072931
C28   C     C_R   0.359677 0.714631 0.394673 -0.075335
C29   C     C_R   0.330340 0.683901 0.071239 -0.166257
C30   C     C_R   0.322344 0.605860 0.106764 0.442996
C31   C     C_R   0.328094 0.630523 0.176657 -0.097768
C32   C     C_R   0.351563 0.731313 0.212635 -0.017871
C33   C     C_R   0.368102 0.808785 0.175553 0.006476
C34   C     C_R   0.361885 0.757598 0.284148 0.060704
C35   C     C_R   0.395467 0.859956 0.316412 0.067923
C36   C     C_R   0.411851 0.934255 0.278843 -0.104890
C37   C     C_R   0.396965 0.909407 0.209652 -0.078224
C38   C     C_R   0.341068 0.686048 0.325061 -0.111068
C39   C     C_R   0.398562 0.814936 0.425057 -0.111146
C40   C     C_R   0.355109 0.784145 0.104884 -0.132792
H18   H     H_    0.311527 0.607448 0.304706 0.046695
H19   H     H_    0.316733 0.667369 0.017286 0.047605
H20   H     H_    0.317313 0.567954 0.201210 0.088341
H21   H     H_    0.410083 0.970094 0.183030 0.066690
O11   O     O_R   0.203230 0.917310 0.915020 -0.558269
O12   O     O_R   0.535500 0.888690 0.048040 -0.561947
O13   O     O_R   0.711080 0.082610 0.085000 -0.564305
C41   C     C_R   0.366093 0.862014 0.064924 0.837755
O14   O     O_R   0.532630 0.905370 0.913230 -0.565709
O15   O     O_R   0.708190 0.099410 0.949230 -0.562890
C42   C     C_R   0.364426 0.884281 0.886485 0.838768
O16   O     O_R   0.206120 0.900510 0.050790 -0.558370
O17   O     O_3   0.375360 0.063570 0.011990 -0.279434
V3    V     V_3+5 0.648170 0.988200 0.997780 1.132223
O18   O     O_R   0.038240 0.111390 0.951940 -0.564814
C43   C     C_R   0.870274 0.138527 0.935671 0.816834
O19   O     O_R   0.041120 0.094710 0.086750 -0.563764
C44   C     C_R   0.872495 0.115844 0.113483 0.837532
V4    V     V_3+5 0.148810 0.011930 0.002180 1.132163
O20   O     O_3   0.871750 0.936430 0.988010 -0.272405
O21   O     O_3   0.295027 0.504747 0.076286 -0.647671
C45   C     C_3   0.399077 0.477060 0.015787 0.251580
H22   H     H_    0.544569 0.513548 0.019049 0.035483
H23   H     H_    0.316099 0.497087 0.974156 0.052664
C46   C     C_3   0.426817 0.363419 0.999802 -0.285891
H24   H     H_    0.285852 0.323843 0.999078 0.133335
H25   H     H_    0.495264 0.339845 0.949932 0.079440
H26   H     H_    0.520614 0.341399 0.038112 0.111849
O22   O     O_3   0.828240 0.011434 0.581984 -0.647164
C47   C     C_3   0.013794 0.969203 0.573692 0.235052
H27   H     H_    0.096914 0.984795 0.621483 0.027912
H28   H     H_    0.095574 0.999444 0.535231 0.049859
C48   C     C_3   0.993821 0.855313 0.550511 -0.268185
H29   H     H_    0.924262 0.836258 0.500469 0.124868
H30   H     H_    0.137867 0.820179 0.547394 0.044807
H31   H     H_    0.904962 0.824044 0.586700 0.115649
N1    N     N_R   0.768606 0.418581 0.704530 0.061992
O23   O     O_R   0.861933 0.495983 0.691641 -0.387574
O24   O     O_R   0.613522 0.433117 0.740948 -0.379035

loop_
_geom_bond_atom_site_label_1
_geom_bond_atom_site_label_2
_geom_bond_distance
_ccdc_geom_bond_type
C20   H8    1.082443 S    
C21   C22   1.348717 D    
C40   C41   1.468450 S    
C1    O6    1.298952 A    
C6    C16   1.410264 A    
C23   C24   1.344799 D    
C8    H5    1.082541 S    
C15   H6    1.082501 S    
C12   C13   1.425574 A    
C14   C15   1.385046 A    
C10   C12   1.433630 A    
O5    C3    1.298947 A    
C48   H30   1.109486 S    
C27   C35   1.404234 A    
O14   C42   1.293687 A    
C29   H19   1.082560 S    
H15   C39   1.082918 S    
N1    O23   1.301719 A    
C31   H20   1.076540 S    
V2    O10   2.159968 S    
O22   C47   1.412168 S    
C48   H31   1.111047 S    
C32   C34   1.431920 A    
C27   C39   1.391659 A    
O8    V2    2.001354 S    
O14   V3    2.014197 S    
C25   H13   1.086108 S    
C26   H14   1.082406 S    
C9    C10   1.416765 A    
O1    V2    2.018594 S    
C41   O16   1.292525 A    
C5    O22   1.383642 S    
C32   C33   1.424900 A    
C11   C18   1.416817 A    
C30   C31   1.397964 A    
O11   C42   1.301500 A    
O9    C4    1.293788 A    
C16   N1    1.439026 S    
C3    C20   1.480264 S    
C21   H9    1.086180 S    
C46   H24   1.109641 S    
C22   H10   1.082475 S    
C28   C38   1.399870 A    
O13   V3    2.008789 S    
H16   C36   1.084200 S    
C24   H12   1.082566 S    
C23   H11   1.086288 S    
C11   C15   1.404968 A    
V3    O20   1.706173 S    
C7    C18   1.396923 A    
C34   C38   1.416416 A    
C33   C37   1.407987 A    
C5    C13   1.411713 A    
C4    C6    1.462886 S    
C10   C11   1.424995 A    
C45   H22   1.115767 S    
O4    C2    1.295740 A    
O19   C44   1.300829 A    
C46   H26   1.110787 S    
C29   C30   1.406797 A    
C37   H21   1.082692 S    
O17   V3    2.154201 S    
C33   C40   1.415646 A    
C1    C26   1.480378 S    
C31   C32   1.417141 A    
C30   O21   1.392872 S    
O2    C1    1.297397 A    
C19   C20   1.349140 D    
C45   H23   1.111321 S    
C47   H27   1.115740 S    
C23   C25   1.492651 S    
C9    H4    1.076523 S    
O18   C43   1.292774 A    
C46   H25   1.110103 S    
H2    C14   1.083314 S    
O12   C41   1.294608 A    
O13   C44   1.295463 A    
O3    C4    1.293280 A    
C47   H28   1.113515 S    
C12   C16   1.426722 A    
O6    V2    2.001793 S    
O9    V2    2.021592 S    
C5    C17   1.393941 A    
C28   C39   1.395069 A    
O2    V1    2.014198 S    
O15   C43   1.293466 A    
O7    V1    2.154137 S    
C27   H17   1.083981 S    
O1    C2    1.291482 A    
O18   V4    2.021518 S    
O5    V1    2.008791 S    
O8    C3    1.297488 A    
C29   C40   1.397408 A    
H1    C17   1.084041 S    
C38   H18   1.077345 S    
C35   C36   1.395389 A    
O7    V2    1.710594 S    
O4    V1    2.013889 S    
C19   H7    1.086144 S    
O3    V1    2.014698 S    
V1    O10   1.706238 S    
C45   C46   1.522343 S    
C24   C42   1.478032 S    
O12   V3    2.013861 S    
O21   C45   1.414513 S    
N1    O24   1.301475 A    
O17   V4    1.709404 S    
C18   C43   1.464106 S    
O19   V4    2.001374 S    
C36   C37   1.387268 A    
C19   C21   1.493448 S    
C48   H29   1.111022 S    
O16   V4    2.022425 S    
C34   C35   1.422889 A    
O15   V3    2.014843 S    
C47   C48   1.522808 S    
C7    H3    1.083725 S    
V4    O20   2.159930 S    
C25   C26   1.352814 D    
C13   C14   1.400380 A    
C8    C9    1.392219 A    
C22   C44   1.479881 S    
O11   V4    2.002221 S    
C7    C8    1.387072 A    
C2    C28   1.462412 S    
C6    C17   1.394814 A    
