data_mof_unit_39862.cif
_audit_creation_date              2013-03-05T15:51:50-0500
_audit_creation_method            fapswitch 2.2
_symmetry_space_group_name_H-M    P1
_symmetry_Int_Tables_number       1
_space_group_crystal_system       triclinic
_cell_length_a                    11.12207
_cell_length_b                    11.253662
_cell_length_c                    18.807418
_cell_angle_alpha                 90.12807
_cell_angle_beta                  90.078761
_cell_angle_gamma                 60.709956
_cell_volume                      2053.05642518

loop_
_atom_site_label
_atom_site_type_symbol
_atom_site_description
_atom_site_fract_x
_atom_site_fract_y
_atom_site_fract_z
_atom_type_partial_charge
O1    O     O_R   0.507380 0.255700 0.581440 -0.529854
O2    O     O_R   0.280320 0.527350 0.578930 -0.516193
C1    C     C_R   0.235723 0.647142 0.608592 0.582988
O3    O     O_R   0.260510 0.739590 0.584590 -0.453385
O4    O     O_R   0.532300 0.695080 0.573820 -0.425239
C2    C     C_R   0.654668 0.620834 0.599660 0.582441
O5    O     O_R   0.744840 0.503500 0.576370 -0.552062
O6    O     O_R   0.699120 0.276560 0.571960 -0.485692
C3    C     C_R   0.625672 0.233230 0.603460 0.566185
O7    O     O_R   0.498940 0.256500 0.419860 -0.523985
O8    O     O_R   0.272500 0.528080 0.429150 -0.523755
C4    C     C_R   0.218842 0.650813 0.403266 0.553805
O9    O     O_R   0.252060 0.740380 0.423010 -0.477305
O10   O     O_R   0.524480 0.695810 0.424040 -0.483344
C5    C     C_R   0.643918 0.622223 0.393307 0.541860
O11   O     O_R   0.736390 0.504290 0.414790 -0.531318
O12   O     O_R   0.691300 0.277290 0.422170 -0.505821
C6    C     C_R   0.614918 0.232493 0.394487 0.553788
Cr1   Cr    Cr6+3 0.392960 0.397920 0.502240 1.036052
Cr2   Cr    Cr6+3 0.398340 0.708480 0.501250 1.123347
Cr3   Cr    Cr6+3 0.708670 0.393570 0.496460 1.046210
O13   O     O_3   0.499990 0.499990 0.499980 -0.282285
C7    C     C_3   0.674604 0.810880 0.765872 -0.064241
H1    H     H_    0.587163 0.894015 0.793219 0.144936
C8    C     C_3   0.631474 0.799488 0.687353 0.061886
H2    H     H_    0.686074 0.828813 0.647697 0.195499
H3    H     H_    0.886078 0.621858 0.676028 0.171706
C9    C     C_3   0.839619 0.552274 0.774819 0.081663
C10   C     C_3   0.588258 0.650180 0.800290 -0.269639
C11   C     C_3   0.709852 0.677630 0.809200 -0.054817
H4    H     H_    0.601281 0.570055 0.838474 0.201239
H5    H     H_    0.488755 0.742800 0.812811 0.144813
C12   C     C_3   0.674848 0.648269 0.673557 0.015829
C13   C     C_3   0.831471 0.566852 0.694130 -0.276469
C14   C     C_3   0.591791 0.600644 0.723263 0.103316
H6    H     H_    0.648980 0.488989 0.724291 0.177459
H7    H     H_    0.833740 0.461502 0.789695 0.194883
H8    H     H_    0.892561 0.466050 0.669148 0.153740
C15   C     C_R   0.663131 0.156190 0.825153 0.053742
C16   C     C_R   0.738370 0.207247 0.792145 0.026473
C17   C     C_R   0.722307 0.239968 0.720999 -0.026444
C18   C     C_R   0.577121 0.139917 0.708379 -0.140558
C19   C     C_R   0.560210 0.143486 0.782016 0.015808
C20   C     C_3   0.886430 0.165079 0.793927 -0.045054
C21   C     C_3   0.864818 0.218184 0.718013 -0.249217
C22   C     C_R   0.658099 0.187983 0.676582 0.025821
H9    H     H_    0.516480 0.111455 0.674619 0.222889
H10   H     H_    0.949902 0.054189 0.796340 0.105516
H11   H     H_    0.866916 0.312428 0.711874 0.101591
H12   H     H_    0.918785 0.149902 0.674896 0.207047
C23   C     C_R   0.166183 0.688856 0.832135 0.011632
C24   C     C_R   0.180536 0.577305 0.795616 0.017642
C25   C     C_R   0.190315 0.566892 0.722657 -0.001551
C26   C     C_R   0.148467 0.796554 0.717085 0.062156
C27   C     C_R   0.158010 0.797349 0.791673 -0.167004
C28   C     C_3   0.278931 0.434922 0.808934 -0.039345
C29   C     C_3   0.301009 0.422599 0.728157 -0.239107
C30   C     C_R   0.178008 0.673638 0.680957 0.056226
H13   H     H_    0.150844 0.885768 0.818310 0.165876
H14   H     H_    0.222393 0.384655 0.830425 0.225468
H15   H     H_    0.401207 0.410920 0.710187 0.190891
H16   H     H_    0.268753 0.354339 0.701930 0.184290
C31   C     C_R   0.663356 0.674770 0.170697 -0.011233
C32   C     C_R   0.738729 0.547049 0.203470 0.055553
C33   C     C_R   0.737798 0.535724 0.276654 0.001125
C34   C     C_R   0.591903 0.778415 0.288296 -0.095961
C35   C     C_R   0.588731 0.790300 0.214067 -0.118409
C36   C     C_3   0.892538 0.454832 0.201731 0.109981
C37   C     C_3   0.889980 0.443369 0.281050 -0.178686
C38   C     C_R   0.663197 0.649797 0.319817 0.018501
H17   H     H_    0.537149 0.868805 0.320705 0.139600
H18   H     H_    0.536866 0.890667 0.190956 0.169599
H19   H     H_    0.949530 0.506070 0.183330 0.149642
H20   H     H_    0.920204 0.339686 0.300332 0.183802
H21   H     H_    0.942183 0.491911 0.309396 0.099953
C39   C     C_R   0.644939 0.160037 0.174289 0.004481
C40   C     C_R   0.553582 0.135365 0.214303 0.005997
C41   C     C_R   0.553231 0.145630 0.287850 -0.030346
C42   C     C_R   0.738172 0.199028 0.281924 -0.152810
C43   C     C_R   0.734398 0.194760 0.208274 -0.160660
C44   C     C_3   0.399406 0.218154 0.210149 -0.061439
C45   C     C_3   0.399740 0.227017 0.290209 -0.254470
C46   C     C_R   0.645364 0.177694 0.322782 0.016138
H22   H     H_    0.806621 0.228743 0.306667 0.144281
H23   H     H_    0.803109 0.215196 0.177149 0.198314
H24   H     H_    0.366463 0.317327 0.183486 0.113015
H25   H     H_    0.367497 0.331542 0.308444 0.151443
H26   H     H_    0.354284 0.173448 0.319956 0.188750
C47   C     C_R   0.101050 0.699353 0.191535 0.031764
C48   C     C_R   0.062378 0.815110 0.233136 -0.009759
C49   C     C_R   0.078837 0.808452 0.305312 -0.006744
C50   C     C_R   0.136799 0.573339 0.301047 -0.170371
C51   C     C_R   0.128162 0.579259 0.226634 -0.177502
C52   C     C_3   0.081484 0.935944 0.224440 -0.211549
C53   C     C_3   0.093823 0.935197 0.305022 -0.050879
C54   C     C_R   0.134611 0.681758 0.339560 0.027562
H27   H     H_    0.158779 0.479972 0.327559 0.131271
H28   H     H_    0.148656 0.489346 0.196864 0.126184
H29   H     H_    0.989760 0.024250 0.203204 0.152730
H30   H     H_    0.177362 0.910730 0.194477 0.195128
H31   H     H_    0.005580 0.022608 0.331306 0.109555
O14   O     O_R   0.089400 0.825690 0.930570 -0.528220
O15   O     O_R   0.818460 0.054440 0.929850 -0.488249
C55   C     C_R   0.697000 0.103592 0.897604 0.598089
O16   O     O_R   0.606060 0.077150 0.915510 -0.444605
O17   O     O_R   0.646550 0.806680 0.917570 -0.485766
C56   C     C_R   0.729687 0.691781 0.886612 0.584328
O18   O     O_R   0.837170 0.593410 0.915250 -0.478241
O19   O     O_R   0.065200 0.635530 0.931570 -0.459982
C57   C     C_R   0.115595 0.710276 0.905592 0.571060
O20   O     O_R   0.068260 0.828890 0.091840 -0.522940
O21   O     O_R   0.798870 0.057410 0.079340 -0.519255
C58   C     C_R   0.674440 0.106633 0.103111 0.538336
O22   O     O_R   0.584930 0.080350 0.076780 -0.459193
O23   O     O_R   0.626960 0.809650 0.067060 -0.496803
C59   C     C_R   0.699324 0.692414 0.098495 0.528014
O24   O     O_R   0.816040 0.596610 0.076510 -0.548535
O25   O     O_R   0.045610 0.638500 0.081060 -0.509307
C60   C     C_R   0.081304 0.716582 0.115331 0.546906
Cr4   Cr    Cr6+3 0.937650 0.938540 0.007610 1.055590
Cr5   Cr    Cr6+3 0.625330 0.937370 0.994520 1.129434
Cr6   Cr    Cr6+3 0.937940 0.625230 0.001190 1.076130
O26   O     O_3   0.833640 0.833710 0.001100 -0.280363
C61   C     C_2   0.790947 0.844127 0.768134 0.483407
O27   O     O_2   0.840660 0.862818 0.714142 -0.557744
O28   O     O_R   0.841053 0.854547 0.833857 -0.709798
H32   H     H_    0.906772 0.891111 0.829157 0.325023
C62   C     C_2   0.431511 0.137259 0.805426 0.527938
O29   O     O_2   0.389329 0.155623 0.866582 -0.433938
O30   O     O_R   0.347836 0.124940 0.753867 -0.733668
H33   H     H_    0.260996 0.131424 0.774654 0.397473
C63   C     C_2   0.924898 0.237198 0.849132 0.577032
O31   O     O_2   0.039598 0.226420 0.847901 -0.485889
O32   O     O_R   0.832133 0.311915 0.903242 -0.694166
H34   H     H_    0.873346 0.348857 0.939272 0.353903
C64   C     C_2   0.119899 0.920766 0.677961 0.567600
O33   O     O_2   0.052111 0.949426 0.623006 -0.496470
O34   O     O_R   0.174394 0.002112 0.701805 -0.730082
H35   H     H_    0.156711 0.078357 0.667505 0.354974
C65   C     C_2   0.394486 0.422671 0.855588 0.565882
O35   O     O_2   0.478283 0.452680 0.832510 -0.550642
O36   O     O_R   0.400322 0.384140 0.926637 -0.640013
H36   H     H_    0.480382 0.382705 0.953229 0.339343
O37   O     O_3   0.931777 0.330410 0.167823 -0.708197
H37   H     H_    0.941023 0.344861 0.116591 0.350306
O38   O     O_3   0.490784 0.886811 0.673705 -0.668176
H38   H     H_    0.438436 0.894898 0.717437 0.369020
C66   C     C_2   0.327631 0.144632 0.179938 0.572219
O39   O     O_2   0.262063 0.109552 0.218365 -0.519231
O40   O     O_R   0.330376 0.123009 0.106678 -0.642620
H39   H     H_    0.277627 0.074418 0.092391 0.335225
C67   C     C_2   0.229845 0.918688 0.326931 0.659582
O41   O     O_2   0.334870 0.820996 0.305155 -0.511036
O42   O     O_R   0.235505 0.012446 0.373720 -0.683993
H40   H     H_    0.333207 0.987493 0.387251 0.321923
O43   O     O_3   0.968064 0.527061 0.798320 -0.676379
H41   H     H_    0.955902 0.614063 0.815852 0.377763
O44   O     O_3   0.461084 0.632269 0.698584 -0.684257
H42   H     H_    0.402114 0.731397 0.701671 0.364678

loop_
_geom_bond_atom_site_label_1
_geom_bond_atom_site_label_2
_geom_bond_distance
_ccdc_geom_bond_type
O6    C3    1.283923 A    
O28   H32   1.003008 S    
O23   Cr5   1.977550 S    
C27   H13   1.080606 S    
C11   C56   1.492022 S    
O15   Cr4   1.977051 S    
C62   O29   1.221174 D    
C44   C45   1.508923 S    
C29   H16   1.108859 S    
O4    Cr2   1.970000 S    
C34   C38   1.398136 A    
C40   C41   1.387643 A    
C20   C21   1.521736 S    
C4    O9    1.285565 A    
O8    Cr1   1.978361 S    
C43   H23   1.073950 S    
C32   C36   1.505787 S    
O43   H41   0.977102 S    
C66   O40   1.396390 S    
O38   H38   0.986344 S    
C10   H5    1.112458 S    
O2    C1    1.310627 A    
C18   C22   1.393194 A    
C42   H22   1.074878 S    
C28   C65   1.504910 S    
C33   C37   1.493524 S    
O19   Cr6   1.974217 S    
O17   C56   1.301611 A    
C5    O11   1.283782 A    
C50   C54   1.407467 A    
C28   C29   1.534376 S    
C66   O39   1.222450 D    
O20   C60   1.279267 A    
C35   H18   1.077702 S    
O25   Cr6   1.970234 S    
O25   C60   1.297414 A    
O21   C58   1.293234 A    
C6    C46   1.451518 S    
C49   C54   1.403615 A    
O22   Cr5   2.113720 S    
C41   C46   1.403824 A    
C47   C60   1.448649 S    
C9    H7    1.092129 S    
C63   O31   1.221207 D    
C17   C22   1.398211 A    
C36   O37   1.398781 S    
C8    O38   1.405531 S    
C21   H11   1.078654 S    
C44   H24   1.110482 S    
Cr4   O26   2.019708 S    
C34   C35   1.401482 A    
C9    C13   1.524567 S    
C3    C22   1.450071 S    
Cr3   O13   2.026281 S    
C55   O16   1.233222 A    
C50   H27   1.078456 S    
C48   C52   1.484887 S    
Cr6   O26   2.046257 S    
H3    C13   1.112351 S    
C31   C35   1.409199 A    
O1    Cr1   2.100562 S    
O36   H36   1.013907 S    
C23   C24   1.368764 A    
C7    C11   1.579802 S    
O10   Cr2   1.976404 S    
C15   C55   1.460486 S    
Cr1   O13   2.019043 S    
O1    C3    1.280562 A    
C65   O35   1.216870 D    
C64   O34   1.395285 S    
C15   C16   1.374515 A    
O21   Cr4   1.992295 S    
C25   C29   1.485780 S    
C36   C37   1.499145 S    
C15   C19   1.464935 A    
C8    H2    1.110131 S    
O5    Cr3   2.104276 S    
O12   Cr3   1.985021 S    
C42   C43   1.387190 A    
O20   Cr4   2.095445 S    
C53   C67   1.488830 S    
C14   H6    1.096297 S    
O24   Cr6   2.093598 S    
C10   C11   1.536344 S    
O6    Cr3   1.976648 S    
C41   C45   1.491742 S    
C34   H17   1.081314 S    
C52   H30   1.113576 S    
O7    Cr1   2.116886 S    
C56   O18   1.284800 A    
C44   C66   1.512481 S    
C26   C64   1.471632 S    
O12   C6    1.289789 A    
O16   Cr5   2.099568 S    
C37   H20   1.106233 S    
C39   C40   1.398183 A    
O42   H40   1.012628 S    
O32   H34   1.013148 S    
C31   C59   1.457347 S    
C16   C17   1.376631 A    
C67   O42   1.397239 S    
C23   C57   1.466713 S    
O44   H42   0.980770 S    
O14   C57   1.272763 A    
C18   C19   1.395735 A    
Cr2   O13   2.046485 S    
C1    O3    1.282663 A    
C47   C48   1.393667 A    
O14   Cr4   2.112352 S    
C24   C25   1.376820 A    
C61   O28   1.383340 S    
C58   O22   1.268823 A    
C26   C30   1.426442 A    
C5    C38   1.456176 S    
C26   C27   1.407010 A    
O9    Cr2   2.089353 S    
O2    Cr1   1.995374 S    
C13   H8    1.101625 S    
C39   C43   1.388803 A    
O18   Cr6   2.093307 S    
C64   O33   1.225615 D    
C62   O30   1.395980 S    
C19   C62   1.532215 S    
C25   C30   1.385614 A    
O11   Cr3   2.095856 S    
C29   H15   1.109472 S    
C2    O5    1.282231 A    
C65   O36   1.397353 S    
C20   C63   1.501508 S    
C10   C14   1.544686 S    
C53   H31   1.108943 S    
O40   H39   1.014010 S    
C2    C12   1.463662 S    
O37   H37   0.991338 S    
C32   C33   1.383100 A    
C39   C58   1.437203 S    
O30   H33   1.011420 S    
C36   H19   1.101440 S    
C14   O44   1.395738 S    
C10   H4    1.106612 S    
O19   C57   1.313138 A    
C42   C46   1.399675 A    
C48   C49   1.366786 A    
O4    C2    1.293804 A    
C24   C28   1.453649 S    
C52   H29   1.093848 S    
O7    C6    1.274645 A    
C45   H26   1.110188 S    
O17   Cr5   1.991243 S    
C9    C11   1.580369 S    
C50   C51   1.402180 A    
C12   C14   1.582269 S    
C12   C13   1.568979 S    
C59   O24   1.283958 A    
C37   H21   1.108118 S    
C23   C27   1.404788 A    
C18   H9    1.081630 S    
C7    C8    1.576280 S    
C47   C51   1.399258 A    
C52   C53   1.521238 S    
Cr5   O26   2.024662 S    
O34   H35   1.013928 S    
C7    H1    1.092974 S    
C49   C53   1.514907 S    
C31   C32   1.404336 A    
O3    Cr2   2.099599 S    
C1    C30   1.471941 S    
C20   H10   1.093572 S    
C16   C20   1.474227 S    
C28   H14   1.108407 S    
C67   O41   1.218040 D    
C63   O32   1.399058 S    
C40   C44   1.500429 S    
O15   C55   1.329199 A    
C9    O43   1.385236 S    
C17   C21   1.481727 S    
O10   C5    1.306952 A    
C4    C54   1.453962 S    
C21   H12   1.074988 S    
O23   C59   1.304275 A    
C33   C38   1.396563 A    
C7    C61   1.513163 S    
C51   H28   1.077691 S    
C45   H25   1.102574 S    
O8    C4    1.302511 A    
C8    C12   1.546338 S    
C61   O27   1.223678 D    
