data_mof_unit_51619.cif
_audit_creation_date              2012-12-10T17:01:33-0500
_audit_creation_method            fapswitch 2.2
_symmetry_space_group_name_H-M    P1
_symmetry_Int_Tables_number       1
_space_group_crystal_system       triclinic
_cell_length_a                    12.769854
_cell_length_b                    10.770447
_cell_length_c                    10.004063
_cell_angle_alpha                 90.879643
_cell_angle_beta                  99.940537
_cell_angle_gamma                 90.092465
_cell_volume                      1355.10053031

loop_
_atom_site_label
_atom_site_type_symbol
_atom_type_description
_atom_site_fract_x
_atom_site_fract_y
_atom_site_fract_z
_atom_type_partial_charge
C1    C     C_R   0.498918 0.262322 0.497983 0.940764
C2    C     C_2   0.485720 0.130671 0.491566 -0.373592
C3    C     C_2   0.564630 0.568132 0.941921 0.117896
C4    C     C_R   0.296469 0.502612 0.469119 0.890655
C5    C     C_2   0.544152 0.585736 0.085564 -0.169419
C6    C     C_R   0.499209 0.737162 0.500696 0.943443
C7    C     C_R   0.702353 0.495822 0.529507 0.857377
C8    C     C_R   0.816131 0.489463 0.552284 -0.127381
C9    C     C_R   0.180623 0.508224 0.442846 -0.114320
C10   C     C_R   0.004962 0.451571 0.316556 0.083278
C11   C     C_R   0.114480 0.477401 0.315890 0.104767
C12   C     C_R   0.029001 0.527467 0.552644 0.135840
C13   C     C_R   0.135215 0.545066 0.553770 -0.310989
C14   C     C_2   0.820164 0.305632 0.399843 0.371925
C15   C     C_3   0.663084 0.626651 0.902179 -0.335187
C16   C     C_3   0.728795 0.710581 0.011862 -0.419200
C17   C     C_3   0.829232 0.759494 0.966928 -0.891924
C18   C     C_3   0.925432 0.438166 0.182961 -0.422389
C19   C     C_3   0.926236 0.309523 0.112808 -0.286261
C20   C     C_3   0.900296 0.319081 0.958302 -0.895664
C21   C     C_3   0.155349 0.483026 0.180468 -0.382214
C22   C     C_3   0.150363 0.615089 0.122171 -0.373355
C23   C     C_R   0.967075 0.464136 0.441790 0.121178
C24   C     C_3   0.242404 0.698821 0.186566 -0.765065
C25   C     C_2   0.504298 0.103907 0.244837 0.454715
C26   C     C_R   0.865541 0.425693 0.457652 -0.083219
C27   C     C_R   0.875512 0.559725 0.656846 -0.217021
C28   C     C_R   0.983931 0.571514 0.662191 -0.192518
C29   C     C_2   0.468111 0.928343 0.386943 -0.249359
C30   C     C_2   0.502425 0.868519 0.501957 -0.320816
C31   C     C_2   0.485637 0.060103 0.378783 0.039401
H1    H     H_    0.466409 0.091159 0.583506 0.147866
H2    H     H_    0.735084 0.291009 0.377373 0.147208
H3    H     H_    0.884098 0.681878 0.955100 0.244637
H4    H     H_    0.808937 0.809289 0.869505 0.266803
H5    H     H_    0.870811 0.825084 0.045249 0.266779
H6    H     H_    0.680064 0.791552 0.033326 0.234326
H7    H     H_    0.753084 0.657845 0.106760 0.232847
H8    H     H_    0.714967 0.549993 0.878136 0.210808
H9    H     H_    0.639506 0.683068 0.810530 0.234250
H10   H     H_    0.960113 0.377450 0.919907 0.260304
H11   H     H_    0.900638 0.225005 0.911404 0.262655
H12   H     H_    0.433205 0.468046 0.881929 0.155030
H13   H     H_    0.820254 0.360119 0.927245 0.269000
H14   H     H_    0.004072 0.262631 0.141877 0.224086
H15   H     H_    0.864841 0.248806 0.143773 0.269541
H16   H     H_    0.842948 0.458402 0.197680 0.188192
H17   H     H_    0.941503 0.512398 0.113686 0.202549
H18   H     H_    0.241445 0.713920 0.296280 0.255661
H19   H     H_    0.319366 0.657987 0.171733 0.274324
H20   H     H_    0.234493 0.790652 0.136953 0.215311
H21   H     H_    0.151949 0.607851 0.011524 0.197228
H22   H     H_    0.074462 0.660651 0.134058 0.219505
H23   H     H_    0.573209 0.668316 0.143322 0.171092
H24   H     H_    0.233705 0.439732 0.181895 0.216555
H25   H     H_    0.106607 0.423602 0.103222 0.173042
H26   H     H_    0.451150 0.073789 0.153440 0.019524
H27   H     H_    0.481949 0.418843 0.096177 0.180030
H28   H     H_    0.837769 0.606984 0.731518 0.162634
H29   H     H_    0.030756 0.622584 0.746055 0.132690
H30   H     H_    0.183616 0.584858 0.644259 0.170615
H31   H     H_    0.435350 0.878089 0.293835 0.159167
H32   H     H_    0.539871 0.914052 0.595575 0.148135
N1    N     N_2   0.501130 0.501330 0.852280 -0.211830
N2    N     N_2   0.501160 0.501360 0.147950 -0.212373
O1    O     O_R   0.499980 0.319060 0.613040 -0.612583
O2    O     O_2   0.583193 0.164518 0.234324 -0.577991
O3    O     O_R   0.500020 0.319100 0.386900 -0.581326
O4    O     O_R   0.346340 0.499960 0.594380 -0.616137
O5    O     O_R   0.346380 0.500000 0.368250 -0.625523
O6    O     O_R   0.499980 0.680900 0.613100 -0.634324
O7    O     O_R   0.500020 0.680940 0.386960 -0.616304
O8    O     O_R   0.653620 0.500000 0.631750 -0.629737
O9    O     O_R   0.653660 0.500040 0.405620 -0.614763
O10   O     O_2   0.878524 0.218166 0.387109 -0.570649
Zn1   Zn    Zn3+2 0.499980 0.499970 0.650990 0.926025
Zn2   Zn    Zn3+2 0.500020 0.500030 0.349010 0.933770

loop_
_geom_bond_atom_site_label_1
_geom_bond_atom_site_label_2
_ccdc_geom_bond_type
C25   C31   S    
C21   H25   S    
C20   H11   S    
C19   H14   S    
C29   C30   D    
C17   H5    S    
C10   C23   A    
C22   H22   S    
C8    C26   A    
H27   N2    S    
C19   C20   S    
C25   O2    D    
C16   H6    S    
O1    Zn1   S    
C18   H16   S    
C22   H21   S    
C24   H20   S    
C4    O5    A    
C20   H10   S    
N1    Zn1   S    
C19   H15   S    
C13   H30   S    
C7    C8    S    
C7    O8    A    
C27   H28   S    
C21   C22   S    
C14   O10   D    
O5    Zn2   S    
C6    O7    A    
C9    C11   A    
C12   C23   A    
C15   H8    S    
O6    Zn1   S    
C25   H26   S    
C14   H2    S    
C2    H1    S    
C4    O4    A    
C20   H13   S    
C12   C28   A    
H12   N1    S    
C1    O1    A    
C7    O9    A    
C28   H29   S    
C24   H19   S    
C6    O6    A    
C10   C18   S    
O8    Zn1   S    
C22   C24   S    
C15   H9    S    
C5    N2    D    
N2    Zn2   S    
C17   H3    S    
C15   C16   S    
C3    N1    D    
C3    C5    S    
C5    H23   S    
O3    Zn2   S    
C1    O3    A    
C3    C15   S    
C12   C13   A    
O4    Zn1   S    
C29   C31   S    
C1    C2    S    
C10   C11   A    
C23   C26   A    
C24   H18   S    
C21   H24   S    
C8    C27   A    
C9    C13   A    
C29   H31   S    
C18   C19   S    
C17   H4    S    
O7    Zn2   S    
C6    C30   S    
C4    C9    S    
C30   H32   S    
C11   C21   S    
C14   C26   S    
C16   C17   S    
C16   H7    S    
C2    C31   D    
C27   C28   A    
O9    Zn2   S    
C18   H17   S    
