data_mof_unit_33855.cif
_audit_creation_date              2013-03-05T15:57:46-0500
_audit_creation_method            fapswitch 2.2
_symmetry_space_group_name_H-M    P1
_symmetry_Int_Tables_number       1
_space_group_crystal_system       triclinic
_cell_length_a                    15.753842
_cell_length_b                    15.08453
_cell_length_c                    14.967309
_cell_angle_alpha                 109.298724
_cell_angle_beta                  121.369202
_cell_angle_gamma                 58.312787
_cell_volume                      2576.22273753

loop_
_atom_site_label
_atom_site_type_symbol
_atom_site_description
_atom_site_fract_x
_atom_site_fract_y
_atom_site_fract_z
_atom_type_partial_charge
C1    C     C_R   0.800481 0.942261 0.776684 -0.160986
C2    C     C_R   0.252260 0.003903 0.209072 -0.146731
H1    H     H_    0.830500 0.886596 0.828612 0.124470
H2    H     H_    0.245972 0.033907 0.148631 0.113862
N1    N     N_R   0.705410 0.966550 0.689210 -0.052107
N2    N     N_R   0.294590 0.033450 0.310790 -0.057695
C3    C     C_R   0.227819 0.288999 0.474880 -0.074573
C4    C     C_R   0.792362 0.718592 0.548699 -0.104350
H3    H     H_    0.209526 0.349978 0.436077 0.103481
H4    H     H_    0.816621 0.662321 0.596997 0.119702
N3    N     N_R   0.294590 0.188320 0.465660 -0.050630
N4    N     N_R   0.705410 0.811680 0.534340 -0.049793
C5    C     C_R   0.589514 0.222403 0.497228 -0.085248
C6    C     C_R   0.415001 0.776814 0.509890 -0.097966
H5    H     H_    0.673488 0.209412 0.529550 0.144484
H6    H     H_    0.335246 0.796027 0.500708 0.152695
N5    N     N_R   0.556610 0.157790 0.497330 -0.039140
N6    N     N_R   0.443390 0.842210 0.502670 -0.047486
C7    C     C_R   0.411291 0.036945 0.735132 -0.109721
C8    C     C_R   0.588632 0.023795 0.288510 -0.130125
H7    H     H_    0.327156 0.070896 0.723830 0.108168
H8    H     H_    0.672700 0.011121 0.318550 0.110931
N7    N     N_R   0.443390 0.997080 0.657540 -0.040181
N8    N     N_R   0.556610 0.002920 0.342460 -0.044771
C9    C     C_R   0.405975 0.294144 0.418997 -0.125691
C10   C     C_R   0.598148 0.704190 0.578493 -0.154219
H9    H     H_    0.320199 0.344230 0.373627 0.090277
H10   H     H_    0.684969 0.654998 0.621570 0.104329
N9    N     N_R   0.443390 0.203250 0.451380 -0.036630
N10   N     N_R   0.556610 0.796750 0.548620 -0.043388
C11   C     C_R   0.595504 0.965672 0.806736 -0.142968
C12   C     C_R   0.406418 0.096020 0.214073 -0.148786
H11   H     H_    0.681937 0.936439 0.856410 0.123308
H12   H     H_    0.321772 0.151415 0.177243 0.119369
N11   N     N_R   0.556610 0.951620 0.703500 -0.042132
N12   N     N_R   0.443390 0.048380 0.296500 -0.046808
C13   C     C_R   0.221546 0.199496 0.562998 -0.094312
C14   C     C_R   0.796171 0.808955 0.459568 -0.130882
H13   H     H_    0.194147 0.179644 0.603192 0.105269
H14   H     H_    0.826001 0.835978 0.427995 0.128559
N13   N     N_R   0.294590 0.131500 0.522480 -0.044608
N14   N     N_R   0.705410 0.868500 0.477520 -0.047963
C15   C     C_R   0.801407 0.030085 0.683342 0.198391
C16   C     C_R   0.241387 0.918319 0.297090 0.212667
N15   N     N_R   0.705410 0.023370 0.632390 -0.063807
N16   N     N_R   0.294590 0.976630 0.367610 -0.062274
C17   C     C_R   0.860836 0.983137 0.775740 0.081945
C18   C     C_R   0.220782 0.929436 0.198135 0.091300
C19   C     C_R   0.183921 0.299126 0.538829 0.177827
C20   C     C_R   0.852527 0.714961 0.504837 0.178363
C21   C     C_R   0.496636 0.308184 0.448711 0.039707
C22   C     C_R   0.510460 0.688723 0.552385 0.037883
C23   C     C_R   0.505948 0.022882 0.831008 0.055086
C24   C     C_R   0.495707 0.084372 0.207327 0.082235
H15   H     H_    0.165762 0.954154 0.003430 0.150293
H16   H     H_    0.017863 0.837606 0.914185 0.148506
Ni1   Ni    Ni4+2 0.629830 0.882720 0.617850 0.217160
Ni2   Ni    Ni4+2 0.370170 0.117280 0.382150 0.217326
Ni3   Ni    Ni4+2 0.629830 0.013030 0.487540 0.236433
Ni4   Ni    Ni4+2 0.370170 0.986970 0.512460 0.251949
H17   H     H_    0.136785 0.829200 0.101933 0.157340
H18   H     H_    0.995073 0.028915 0.856877 0.165190
H19   H     H_    0.009464 0.773935 0.047183 0.128410
H20   H     H_    0.988913 0.389681 0.013933 0.120466
C25   C     C_R   0.866298 0.787145 0.044352 -0.143782
C26   C     C_R   0.141396 0.395003 0.063877 -0.158159
H21   H     H_    0.900042 0.703612 0.046056 0.121635
H22   H     H_    0.109447 0.476907 0.091165 0.121182
C27   C     C_R   0.761757 0.854292 0.042863 0.025056
C28   C     C_R   0.249506 0.340190 0.070695 0.054688
C29   C     C_R   0.718672 0.963188 0.039106 0.027270
C30   C     C_R   0.287415 0.233108 0.032441 0.027656
C31   C     C_R   0.784592 0.002781 0.044875 -0.132666
C32   C     C_R   0.214664 0.186758 0.984760 -0.164779
H23   H     H_    0.753536 0.085958 0.043976 0.141797
H24   H     H_    0.243365 0.105452 0.956591 0.166763
C33   C     C_R   0.889473 0.935022 0.048710 -0.074248
C34   C     C_R   0.108150 0.242386 0.978798 -0.090825
H25   H     H_    0.938890 0.966589 0.052224 0.150228
H26   H     H_    0.054102 0.204590 0.943673 0.134547
C35   C     C_R   0.929292 0.827217 0.046350 -0.100251
C36   C     C_R   0.071763 0.346293 0.018831 -0.113204
C37   C     C_R   0.598680 0.074113 0.125358 -0.248719
C38   C     C_R   0.407917 0.138783 0.941789 -0.238281
H27   H     H_    0.674738 0.050506 0.196273 0.143937
H28   H     H_    0.333140 0.170452 0.871677 0.140570
C39   C     C_R   0.496253 0.120350 0.127344 0.059306
C40   C     C_R   0.508441 0.065662 0.936029 0.075048
C41   C     C_R   0.399888 0.167041 0.036740 0.030732
C42   C     C_R   0.606536 0.037188 0.031133 0.042456
C43   C     C_2   0.107124 0.398571 0.568272 -0.310378
C44   C     C_2   0.961547 0.630703 0.516348 -0.312603
C45   C     C_2   0.128637 0.482316 0.605218 0.213636
C46   C     C_2   0.038714 0.585295 0.607289 0.233990
H29   H     H_    0.974311 0.597152 0.445495 0.135644
H30   H     H_    0.026928 0.406357 0.549174 0.142631
C47   C     C_2   0.972552 0.969547 0.850548 -0.127302
C48   C     C_2   0.165868 0.878785 0.099421 -0.201652
C49   C     C_R   0.371892 0.791011 0.758185 -0.187173
C50   C     C_R   0.702532 0.242791 0.272398 -0.189268
H31   H     H_    0.414640 0.828803 0.829501 0.157566
H32   H     H_    0.673694 0.223894 0.188511 0.146470
C51   C     C_R   0.430620 0.706227 0.706810 -0.178057
C52   C     C_R   0.626647 0.296398 0.316075 -0.164762
H33   H     H_    0.519130 0.678686 0.739674 0.120925
H34   H     H_    0.540111 0.317257 0.265470 0.148582
C53   C     C_R   0.375241 0.660099 0.611130 0.136999
C54   C     C_R   0.661762 0.330345 0.423047 0.102954
C55   C     C_R   0.260330 0.696837 0.570552 -0.171515
C56   C     C_R   0.775363 0.300972 0.487383 -0.182747
H35   H     H_    0.215759 0.662997 0.496598 0.138689
H36   H     H_    0.804214 0.326616 0.570194 0.142313
C57   C     C_R   0.201787 0.781024 0.623524 -0.068036
C58   C     C_R   0.851318 0.244788 0.444134 -0.108935
H37   H     H_    0.113007 0.810601 0.591244 0.168914
H38   H     H_    0.937882 0.226288 0.493789 0.144225
C59   C     C_R   0.257857 0.828655 0.716426 0.297924
C60   C     C_R   0.814501 0.218545 0.336134 0.284467
C61   C     C_R   0.424687 0.488919 0.507672 -0.225207
C62   C     C_R   0.588492 0.506629 0.501575 -0.244574
H39   H     H_    0.365043 0.479706 0.515185 0.161450
H40   H     H_    0.647540 0.516361 0.493291 0.137930
C63   C     C_R   0.495704 0.406525 0.464596 0.055928
C64   C     C_R   0.516596 0.588850 0.542459 0.053427
C65   C     C_R   0.580800 0.413778 0.463963 0.035716
C66   C     C_R   0.437930 0.579191 0.551397 0.032685
C67   C     C_2   0.041236 0.894700 0.916826 -0.063330
C68   C     C_2   0.136745 0.905122 0.007591 -0.088083
C69   C     C_R   0.703694 0.808730 0.051819 0.133008
C70   C     C_R   0.659711 0.745004 0.968489 -0.187923
C71   C     C_R   0.613896 0.694454 0.981421 -0.114479
C72   C     C_R   0.610311 0.708482 0.076658 -0.064176
C73   C     C_R   0.655430 0.770650 0.160264 -0.115147
C74   C     C_R   0.703694 0.819107 0.148430 -0.124442
H41   H     H_    0.662527 0.733368 0.894523 0.115282
H42   H     H_    0.581601 0.643870 0.917980 0.131521
H43   H     H_    0.574182 0.669844 0.086172 0.112733
H44   H     H_    0.654785 0.779690 0.234718 0.121468
H45   H     H_    0.743769 0.862407 0.215127 0.106487
C75   C     C_R   0.315705 0.399495 0.111954 0.088174
C76   C     C_R   0.366057 0.396447 0.055442 -0.117291
C77   C     C_R   0.420154 0.459329 0.090326 -0.091005
C78   C     C_R   0.422623 0.527474 0.180557 -0.092405
C79   C     C_R   0.371331 0.532608 0.236318 -0.081818
C80   C     C_R   0.318844 0.468581 0.202841 -0.181121
H46   H     H_    0.360689 0.348186 0.982662 0.134431
H47   H     H_    0.458684 0.456410 0.046373 0.132493
H48   H     H_    0.463698 0.576723 0.206927 0.114852
H49   H     H_    0.372295 0.586160 0.305609 0.142530
H50   H     H_    0.279962 0.473511 0.247501 0.117399
I1    I     I_    0.038745 0.650097 0.756731 -0.445584
I2    I     I_    0.289051 0.473027 0.668015 -0.437330
I3    I     I_    0.173604 0.959931 0.793570 -0.495409
I4    I     I_    0.926467 0.152060 0.269263 -0.453773
I5    I     I_    0.875926 0.040190 0.605706 -0.464396
I6    I     I_    0.155327 0.861365 0.318017 -0.472881

loop_
_geom_bond_atom_site_label_1
_geom_bond_atom_site_label_2
_geom_bond_distance
_ccdc_geom_bond_type
C49   C51   1.389410 A    
C28   C75   1.487869 S    
C45   C46   1.457006 S    
N5    N9    1.369047 A    
C6    N6    1.330067 A    
C7    N7    1.340291 A    
H17   C48   1.080449 S    
C47   C67   1.330029 D    
C52   H34   1.078457 S    
C3    N3    1.329011 A    
N8    N12   1.369045 A    
C32   H24   1.077260 S    
H19   C35   1.079413 S    
C1    N1    1.338159 A    
C12   N12   1.332622 A    
C7    H7    1.076299 S    
C38   H28   1.081807 S    
C14   N14   1.347079 A    
N12   Ni2   1.858359 S    
C55   H35   1.082931 S    
C24   C39   1.474039 S    
C34   H26   1.082724 S    
C63   C65   1.406129 A    
C43   C45   1.345134 D    
C26   H22   1.083404 S    
C78   C79   1.396114 A    
N10   Ni1   1.877477 S    
C50   C52   1.399663 A    
C21   C63   1.415955 S    
H16   C67   1.083671 S    
C27   C29   1.418490 A    
N2    Ni2   1.876856 S    
N4    N14   1.392726 A    
N13   Ni4   1.853642 S    
C43   H30   1.087205 S    
C5    C21   1.366914 A    
C6    C22   1.376703 A    
C8    N8    1.328425 A    
C16   N16   1.352804 A    
C72   C73   1.396114 A    
C25   H21   1.083702 S    
C11   H11   1.064545 S    
C60   I4    2.105938 S    
N6    N10   1.369047 A    
C27   C69   1.475136 S    
C54   C65   1.484310 S    
N3    Ni2   1.857950 S    
C56   C58   1.395539 A    
C80   H50   1.083099 S    
C55   C57   1.399003 A    
C22   C64   1.419524 S    
C7    C23   1.403195 A    
C48   C68   1.330552 D    
C73   H44   1.081854 S    
C53   C55   1.406052 A    
C2    N2    1.329639 A    
C19   C43   1.455911 S    
C15   I5    2.115870 S    
C12   C24   1.377036 A    
C62   H40   1.085284 S    
C33   H25   1.079727 S    
C9    N9    1.324786 A    
N7    Ni4   1.851281 S    
C28   C30   1.422976 A    
C16   I6    2.125542 S    
C75   C76   1.407556 A    
C3    C19   1.378116 A    
C30   C32   1.404349 A    
C71   H42   1.081049 S    
C74   H45   1.080667 S    
C29   C31   1.402415 A    
C62   C65   1.370921 A    
C1    C17   1.385679 A    
C2    C18   1.383359 A    
C72   H43   1.082427 S    
N1    N15   1.392724 A    
C44   H29   1.086980 S    
C69   C74   1.402082 A    
C1    H1    1.079035 S    
C12   H12   1.071854 S    
C75   C80   1.409271 A    
C2    H2    1.078550 S    
C9    C21   1.369961 A    
C79   H49   1.082161 S    
C10   C22   1.353448 A    
C26   C36   1.395426 A    
H18   C47   1.086084 S    
C13   C19   1.393234 A    
C34   C36   1.391837 A    
C25   C35   1.392284 A    
C33   C35   1.397385 A    
C4    N4    1.329129 A    
C37   C39   1.394628 A    
C50   H32   1.081540 S    
C51   H33   1.082244 S    
C11   C23   1.383653 A    
C15   N15   1.337211 A    
H20   C36   1.082558 S    
C58   C60   1.395784 A    
C61   H39   1.082757 S    
C76   H46   1.080908 S    
N5    Ni3   1.854344 S    
C57   C59   1.399144 A    
N4    Ni1   1.857947 S    
C8    C24   1.389669 A    
C37   H27   1.080104 S    
C70   H41   1.083012 S    
C40   C42   1.419690 A    
C10   N10   1.313673 A    
N7    N11   1.369047 A    
C39   C41   1.415777 A    
C59   I3    2.083079 S    
C73   C74   1.397658 A    
C6    H6    1.070295 S    
C50   C60   1.398665 A    
C38   C41   1.395519 A    
C31   H23   1.083157 S    
C67   C68   1.453770 S    
C4    C20   1.379088 A    
C52   C54   1.401880 A    
N9    Ni2   1.877476 S    
C64   C66   1.396486 A    
C69   C70   1.402595 A    
N6    Ni4   1.854345 S    
C3    H3    1.080205 S    
C37   C42   1.380053 A    
C20   C44   1.462268 S    
N2    N16   1.392725 A    
N16   Ni4   1.851057 S    
C77   H47   1.082434 S    
C4    H4    1.079941 S    
C38   C40   1.405761 A    
C53   C66   1.481868 S    
C8    H8    1.078701 S    
C79   C80   1.398342 A    
N14   Ni3   1.853642 S    
C58   H38   1.082613 S    
C14   C20   1.394240 A    
C61   C63   1.404488 A    
C9    H9    1.081284 S    
C18   C48   1.460356 S    
C10   H10   1.081189 S    
C17   C47   1.454046 S    
N1    Ni1   1.876855 S    
N11   Ni1   1.858359 S    
C5    H5    1.070779 S    
C70   C71   1.400378 A    
C46   I1    2.124300 S    
C13   H13   1.078490 S    
C16   C18   1.390532 A    
C76   C77   1.399034 A    
C14   H14   1.081720 S    
C30   C41   1.485075 S    
C49   C59   1.390812 A    
C44   C46   1.348520 D    
C26   C28   1.410736 A    
C29   C42   1.475790 S    
N8    Ni3   1.851281 S    
C25   C27   1.401078 A    
C54   C56   1.407554 A    
N3    N13   1.392723 A    
C23   C40   1.476707 S    
C11   N11   1.319912 A    
C13   N13   1.348847 A    
C56   H36   1.083398 S    
C78   H48   1.082474 S    
C5    N5    1.323334 A    
C61   C66   1.375986 A    
C62   C64   1.392730 A    
H15   C68   1.084046 S    
N15   Ni3   1.851057 S    
C32   C34   1.393610 A    
C31   C33   1.394237 A    
C77   C78   1.397051 A    
C45   I2    2.128756 S    
C51   C53   1.405168 A    
C15   C17   1.376027 A    
C49   H31   1.081951 S    
C71   C72   1.397044 A    
C57   H37   1.082612 S    
