data_mof_unit_43030.cif
_audit_creation_date              2012-10-26T19:45:29-0400
_audit_creation_method            fapswitch 2.2
_symmetry_space_group_name_H-M    P1
_symmetry_Int_Tables_number       1
_space_group_crystal_system       triclinic
_cell_length_a                    10.857082
_cell_length_b                    9.505449
_cell_length_c                    10.733282
_cell_angle_alpha                 89.981322
_cell_angle_beta                  90.191913
_cell_angle_gamma                 90.090688
_cell_volume                      1107.68249197

loop_
_atom_site_label
_atom_site_type_symbol
_atom_type_description
_atom_site_fract_x
_atom_site_fract_y
_atom_site_fract_z
_atom_type_partial_charge
C1    C     C_R   0.261818 0.499812 0.500660 0.576484
C2    C     C_R   0.427882 0.925442 0.418210 0.020277
C3    C     C_R   0.572088 0.925629 0.581939 0.006291
C4    C     C_R   0.572033 0.074564 0.581986 0.003877
C5    C     C_R   0.499918 0.499803 0.259680 0.545254
C6    C     C_R   0.737640 0.500085 0.500367 0.550533
C7    C     C_R   0.499928 0.499774 0.740311 0.535156
C8    C     C_3   0.383445 0.574631 0.071482 -0.233967
C9    C     C_3   0.500302 0.345760 0.071353 -0.231937
C10   C     C_3   0.383221 0.574162 0.927665 -0.236291
C11   C     C_3   0.500626 0.345721 0.928705 -0.231202
C12   C     C_3   0.615796 0.576126 0.928430 -0.235702
C13   C     C_3   0.615958 0.575830 0.072237 -0.233403
C14   C     C_3   0.499901 0.499048 0.121760 0.050315
C15   C     C_3   0.499891 0.498993 0.878210 0.055944
C16   C     C_3   0.112990 0.151836 0.539681 -0.100614
C17   C     C_3   0.130624 0.764951 0.689483 -0.124066
C18   C     C_R   0.061958 0.373407 0.477692 0.213526
C19   C     C_R   0.062586 0.623537 0.533630 0.217085
C20   C     C_R   0.934079 0.376061 0.475271 -0.142846
C21   C     C_R   0.934821 0.623165 0.530692 -0.137898
C22   C     C_R   0.870802 0.499919 0.502131 -0.079164
C23   C     C_R   0.127352 0.499098 0.503363 0.021291
C24   C     C_R   0.428065 0.074366 0.418057 0.010004
Cu1   Cu    Cu3+1 0.500020 0.640660 0.500000 0.938874
Cu2   Cu    Cu3+1 0.500020 0.359340 0.500000 0.932171
H1    H     H_    0.380889 0.685199 0.105481 0.120502
H2    H     H_    0.583795 0.288984 0.895048 0.117436
H3    H     H_    0.618264 0.686244 0.106666 0.128037
H4    H     H_    0.700582 0.522695 0.107180 0.111838
H5    H     H_    0.617589 0.686702 0.894270 0.118465
H6    H     H_    0.700564 0.523568 0.893714 0.103942
H7    H     H_    0.884516 0.281218 0.449903 0.149596
H8    H     H_    0.886112 0.719740 0.551499 0.144276
H9    H     H_    0.370276 0.130505 0.352578 0.136574
H10   H     H_    0.369904 0.869156 0.352890 0.120088
H11   H     H_    0.149002 0.194556 0.629326 0.108533
H12   H     H_    0.583103 0.288620 0.105936 0.126629
H13   H     H_    0.169855 0.059095 0.515299 0.168917
H14   H     H_    0.016636 0.114350 0.551107 0.108814
H15   H     H_    0.179115 0.674799 0.734051 0.110090
H16   H     H_    0.037650 0.778744 0.730999 0.093829
H17   H     H_    0.184816 0.861290 0.710012 0.127609
H18   H     H_    0.629934 0.869478 0.647369 0.098763
H19   H     H_    0.629801 0.130866 0.647486 0.101693
H20   H     H_    0.299083 0.521026 0.106309 0.114969
H21   H     H_    0.417560 0.287936 0.105040 0.124314
H22   H     H_    0.299079 0.519571 0.892947 0.096557
H23   H     H_    0.418238 0.287461 0.894170 0.123339
H24   H     H_    0.379875 0.684483 0.892998 0.119743
N1    N     N_R   0.500030 0.852070 0.500030 -0.222477
N2    N     N_R   0.500030 0.147930 0.500030 -0.227773
O1    O     O_R   0.319660 0.618740 0.499990 -0.458578
O2    O     O_3   0.123220 0.748381 0.559141 -0.555602
O3    O     O_R   0.319660 0.381260 0.499990 -0.466045
O4    O     O_R   0.499990 0.618790 0.317690 -0.514417
O5    O     O_R   0.499990 0.381210 0.317690 -0.511129
O6    O     O_R   0.680370 0.618830 0.500010 -0.506875
O7    O     O_R   0.680370 0.381170 0.500010 -0.509076
O8    O     O_R   0.500030 0.618780 0.682310 -0.515576
O9    O     O_R   0.500030 0.381220 0.682310 -0.518941
O10   O     O_3   0.122446 0.251556 0.442674 -0.558055

loop_
_geom_bond_atom_site_label_1
_geom_bond_atom_site_label_2
_ccdc_geom_bond_type
C24   N2    A    
C19   C23   A    
C9    C14   S    
C12   C15   S    
C9    H21   S    
C11   H23   S    
Cu1   O8    S    
Cu2   N2    S    
Cu2   O7    S    
C6    O6    A    
C5    O4    A    
Cu1   O4    S    
C5    O5    A    
C16   H11   S    
C10   C15   S    
Cu2   O3    S    
Cu1   N1    S    
C1    O3    A    
C21   C22   A    
C12   H6    S    
C10   H22   S    
C12   C13   S    
C9    C11   S    
C5    C14   S    
C16   O10   S    
C11   H2    S    
C16   H14   S    
C20   H7    S    
C17   O2    S    
C19   O2    S    
C13   H3    S    
C9    H12   S    
C19   C21   A    
Cu2   O9    S    
Cu1   O1    S    
C1    C23   S    
C18   C20   A    
C4    H19   S    
C12   H5    S    
C2    C24   A    
Cu2   O5    S    
C8    H20   S    
C3    H18   S    
C24   H9    S    
Cu1   O6    S    
C16   H13   S    
C18   C23   A    
C6    C22   S    
C7    O8    A    
C13   H4    S    
C8    C10   S    
C2    N1    A    
C2    H10   S    
C17   H17   S    
C8    H1    S    
C3    N1    A    
C17   H16   S    
C7    O9    A    
C1    O1    A    
C21   H8    S    
C8    C14   S    
C17   H15   S    
C7    C15   S    
Cu1   Cu2   S    
C13   C14   S    
C11   C15   S    
C6    O7    A    
C4    N2    A    
C18   O10   S    
C3    C4    A    
C20   C22   A    
C10   H24   S    
