data_mof_unit_5311.cif
_audit_creation_date              2012-12-11T15:54:45-0500
_audit_creation_method            fapswitch 2.2
_symmetry_space_group_name_H-M    P1
_symmetry_Int_Tables_number       1
_space_group_crystal_system       triclinic
_cell_length_a                    6.926756
_cell_length_b                    14.534422
_cell_length_c                    16.100819
_cell_angle_alpha                 89.903541
_cell_angle_beta                  89.76097
_cell_angle_gamma                 89.919586
_cell_volume                      1620.95442648

loop_
_atom_site_label
_atom_site_type_symbol
_atom_type_description
_atom_site_fract_x
_atom_site_fract_y
_atom_site_fract_z
_atom_type_partial_charge
O1    O     O_R   0.638180 0.333920 0.163320 -0.540319
O2    O     O_R   0.361820 0.666080 0.836680 -0.540314
O3    O     O_R   0.308470 0.344960 0.336080 -0.545874
O4    O     O_R   0.691530 0.655040 0.663920 -0.545873
O5    O     O_R   0.138140 0.166110 0.336680 -0.534143
O6    O     O_R   0.861860 0.833890 0.663320 -0.534145
C1    C     C_R   0.477286 0.367167 0.365118 0.690053
C2    C     C_R   0.522714 0.632833 0.634882 0.690055
O7    O     O_R   0.308460 0.344950 0.163930 -0.545758
O8    O     O_R   0.691540 0.655050 0.836070 -0.545758
O9    O     O_R   0.138140 0.166100 0.163310 -0.541244
O10   O     O_R   0.861860 0.833900 0.836690 -0.541248
C3    C     C_R   0.477635 0.367156 0.134944 0.685911
C4    C     C_R   0.522365 0.632843 0.865056 0.685908
O11   O     O_R   0.638180 0.333930 0.336700 -0.540410
O12   O     O_R   0.361820 0.666070 0.663300 -0.540410
O13   O     O_3   0.471670 0.191340 0.250000 -0.365822
O14   O     O_3   0.528330 0.808660 0.750000 -0.365826
V1    V     V_3+5 0.196830 0.260900 0.250000 1.396251
V2    V     V_3+5 0.803170 0.739100 0.750000 1.396247
O15   O     O_R   0.808420 0.155070 0.163920 -0.545113
O16   O     O_R   0.191580 0.844930 0.836080 -0.545112
C5    C     C_R   0.978387 0.134165 0.134018 0.695949
C6    C     C_R   0.021611 0.865837 0.865980 0.695958
O17   O     O_R   0.808420 0.155080 0.336070 -0.537685
O18   O     O_R   0.191580 0.844920 0.663930 -0.537686
C7    C     C_R   0.977156 0.133141 0.364714 0.701696
C8    C     C_R   0.022844 0.866858 0.635286 0.701694
V3    V     V_3+5 0.696830 0.239130 0.250000 1.409619
V4    V     V_3+5 0.303170 0.760870 0.750000 1.409619
O19   O     O_3   0.971850 0.308690 0.250010 -0.373346
O20   O     O_3   0.028150 0.691310 0.749990 -0.373345
H1    H     H_    0.765917 0.829128 0.268490 0.120434
H2    H     H_    0.234061 0.170873 0.731512 0.120446
C9    C     C_R   0.108352 0.185229 0.528547 -0.139688
C10   C     C_R   0.891639 0.814771 0.471454 -0.139690
C11   C     C_R   0.173239 0.212563 0.606460 -0.122965
C12   C     C_R   0.826744 0.787438 0.393542 -0.122964
C13   C     C_R   0.185029 0.149124 0.670888 -0.117627
C14   C     C_R   0.814955 0.850877 0.329113 -0.117628
C15   C     C_R   0.132265 0.057828 0.657884 -0.133860
C16   C     C_R   0.867726 0.942172 0.342116 -0.133861
C17   C     C_R   0.068015 0.027627 0.579144 0.069433
C18   C     C_R   0.931981 0.972372 0.420855 0.069433
C19   C     C_R   0.055597 0.092720 0.513052 0.069906
C20   C     C_R   0.944400 0.907279 0.486948 0.069906
C21   C     C_R   0.012507 0.934848 0.566148 -0.186147
C22   C     C_R   0.987492 0.065152 0.433852 -0.186149
H3    H     H_    0.098593 0.237775 0.481097 0.105574
H4    H     H_    0.901398 0.762226 0.518903 0.105576
H5    H     H_    0.213177 0.283575 0.617019 0.119105
H6    H     H_    0.786801 0.716426 0.382983 0.119104
H7    H     H_    0.141102 0.011688 0.710504 0.103920
H8    H     H_    0.858889 0.988312 0.289496 0.103923
C23   C     C_R   0.157712 0.997312 0.945783 -0.156494
C24   C     C_R   0.842272 0.002693 0.054213 -0.156529
H9    H     H_    0.280320 0.996954 0.903720 0.146162
H10   H     H_    0.719658 0.003053 0.096273 0.146180
C25   C     C_R   0.152248 0.063076 0.009186 0.212031
C26   C     C_R   0.847712 0.936944 0.990799 0.212015
C27   C     C_R   0.992312 0.066265 0.064921 -0.155958
C28   C     C_R   0.007674 0.933739 0.935075 -0.155960
C29   C     C_R   0.319986 0.471742 0.470416 -0.164086
C30   C     C_R   0.680014 0.528258 0.529584 -0.164086
H11   H     H_    0.178858 0.450818 0.448888 0.113319
H12   H     H_    0.821142 0.549182 0.551111 0.113319
C31   C     C_R   0.331420 0.535396 0.535472 -0.150606
C32   C     C_R   0.668580 0.464604 0.464528 -0.150606
C33   C     C_R   0.511603 0.564507 0.566063 -0.045374
C34   C     C_R   0.488397 0.435493 0.433937 -0.045374
C35   C     C_R   0.320307 0.473961 0.032111 -0.158668
C36   C     C_R   0.679693 0.526039 0.967889 -0.158669
H13   H     H_    0.179359 0.454889 0.055754 0.115764
H14   H     H_    0.820640 0.545111 0.944246 0.115766
C37   C     C_R   0.331314 0.537627 0.966927 -0.147718
C38   C     C_R   0.668686 0.462372 0.033072 -0.147719
H15   H     H_    0.198344 0.565827 0.942508 0.117551
H16   H     H_    0.801656 0.434173 0.057492 0.117549
C39   C     C_R   0.511158 0.564514 0.933878 -0.044578
C40   C     C_R   0.488841 0.435485 0.066121 -0.044568
N1    N     N_3   0.309361 0.126989 0.013199 -0.670564
H17   H     H_    0.254421 0.194031 0.013210 0.224333
H18   H     H_    0.387398 0.115122 0.067575 0.250192
N2    N     N_3   0.690500 0.873089 0.986741 -0.670553
H19   H     H_    0.745313 0.806024 0.986725 0.224358
H20   H     H_    0.612534 0.885006 0.932354 0.250190
H21   H     H_    0.198383 0.561747 0.561830 0.116838
H22   H     H_    0.801617 0.438253 0.438170 0.116838

loop_
_geom_bond_atom_site_label_1
_geom_bond_atom_site_label_2
_ccdc_geom_bond_type
C7    C22   S    
C35   C37   A    
C29   H11   S    
C8    C21   S    
C23   C25   A    
O13   V3    S    
O4    C2    A    
V1    O19   S    
C1    C34   S    
N1    H17   S    
C13   C15   A    
O9    V1    S    
C2    C33   S    
C30   C32   A    
C9    C11   A    
C38   H16   S    
C36   C39   A    
O3    C1    A    
C11   H5    S    
C12   H6    S    
O12   V4    S    
C23   C28   A    
C26   C28   A    
O7    C3    A    
O5    C7    A    
O7    V1    S    
O6    C8    A    
O8    V2    S    
C9    H3    S    
O3    V1    S    
O14   V4    S    
V4    O20   S    
C36   C38   A    
C1    O11   A    
C3    C40   S    
C2    O12   A    
C15   C17   A    
C16   C18   A    
C35   C40   A    
N1    H18   S    
C18   C20   A    
O11   V3    S    
O17   V3    S    
C29   C31   A    
C25   C27   A    
H1    C14   S    
H2    C13   S    
C38   C40   A    
N2    H19   S    
C36   H14   S    
O8    C4    A    
C35   H13   S    
C30   C33   A    
O15   V3    S    
C24   C26   A    
C31   C33   A    
C30   H12   S    
C17   C19   A    
C29   C34   A    
V3    O19   S    
O10   V2    S    
O1    V3    S    
C4    C39   S    
C10   C20   A    
C37   H15   S    
C15   H7    S    
O18   V4    S    
C23   H9    S    
C32   H22   S    
O16   C6    A    
O1    C3    A    
C10   C12   A    
C9    C19   A    
C10   H4    S    
V2    O20   S    
C19   C22   A    
C20   C21   A    
C6    C28   S    
O16   V4    S    
O18   C8    A    
C25   N1    S    
N2    H20   S    
C14   C16   A    
O5    V1    S    
O17   C7    A    
O6    V2    S    
O10   C6    A    
C31   H21   S    
O2    V4    S    
O15   C5    A    
C11   C13   A    
C16   H8    S    
C12   C14   A    
C26   N2    S    
C17   C21   A    
O9    C5    A    
O13   V1    S    
C24   H10   S    
O14   V2    S    
O2    C4    A    
O4    V2    S    
C5    C27   S    
C32   C34   A    
C24   C27   A    
C37   C39   A    
C18   C22   A    
