data_mof_unit_58896.cif
_audit_creation_date              2012-10-26T20:05:03-0400
_audit_creation_method            fapswitch 2.2
_symmetry_space_group_name_H-M    P1
_symmetry_Int_Tables_number       1
_space_group_crystal_system       triclinic
_cell_length_a                    15.872598
_cell_length_b                    15.08411
_cell_length_c                    13.696274
_cell_angle_alpha                 89.984288
_cell_angle_beta                  90.003016
_cell_angle_gamma                 89.819532
_cell_volume                      3279.20050638

loop_
_atom_site_label
_atom_site_type_symbol
_atom_type_description
_atom_site_fract_x
_atom_site_fract_y
_atom_site_fract_z
_atom_type_partial_charge
C1    C     C_R   0.500125 0.328457 0.500015 0.549360
C2    C     C_R   0.500079 0.046468 0.500004 0.060683
C3    C     C_R   0.498760 0.907091 0.589422 0.010258
C4    C     C_R   0.501240 0.092909 0.410578 0.010258
C5    C     C_R   0.502089 0.953833 0.322078 -0.136827
C6    C     C_R   0.497929 0.046167 0.677921 -0.136827
C7    C     C_R   0.502256 0.046258 0.322087 -0.136811
C8    C     C_R   0.497755 0.953742 0.677913 -0.136812
C9    C     C_R   0.551935 0.443113 0.793355 0.034884
C10   C     C_R   0.448064 0.556887 0.206645 0.034883
C11   C     C_R   0.447995 0.556768 0.793301 0.034954
C12   C     C_R   0.499875 0.671543 0.499985 0.549360
C13   C     C_R   0.552005 0.443232 0.206699 0.034953
C14   C     C_R   0.446811 0.558197 0.896362 -0.016316
C15   C     C_R   0.553188 0.441803 0.103638 -0.016316
C16   C     C_R   0.339693 0.500067 0.499986 0.553002
C17   C     C_R   0.660307 0.499933 0.500014 0.553001
C18   C     C_R   0.499989 0.499982 0.948182 0.054070
C19   C     C_R   0.500011 0.500018 0.051818 0.054070
C20   C     C_R   0.553146 0.441735 0.896419 -0.016336
C21   C     C_R   0.446854 0.558265 0.103581 -0.016337
C22   C     C_R   0.393962 0.616201 0.948616 -0.147027
C23   C     C_R   0.499759 0.768392 0.499982 -0.015016
C24   C     C_R   0.606038 0.383799 0.051384 -0.147027
C25   C     C_R   0.393982 0.616233 0.051269 -0.146990
C26   C     C_R   0.606018 0.383767 0.948731 -0.146990
C27   C     C_3   0.971928 0.457565 0.580418 -0.101771
C28   C     C_3   0.028072 0.542434 0.419581 -0.101752
C29   C     C_3   0.027794 0.416900 0.499591 0.028612
C30   C     C_3   0.972206 0.583100 0.500408 0.028622
C31   C     C_1   0.250027 0.500167 0.499990 -0.038296
C32   C     C_1   0.749973 0.499833 0.500010 -0.038297
C33   C     C_3   0.028082 0.541741 0.580832 -0.101761
C34   C     C_R   0.500241 0.231608 0.500018 -0.015016
C35   C     C_3   0.971918 0.458259 0.419167 -0.101751
C36   C     C_3   0.082870 0.500125 0.500000 0.040230
C37   C     C_3   0.917130 0.499875 0.499999 0.040227
C38   C     C_1   0.174516 0.500217 0.499995 -0.073284
C39   C     C_1   0.825484 0.499782 0.500004 -0.073286
C40   C     C_R   0.498671 0.814733 0.588796 -0.141018
C41   C     C_R   0.501326 0.185267 0.411204 -0.141018
C42   C     C_3   0.062098 0.322180 0.499131 -0.253442
C43   C     C_3   0.990543 0.254256 0.498668 -0.299127
C44   C     C_3   0.025030 0.159706 0.498185 -0.453949
C45   C     C_R   0.500800 0.814776 0.411172 -0.141182
C46   C     C_3   0.937904 0.677818 0.500865 -0.253434
C47   C     C_3   0.009461 0.745743 0.501161 -0.299206
C48   C     C_3   0.974974 0.840271 0.501594 -0.454031
C49   C     C_R   0.499210 0.185223 0.588828 -0.141181
C50   C     C_R   0.500923 0.907136 0.410561 0.010201
C51   C     C_R   0.499083 0.092864 0.589439 0.010201
C52   C     C_R   0.499919 0.953532 0.499996 0.060683
Cu1   Cu    Cu3+1 0.500010 0.499990 0.597420 0.934113
Cu2   Cu    Cu3+1 0.499990 0.500010 0.402580 0.934110
H1    H     H_    0.352606 0.661541 0.910119 0.100917
H2    H     H_    0.502234 0.220930 0.342453 0.124806
H3    H     H_    0.501599 0.779146 0.342416 0.125150
H4    H     H_    0.498422 0.220854 0.657584 0.125148
H5    H     H_    0.502883 0.918881 0.252960 0.106226
H6    H     H_    0.497150 0.081119 0.747038 0.106227
H7    H     H_    0.503169 0.081246 0.252976 0.106122
H8    H     H_    0.496852 0.918753 0.747023 0.106124
H9    H     H_    0.592455 0.398770 0.752476 0.119377
H10   H     H_    0.407545 0.601230 0.247524 0.119379
H11   H     H_    0.407485 0.601113 0.752379 0.119168
H12   H     H_    0.647394 0.338459 0.089881 0.100917
H13   H     H_    0.592515 0.398887 0.247621 0.119168
H14   H     H_    0.064078 0.148256 0.432039 0.152657
H15   H     H_    0.063893 0.147589 0.564344 0.152588
H16   H     H_    0.971923 0.111964 0.497805 0.141390
H17   H     H_    0.950505 0.263416 0.564514 0.160343
H18   H     H_    0.950626 0.264052 0.432823 0.160301
H19   H     H_    0.102067 0.313122 0.433245 0.145507
H20   H     H_    0.101942 0.312504 0.565022 0.145441
H21   H     H_    0.936004 0.852309 0.435509 0.152620
H22   H     H_    0.936031 0.851784 0.567800 0.152682
H23   H     H_    0.352638 0.661595 0.089720 0.101054
H24   H     H_    0.028085 0.888012 0.501798 0.141406
H25   H     H_    0.049451 0.736011 0.566949 0.160336
H26   H     H_    0.049426 0.736538 0.435274 0.160358
H27   H     H_    0.897979 0.687455 0.435033 0.145459
H28   H     H_    0.898017 0.686912 0.566809 0.145494
H29   H     H_    0.647361 0.338405 0.910280 0.101054
H30   H     H_    0.947885 0.422360 0.645866 0.099081
H31   H     H_    0.052116 0.577634 0.354131 0.099070
H32   H     H_    0.947866 0.423626 0.353371 0.099062
H33   H     H_    0.052134 0.576379 0.646625 0.099080
H34   H     H_    0.497760 0.779070 0.657547 0.124805
N1    N     N_R   0.499960 0.499930 0.743810 -0.237934
N2    N     N_R   0.500040 0.500070 0.256190 -0.237934
O1    O     O_R   0.500020 0.370250 0.582280 -0.508802
O2    O     O_R   0.499980 0.629750 0.417720 -0.508803
O3    O     O_R   0.500010 0.370270 0.417740 -0.508721
O4    O     O_R   0.499990 0.629730 0.582260 -0.508720
O5    O     O_R   0.379080 0.499980 0.582260 -0.497544
O6    O     O_R   0.620920 0.500020 0.417740 -0.497545
O7    O     O_R   0.379070 0.500000 0.417710 -0.497408
O8    O     O_R   0.620930 0.500000 0.582290 -0.497407

loop_
_geom_bond_atom_site_label_1
_geom_bond_atom_site_label_2
_ccdc_geom_bond_type
C43   H18   S    
C23   C45   A    
C13   N2    A    
C27   C29   S    
C14   C18   A    
C47   H25   S    
Cu1   Cu2   S    
C27   C33   S    
C16   C31   S    
C15   C19   A    
C29   C36   S    
C45   H3    S    
C26   H29   S    
C25   H23   S    
C27   H30   S    
C35   C37   S    
C24   C26   A    
Cu2   N2    S    
C29   C42   S    
C35   H32   S    
C16   O7    A    
Cu1   O5    S    
C4    C41   A    
C23   C40   A    
C33   C36   S    
C18   C19   A    
C32   C39   T    
C48   H24   S    
C48   H22   S    
C7    H7    S    
Cu2   O3    S    
C46   H28   S    
C28   C35   S    
C49   C51   A    
C22   C25   A    
Cu1   O1    S    
C50   C52   A    
Cu2   O7    S    
C44   H16   S    
C6    C51   A    
C17   O8    A    
Cu2   O6    S    
C24   H12   S    
C1    O1    A    
C48   H21   S    
C12   O4    A    
C34   C41   A    
C47   H26   S    
C4    C7    A    
C30   C46   S    
C1    C34   S    
C10   C21   A    
C42   H20   S    
C5    H5    S    
C6    H6    S    
C3    C8    A    
C9    N1    A    
C5    C7    A    
C6    C8    A    
C49   H4    S    
C30   C37   S    
C2    C4    A    
C43   C44   S    
C41   H2    S    
Cu2   O2    S    
C46   H27   S    
C11   N1    A    
C9    C20   A    
C47   C48   S    
C12   C23   S    
C44   H15   S    
C17   O6    A    
C10   N2    A    
C2    C52   A    
C15   C24   A    
C3    C40   A    
C13   C15   A    
Cu1   N1    S    
C5    C50   A    
C44   H14   S    
C42   C43   S    
C13   H13   S    
C21   C25   A    
C46   C47   S    
C42   H19   S    
C43   H17   S    
C30   C33   S    
C19   C21   A    
Cu1   O4    S    
C9    H9    S    
C12   O2    A    
C10   H10   S    
C3    C52   A    
C22   H1    S    
Cu1   O8    S    
C29   C35   S    
C31   C38   T    
C40   H34   S    
C28   C30   S    
C33   H33   S    
C37   C39   S    
C16   O5    A    
C14   C22   A    
C20   C26   A    
C45   C50   A    
C27   C37   S    
C36   C38   S    
C11   C14   A    
C18   C20   A    
C2    C51   A    
C28   C36   S    
C34   C49   A    
C1    O3    A    
C28   H31   S    
C17   C32   S    
C11   H11   S    
C8    H8    S    
