data_mof_unit_15587.cif
_audit_creation_date              2012-12-11T15:59:48-0500
_audit_creation_method            fapswitch 2.2
_symmetry_space_group_name_H-M    P1
_symmetry_Int_Tables_number       1
_space_group_crystal_system       triclinic
_cell_length_a                    10.702189
_cell_length_b                    10.733104
_cell_length_c                    17.053175
_cell_angle_alpha                 99.838891
_cell_angle_beta                  99.717123
_cell_angle_gamma                 60.247206
_cell_volume                      1667.52357372

loop_
_atom_site_label
_atom_site_type_symbol
_atom_type_description
_atom_site_fract_x
_atom_site_fract_y
_atom_site_fract_z
_atom_type_partial_charge
C1    C     C_R   0.356514 0.768916 0.397734 0.538657
C2    C     C_R   0.875458 0.321317 0.340998 0.001497
C3    C     C_R   0.358196 0.813771 0.156771 0.004909
C4    C     C_R   0.398563 0.367742 0.353811 0.568882
C5    C     C_R   0.450680 0.847800 0.215666 0.023058
C6    C     C_R   0.436019 0.853745 0.297221 0.015642
C7    C     C_R   0.286976 0.736183 0.256318 -0.138183
C8    C     C_R   0.288572 0.745552 0.177172 -0.142676
C9    C     C_R   0.555288 0.877990 0.196052 -0.088444
C10   C     C_R   0.630494 0.928529 0.254933 -0.132502
C11   C     C_R   0.608500 0.944587 0.334704 -0.093731
C12   C     C_R   0.932557 0.169048 0.215333 0.028558
C13   C     C_R   0.509915 0.910538 0.355955 -0.079903
C14   C     C_R   0.350387 0.799400 0.317058 0.011662
C15   C     C_R   0.290645 0.265169 0.796516 -0.038541
C16   C     C_R   0.784385 0.373020 0.407032 0.541196
C17   C     C_R   0.420332 0.169513 0.760988 0.036340
C18   C     C_R   0.469257 0.224040 0.711711 0.026010
C19   C     C_R   0.227738 0.437804 0.702881 -0.008758
C20   C     C_R   0.193032 0.394081 0.764452 -0.113274
C21   C     C_R   0.508100 0.024420 0.778076 -0.079335
C22   C     C_R   0.649987 0.944275 0.758316 -0.093180
C23   C     C_R   0.914580 0.186143 0.297757 0.023349
C24   C     C_R   0.707269 0.008292 0.722134 -0.097703
C25   C     C_R   0.618243 0.147000 0.699457 -0.091978
C26   C     C_R   0.367694 0.351363 0.675070 -0.044213
C27   C     C_1   0.819223 0.341642 0.708837 -0.051380
C28   C     C_R   0.381842 0.713999 0.631276 0.529263
C29   C     C_1   0.845894 0.313534 0.776563 -0.055126
C30   C     C_1   0.359254 0.763289 0.713617 -0.067581
C31   C     C_1   0.326703 0.810218 0.780715 -0.064400
C32   C     C_R   0.960543 0.280398 0.099864 0.546888
C33   C     C_R   0.296279 0.268078 0.124496 0.549155
C34   C     C_R   0.899346 0.421495 0.312011 -0.133351
C35   C     C_R   0.299177 0.886318 0.083776 0.537352
C36   C     C_R   0.886254 0.297519 0.858959 0.558269
C37   C     C_R   0.276257 0.248182 0.877265 0.554772
C38   C     C_R   0.281562 0.880260 0.857857 0.543713
C39   C     C_R   0.402787 0.373843 0.600523 0.515452
C40   C     C_R   0.774167 0.380188 0.629609 0.543422
C41   C     C_1   0.354207 0.341195 0.273298 -0.038387
C42   C     C_1   0.323184 0.311533 0.205135 -0.041226
C43   C     C_R   0.937531 0.282884 0.183202 -0.005482
C44   C     C_2   0.118453 0.579275 0.674687 0.238889
C45   C     C_R   0.932651 0.400931 0.234908 -0.160555
C46   C     C_R   0.941290 0.040560 0.170626 -0.079591
C47   C     C_R   0.951708 0.929379 0.207882 -0.150500
C48   C     C_R   0.954062 0.941309 0.290260 -0.129393
C49   C     C_R   0.933573 0.069323 0.334978 -0.083618
Cr1   Cr    Cr6+3 0.608100 0.610860 0.522250 1.049766
Cr2   Cr    Cr6+3 0.288890 0.599990 0.488420 1.008540
Cr3   Cr    Cr6+3 0.603040 0.289190 0.489390 0.986162
Cr4   Cr    Cr6+3 0.053960 0.052250 0.967380 1.009108
Cr5   Cr    Cr6+3 0.059890 0.373160 0.992710 1.011831
Cr6   Cr    Cr6+3 0.373370 0.061690 0.991710 0.998381
H1    H     H_    0.881511 0.522414 0.346738 0.152078
H2    H     H_    0.937465 0.019814 0.107031 0.178893
H3    H     H_    0.946179 0.483422 0.214521 0.137882
H4    H     H_    0.960206 0.831984 0.172545 0.104276
H5    H     H_    0.966929 0.852783 0.319173 0.120000
H6    H     H_    0.935219 0.075412 0.399107 0.132274
H7    H     H_    0.232387 0.681306 0.269792 0.138421
H8    H     H_    0.584857 0.858067 0.135903 0.146065
H9    H     H_    0.225746 0.709289 0.132219 0.141105
H10   H     H_    0.151075 0.647894 0.654892 0.148364
H11   H     H_    0.704311 0.957098 0.237908 0.134645
H12   H     H_    0.668412 0.983117 0.380283 0.136707
H13   H     H_    0.492432 0.929837 0.418463 0.142504
H14   H     H_    0.468683 0.973075 0.807928 0.150142
H15   H     H_    0.092081 0.465097 0.790639 0.178644
H16   H     H_    0.716655 0.834577 0.773652 0.149413
H17   H     H_    0.819629 0.949740 0.710098 0.150228
H18   H     H_    0.666996 0.192553 0.671920 0.149816
O1    O     O_R   0.749810 0.499790 0.438040 -0.507878
O2    O     O_R   0.411730 0.181020 0.091530 -0.493869
O3    O     O_R   0.365010 0.944360 0.063320 -0.527666
O4    O     O_R   0.477660 0.726260 0.439290 -0.499246
O5    O     O_R   0.159380 0.906670 0.876210 -0.495075
O6    O     O_R   0.930820 0.177420 0.886730 -0.483499
O7    O     O_R   0.910360 0.395420 0.895720 -0.515368
O8    O     O_R   0.186010 0.361730 0.919870 -0.489943
O9    O     O_R   0.400000 0.173010 0.914630 -0.500353
O10   O     O_R   0.354140 0.936940 0.899340 -0.534535
O11   O     O_3   0.162410 0.162370 0.983930 -0.300463
O12   O     O_R   0.298970 0.468800 0.557390 -0.504574
O13   O     O_R   0.260150 0.743000 0.412270 -0.528922
O14   O     O_R   0.297740 0.466550 0.394720 -0.492633
O15   O     O_R   0.488080 0.253500 0.386430 -0.505564
O16   O     O_R   0.722670 0.303800 0.421940 -0.519981
O17   O     O_R   0.751130 0.502220 0.613520 -0.464202
O18   O     O_R   0.478890 0.728510 0.601960 -0.472256
O19   O     O_R   0.261470 0.745430 0.587750 -0.526467
O20   O     O_2   0.989328 0.622549 0.675446 -0.521315
O21   O     O_R   0.489400 0.255930 0.561910 -0.500755
O22   O     O_R   0.723890 0.306050 0.584610 -0.543852
O23   O     O_3   0.500010 0.500010 0.500020 -0.293605
O24   O     O_R   0.171100 0.914680 0.053100 -0.537073
O25   O     O_R   0.941680 0.184840 0.050710 -0.509464
O26   O     O_R   0.922080 0.403420 0.072610 -0.514039
O27   O     O_R   0.196880 0.369150 0.083850 -0.506574

loop_
_geom_bond_atom_site_label_1
_geom_bond_atom_site_label_2
_ccdc_geom_bond_type
C34   H1    S    
C38   O10   A    
C27   C29   T    
C1    O4    A    
C41   C42   T    
C19   C20   A    
C18   C26   A    
C20   H15   S    
Cr2   O12   S    
Cr5   O11   S    
C44   H10   S    
C7    C8    A    
C7    H7    S    
C4    O14   A    
C29   C36   S    
Cr4   O11   S    
C16   O1    A    
C33   C42   S    
Cr4   O6    S    
C12   C43   A    
Cr1   O1    S    
C30   C31   T    
C26   C39   S    
C23   C49   A    
C4    C41   S    
Cr3   O22   S    
C19   C26   A    
C15   C37   S    
C44   O20   D    
Cr1   O17   S    
C7    C14   A    
C11   H12   S    
Cr3   O21   S    
C2    C16   S    
C9    C10   A    
Cr2   O23   S    
Cr6   O2    S    
C2    C34   A    
C16   O16   A    
C21   C22   A    
C37   O8    A    
Cr3   O16   S    
C18   C25   A    
Cr2   O13   S    
C33   O2    A    
C48   H5    S    
Cr5   O7    S    
C10   H11   S    
C15   C20   A    
C45   H3    S    
C35   O3    A    
C49   H6    S    
Cr3   O15   S    
C24   C25   A    
C12   C46   A    
C3    C8    A    
C36   O7    A    
Cr2   O14   S    
C38   O5    A    
Cr4   O24   S    
C17   C21   A    
C21   H14   S    
C39   O21   A    
C5    C9    A    
Cr2   O19   S    
C6    C14   A    
C47   C48   A    
C12   C23   A    
C3    C35   S    
C27   C40   S    
C17   C18   A    
C28   O19   A    
C34   C45   A    
Cr6   O9    S    
C43   C45   A    
C8    H9    S    
Cr6   O3    S    
C48   C49   A    
C46   H2    S    
C22   C24   A    
Cr5   O26   S    
C39   O12   A    
C40   O22   A    
Cr6   O10   S    
Cr1   O4    S    
C22   H16   S    
C19   C44   S    
C24   H17   S    
C1    O13   A    
C15   C17   A    
C46   C47   A    
C9    H8    S    
C3    C5    A    
C36   O6    A    
C32   O26   A    
C4    O15   A    
Cr4   O25   S    
C31   C38   S    
C33   O27   A    
C28   C30   S    
Cr4   O5    S    
C6    C13   A    
C11   C13   A    
Cr1   O23   S    
C5    C6    A    
Cr5   O27   S    
C32   C43   S    
C32   O25   A    
Cr3   O23   S    
C28   O18   A    
C25   H18   S    
C37   O9    A    
C10   C11   A    
C47   H4    S    
Cr1   O18   S    
C2    C23   A    
C1    C14   S    
C40   O17   A    
Cr6   O11   S    
C35   O24   A    
Cr5   O8    S    
C13   H13   S    
