data_mof_unit_67679.cif
_audit_creation_date              2012-12-10T19:48:29-0500
_audit_creation_method            fapswitch 2.2
_symmetry_space_group_name_H-M    P1
_symmetry_Int_Tables_number       1
_space_group_crystal_system       triclinic
_cell_length_a                    11.041496
_cell_length_b                    10.661186
_cell_length_c                    9.611026
_cell_angle_alpha                 91.01313
_cell_angle_beta                  86.753258
_cell_angle_gamma                 87.954261
_cell_volume                      1128.61017044

loop_
_atom_site_label
_atom_site_type_symbol
_atom_type_description
_atom_site_fract_x
_atom_site_fract_y
_atom_site_fract_z
_atom_type_partial_charge
C1    C     C_R   0.500236 0.260080 0.499530 0.803588
C2    C     C_R   0.499031 0.740029 0.500516 0.837202
C3    C     C_R   0.873417 0.520005 0.493266 -0.124544
C4    C     C_R   0.127209 0.475311 0.507371 -0.163214
C5    C     C_R   0.934210 0.563469 0.610337 0.012308
C6    C     C_R   0.066271 0.430448 0.391049 0.010178
C7    C     C_3   0.475822 0.043039 0.629710 0.245676
C8    C     C_3   0.522155 0.957397 0.370360 0.250209
C9    C     C_3   0.584020 0.955137 0.581943 -0.200674
C10   C     C_3   0.413926 0.045332 0.418151 -0.197216
C11   C     C_3   0.498354 0.877350 0.499790 -0.089552
C12   C     C_3   0.499665 0.122981 0.500321 -0.081716
C13   C     C_3   0.389764 0.963408 0.548509 -0.171113
C14   C     C_3   0.608124 0.037066 0.451613 -0.195134
C15   C     C_3   0.454098 0.605359 0.056393 -0.130766
C16   C     C_3   0.545921 0.394657 0.943615 -0.132679
C17   C     C_3   0.392882 0.514723 0.959060 0.243467
C18   C     C_3   0.607098 0.485281 0.040940 0.244465
C19   C     C_3   0.562080 0.588806 0.948576 0.243774
C20   C     C_3   0.437945 0.411194 0.051459 0.243941
C21   C     C_R   0.262694 0.488968 0.502704 0.809134
C22   C     C_R   0.737553 0.509783 0.497296 0.848114
C23   C     C_R   0.124351 0.203276 0.081596 -0.103444
C24   C     C_R   0.878762 0.792952 0.917587 -0.107409
C25   C     C_R   0.106229 0.314166 0.161085 -0.165975
C26   C     C_R   0.897141 0.681639 0.839509 -0.187459
C27   C     C_R   0.107430 0.313868 0.307396 0.005260
C28   C     C_R   0.893349 0.680240 0.693573 0.062802
C29   C     C_R   0.125989 0.195596 0.371170 0.074402
C30   C     C_R   0.870795 0.796395 0.627663 0.081757
C31   C     C_R   0.130921 0.083337 0.290125 0.197938
C32   C     C_R   0.866522 0.910777 0.707405 0.140169
C33   C     C_R   0.135435 0.087989 0.144816 0.189215
C34   C     C_R   0.864916 0.907261 0.853055 0.222649
C35   C     C_R   0.945595 0.473575 0.377020 0.135264
C36   C     C_R   0.055045 0.520934 0.623862 0.130306
Cu1   Cu    Cu3+1 0.500030 0.499990 0.643150 0.989668
Cu2   Cu    Cu3+1 0.499970 0.500010 0.356850 0.992400
H1    H     H_    0.409150 0.690978 0.105548 0.191997
H2    H     H_    0.590808 0.308988 0.894483 0.192491
H3    H     H_    0.130384 0.205483 0.969577 0.231503
H4    H     H_    0.875529 0.791798 0.029694 0.227816
H5    H     H_    0.097777 0.400819 0.106736 0.210791
H6    H     H_    0.908230 0.595895 0.894865 0.211006
H7    H     H_    0.644851 0.913200 0.656502 0.177913
H8    H     H_    0.352991 0.087270 0.343656 0.172564
H9    H     H_    0.303378 0.932047 0.598213 0.209286
H10   H     H_    0.694089 0.069883 0.402281 0.191342
N1    N     N_3   0.500090 0.499970 0.858290 -0.214696
N2    N     N_3   0.499910 0.500030 0.141710 -0.214752
O1    O     O_R   0.500060 0.316850 0.620870 -0.543781
O2    O     O_R   0.499940 0.683150 0.379130 -0.540815
O3    O     O_R   0.500000 0.316860 0.379090 -0.614432
O4    O     O_R   0.500000 0.683140 0.620910 -0.613005
O5    O     O_R   0.319670 0.500010 0.620890 -0.537018
O6    O     O_R   0.680330 0.499990 0.379110 -0.534574
O7    O     O_R   0.319620 0.500010 0.379110 -0.587693
O8    O     O_R   0.680380 0.499990 0.620890 -0.593997
I1    I     I_    0.165507 0.924980 0.014195 -0.315336
I2    I     I_    0.835976 0.070424 0.984110 -0.314636
N3    N     N_3   0.272236 0.542854 0.914754 -0.500992
H11   H     H_    0.275642 0.626660 0.860066 0.251305
H12   H     H_    0.216589 0.562428 0.004645 0.230881
N4    N     N_3   0.727769 0.457355 0.085186 -0.499262
H13   H     H_    0.724542 0.373423 0.139658 0.249254
H14   H     H_    0.783409 0.438053 0.995225 0.230496
N5    N     N_3   0.626513 0.694179 0.891568 -0.545503
H15   H     H_    0.561791 0.764591 0.871972 0.249471
H16   H     H_    0.664865 0.665873 0.794593 0.254041
N6    N     N_3   0.374037 0.305623 0.108701 -0.547852
H17   H     H_    0.439009 0.235265 0.127647 0.249822
H18   H     H_    0.336296 0.333690 0.206043 0.252259
N7    N     N_3   0.142771 0.186729 0.516807 -0.522512
H19   H     H_    0.221805 0.232385 0.538734 0.217674
H20   H     H_    0.069561 0.233572 0.569348 0.288181
N8    N     N_3   0.848866 0.795517 0.482100 -0.575224
H21   H     H_    0.929772 0.767029 0.429119 0.286679
H22   H     H_    0.825734 0.884246 0.446530 0.266435
I3    I     I_    0.135760 0.905790 0.385702 -0.362692
I4    I     I_    0.863340 0.090951 0.615518 -0.374470
I5    I     I_    0.936573 0.592428 0.206110 -0.400865
I6    I     I_    0.065966 0.402681 0.794955 -0.415329
I7    I     I_    0.432681 0.095526 0.840480 -0.317673
I8    I     I_    0.565582 0.905411 0.159461 -0.319095

loop_
_geom_bond_atom_site_label_1
_geom_bond_atom_site_label_2
_ccdc_geom_bond_type
C7    I7    S    
C4    C36   A    
C9    H7    S    
C27   C29   A    
C24   H4    S    
N7    H19   S    
C25   H5    S    
C35   I5    S    
C26   H6    S    
C15   C19   S    
N8    H22   S    
Cu1   O1    S    
C29   N7    S    
C5    C28   S    
C5    C36   A    
C17   C20   S    
Cu1   N1    S    
C6    C35   A    
C15   C17   S    
C18   C19   S    
C15   N2    S    
N3    H12   S    
C1    O3    A    
C20   N2    S    
C17   N3    S    
C36   I6    S    
C23   C33   A    
C10   H8    S    
C31   C33   A    
C19   N5    S    
N6    H17   S    
Cu1   O8    S    
C33   I1    S    
C34   I2    S    
N7    H20   S    
C20   N6    S    
C1    C12   S    
C2    C11   S    
C10   C12   S    
C7    C12   S    
N5    H15   S    
C16   N1    S    
C4    C6    A    
C2    O4    A    
C17   N1    S    
C21   O5    A    
C22   O6    A    
C24   C34   A    
N5    H16   S    
N4    H14   S    
C9    C14   S    
C21   O7    A    
Cu1   Cu2   S    
C32   I4    S    
Cu2   O7    S    
C30   N8    S    
C19   N1    S    
C6    C27   S    
C3    C35   A    
C16   C20   S    
Cu2   O6    S    
N8    H21   S    
C9    C11   S    
C15   H1    S    
C2    O2    A    
C16   H2    S    
Cu1   O4    S    
C16   C18   S    
C12   C14   S    
C18   N2    S    
C13   H9    S    
C7    C9    S    
C8    C14   S    
C1    O1    A    
C8    I8    S    
C24   C26   A    
C3    C5    A    
C10   C13   S    
C22   O8    A    
C14   H10   S    
C31   I3    S    
Cu2   N2    S    
C25   C27   A    
C26   C28   A    
C23   H3    S    
N4    H13   S    
C28   C30   A    
C29   C31   A    
C30   C32   A    
C4    C21   S    
C11   C13   S    
C18   N4    S    
Cu2   O3    S    
C8    C11   S    
C23   C25   A    
N3    H11   S    
Cu1   O5    S    
C7    C13   S    
Cu2   O2    S    
C8    C10   S    
C3    C22   S    
N6    H18   S    
C32   C34   A    
