data_mof_unit_32027.cif
_audit_creation_date              2012-12-11T14:21:06-0500
_audit_creation_method            fapswitch 2.2
_symmetry_space_group_name_H-M    P1
_symmetry_Int_Tables_number       1
_space_group_crystal_system       triclinic
_cell_length_a                    22.248318
_cell_length_b                    7.285293
_cell_length_c                    15.878412
_cell_angle_alpha                 89.948423
_cell_angle_beta                  110.958918
_cell_angle_gamma                 89.934539
_cell_volume                      2403.37592321

loop_
_atom_site_label
_atom_site_type_symbol
_atom_type_description
_atom_site_fract_x
_atom_site_fract_y
_atom_site_fract_z
_atom_type_partial_charge
O1    O     O_R   0.584770 0.505770 0.002090 -0.541494
O2    O     O_R   0.415230 0.005770 0.997910 -0.542555
O3    O     O_R   0.467060 0.173340 0.861950 -0.533644
O4    O     O_R   0.532940 0.673340 0.138050 -0.533287
C1    C     C_R   0.454510 0.345181 0.827683 0.726929
C2    C     C_R   0.545477 0.845004 0.172397 0.729895
O5    O     O_R   0.587510 0.175890 0.993210 -0.536661
O6    O     O_R   0.412490 0.675890 0.006790 -0.537788
O7    O     O_R   0.536540 0.008150 0.130100 -0.537254
O8    O     O_R   0.463460 0.508150 0.869900 -0.538156
C3    C     C_R   0.612340 0.342587 0.998528 0.699148
C4    C     C_R   0.387572 0.842732 0.001178 0.697657
O9    O     O_3   0.483140 0.340040 0.044760 -0.377913
O10   O     O_3   0.516860 0.840040 0.955240 -0.377502
V1    V     V_3+5 0.503130 0.064190 0.991700 1.516026
V2    V     V_3+5 0.496870 0.564190 0.008300 1.514694
C5    C     C_2   0.209148 0.764595 0.969422 0.400690
C6    C     C_2   0.790098 0.262043 0.028745 0.378918
C7    C     C_2   0.178672 0.907005 0.990299 0.202094
C8    C     C_2   0.821251 0.405625 0.009483 0.176896
C9    C     C_2   0.270409 0.797296 0.951787 -0.212155
C10   C     C_2   0.729220 0.293464 0.046677 -0.155522
C11   C     C_2   0.326786 0.838700 0.017642 0.027901
C12   C     C_2   0.672907 0.338541 0.981517 0.010431
H1    H     H_    0.268540 0.788749 0.882602 0.094818
H2    H     H_    0.731112 0.278599 0.115654 0.094317
C13   C     C_R   0.927048 0.876607 0.726792 -0.216413
C14   C     C_R   0.073196 0.377109 0.273726 -0.214799
C15   C     C_R   0.574021 0.856038 0.270931 -0.113130
C16   C     C_R   0.425836 0.356395 0.729291 -0.112799
C17   C     C_R   0.940827 0.826054 0.583119 0.262950
C18   C     C_R   0.059881 0.331748 0.418046 0.267856
C19   C     C_R   0.967249 0.859386 0.676913 0.073521
C20   C     C_R   0.033753 0.373352 0.325174 0.063214
C21   C     C_R   0.860128 0.857923 0.683796 0.356846
C22   C     C_R   0.139989 0.351683 0.316166 0.362311
C23   C     C_R   0.831785 0.815990 0.590195 -0.042201
C24   C     C_R   0.168505 0.312001 0.410203 -0.044424
C25   C     C_R   0.872342 0.816646 0.537856 -0.079940
C26   C     C_R   0.128092 0.314738 0.462808 -0.077775
C27   C     C_R   0.763272 0.792669 0.545889 -0.007857
C28   C     C_R   0.237044 0.288412 0.454604 -0.006632
C29   C     C_R   0.734922 0.793088 0.451011 0.012202
C30   C     C_R   0.265357 0.288994 0.549509 0.015177
C31   C     C_R   0.775377 0.800220 0.401353 -0.172226
C32   C     C_R   0.224897 0.294939 0.599222 -0.173242
C33   C     C_R   0.841778 0.816126 0.442441 0.257952
C34   C     C_R   0.158518 0.311528 0.558237 0.252098
C35   C     C_R   0.721103 0.772856 0.592942 0.203504
C36   C     C_R   0.279334 0.269293 0.407664 0.200072
C37   C     C_R   0.657970 0.837118 0.555605 0.175880
C38   C     C_R   0.342226 0.335044 0.444938 0.174240
C39   C     C_R   0.628379 0.853070 0.460833 -0.061825
C40   C     C_R   0.371679 0.351323 0.539603 -0.059224
C41   C     C_R   0.666545 0.806684 0.408352 0.037977
C42   C     C_R   0.333671 0.303919 0.592127 0.038222
C43   C     C_R   0.563570 0.913081 0.415057 0.233417
C44   C     C_R   0.436199 0.413166 0.585199 0.233561
C45   C     C_R   0.541953 0.941964 0.321517 0.140546
C46   C     C_R   0.457527 0.443315 0.678528 0.139404
C47   C     C_R   0.635534 0.785432 0.314513 -0.214174
C48   C     C_R   0.364743 0.283558 0.685975 -0.215188
H3    H     H_    0.659481 0.722120 0.273497 0.121504
H4    H     H_    0.341145 0.219268 0.727181 0.119521
H5    H     H_    0.755459 0.812608 0.328899 0.140048
H6    H     H_    0.244735 0.305951 0.671704 0.135565
O11   O     O_R   0.036450 0.233070 0.130130 -0.537565
O12   O     O_R   0.963550 0.733070 0.869870 -0.532497
O13   O     O_R   0.912470 0.560570 0.006790 -0.543945
O14   O     O_R   0.087530 0.060570 0.993210 -0.550175
C49   C     C_R   0.887213 0.394206 0.002864 0.640962
C50   C     C_R   0.112738 0.894257 0.996997 0.666820
O15   O     O_R   0.032920 0.562940 0.138050 -0.543618
O16   O     O_R   0.967080 0.062940 0.861950 -0.544910
O17   O     O_R   0.084790 0.730500 0.002090 -0.526818
O18   O     O_R   0.915210 0.230500 0.997910 -0.540662
C51   C     C_R   0.045176 0.393247 0.173592 0.787590
C52   C     C_R   0.954518 0.893319 0.826611 0.801196
O19   O     O_3   0.016820 0.396170 0.955260 -0.393334
O20   O     O_3   0.983180 0.896170 0.044740 -0.398145
V3    V     V_3+5 0.996880 0.672090 0.008300 1.451056
V4    V     V_3+5 0.003120 0.172090 0.991700 1.437427
O21   O     O_3   0.184508 0.590623 0.968370 -0.584048
C53   C     C_3   0.180818 0.495009 0.889842 0.029897
H7    H     H_    0.225075 0.411429 0.903256 0.164730
H8    H     H_    0.174835 0.586541 0.831165 0.162690
C54   C     C_3   0.122725 0.369639 0.865616 -0.458628
H9    H     H_    0.078439 0.444220 0.824144 0.215464
H10   H     H_    0.130054 0.247208 0.829282 0.217573
H11   H     H_    0.116333 0.323095 0.927656 0.254717
O22   O     O_3   0.814692 0.086781 0.035993 -0.583059
C55   C     C_3   0.856618 0.059956 0.125399 0.035147
H12   H     H_    0.832505 0.091160 0.174165 0.168184
H13   H     H_    0.900061 0.146185 0.140162 0.163093
C56   C     C_3   0.879269 0.863267 0.136932 -0.493727
H14   H     H_    0.926155 0.851429 0.193494 0.208401
H15   H     H_    0.842905 0.774847 0.149748 0.248471
H16   H     H_    0.886166 0.818727 0.075101 0.259076
I1    I     I_    0.068805 0.888373 0.747101 -0.364221
I2    I     I_    0.934802 0.447693 0.261865 -0.386117
O23   O     O_3   0.822409 0.889666 0.734490 -0.561094
C57   C     C_3   0.812033 0.080148 0.737041 0.063169
H17   H     H_    0.769549 0.121469 0.677674 0.183456
H18   H     H_    0.853955 0.165824 0.738354 0.132717
C58   C     C_3   0.799313 0.119055 0.822214 -0.583534
H19   H     H_    0.837907 0.056442 0.879978 0.229926
H20   H     H_    0.753396 0.055080 0.817585 0.249617
H21   H     H_    0.797483 0.268835 0.832364 0.179552
O24   O     O_3   0.177652 0.381549 0.265204 -0.561361
C59   C     C_3   0.188800 0.571829 0.263013 0.061254
H22   H     H_    0.231532 0.611467 0.322239 0.183977
H23   H     H_    0.147362 0.659317 0.262285 0.132642
C60   C     C_3   0.201250 0.611303 0.177728 -0.586599
H24   H     H_    0.246721 0.545003 0.181481 0.251535
H25   H     H_    0.203855 0.761095 0.168420 0.179328
H26   H     H_    0.161882 0.552114 0.119982 0.231986
I3    I     I_    0.735743 0.547507 0.681561 -0.370752
I4    I     I_    0.266375 0.039811 0.322215 -0.371936
I5    I     I_    0.487712 0.912827 0.468618 -0.151469
I6    I     I_    0.512371 0.412454 0.532221 -0.151951
O25   O     O_3   0.205092 0.080074 0.989886 -0.574031
C61   C     C_3   0.224918 0.158909 0.076817 0.106212
H27   H     H_    0.187502 0.255059 0.081119 0.168047
H28   H     H_    0.233204 0.055526 0.130966 0.154872
C62   C     C_3   0.287630 0.263848 0.095131 -0.578824
H29   H     H_    0.278707 0.398757 0.061109 0.225857
H30   H     H_    0.311337 0.286394 0.168499 0.241959
H31   H     H_    0.321195 0.186555 0.071074 0.238745
O26   O     O_3   0.795633 0.578267 0.013651 -0.570784
C63   C     C_3   0.773890 0.664451 0.928384 0.115766
H32   H     H_    0.763087 0.566053 0.871868 0.157869
H33   H     H_    0.811153 0.760621 0.923752 0.166890
C64   C     C_3   0.712681 0.772392 0.917017 -0.553349
H34   H     H_    0.692788 0.831809 0.848426 0.224910
H35   H     H_    0.722377 0.883520 0.967560 0.244945
H36   H     H_    0.675405 0.682603 0.926020 0.231446
I7    I     I_    0.340654 0.793950 0.154196 -0.355074
I8    I     I_    0.658541 0.298804 0.844458 -0.351980
I9    I     I_    0.880256 0.907450 0.346979 -0.365341
I10   I     I_    0.119468 0.396997 0.654373 -0.367594
I11   I     I_    0.466866 0.134603 0.259292 -0.216342
I12   I     I_    0.531543 0.638660 0.740016 -0.211557
I13   I     I_    0.627264 0.965872 0.652293 -0.232093
I14   I     I_    0.372645 0.467603 0.348933 -0.237999
I15   I     I_    0.009339 0.757670 0.521288 -0.190729
I16   I     I_    0.990709 0.258753 0.477967 -0.195525

loop_
_geom_bond_atom_site_label_1
_geom_bond_atom_site_label_2
_ccdc_geom_bond_type
C37   C39   A    
C54   H9    S    
O23   C57   S    
C56   H14   S    
O11   C51   A    
C53   C54   S    
C21   O23   S    
C8    O26   S    
C13   C52   S    
O2    C4    A    
C2    O7    A    
C56   H16   S    
C13   C19   A    
O5    C3    A    
C58   H20   S    
C4    C11   S    
C38   I14   S    
O12   V3    S    
C10   C12   D    
C21   C23   A    
C53   H8    S    
C32   H6    S    
C49   O18   A    
C43   C45   A    
C18   I16   S    
C44   C46   A    
C3    C12   S    
C57   C58   S    
C47   H3    S    
C27   C35   A    
O13   C49   A    
C59   H22   S    
C48   H4    S    
C46   I12   S    
C35   I3    S    
C15   C45   A    
C38   C40   A    
C35   C37   A    
O1    C3    A    
C62   H31   S    
C36   C38   A    
C17   C19   A    
C8    C49   S    
O16   C52   A    
C43   I5    S    
C60   H26   S    
C31   C33   A    
C14   C20   A    
O6    V2    S    
C36   I4    S    
C23   C27   A    
C27   C29   A    
C7    C50   S    
C28   C30   A    
O16   V4    S    
C50   O17   A    
O15   V3    S    
C30   C32   A    
C32   C34   A    
C39   C41   A    
O12   C52   A    
C58   H21   S    
C15   C47   A    
C34   I10   S    
C53   H7    S    
O4    C2    A    
O18   V4    S    
O22   C55   S    
C39   C43   A    
O17   V3    S    
C12   I8    S    
C55   C56   S    
C5    C9    S    
C16   C46   A    
C5    O21   S    
C18   C20   A    
O4    V2    S    
C63   H33   S    
C14   C51   S    
C62   H30   S    
C64   H36   S    
C30   C42   A    
C20   I2    S    
O21   C53   S    
O6    C4    A    
C44   I6    S    
O1    V2    S    
C57   H18   S    
O2    V1    S    
C29   C31   A    
C59   C60   S    
C14   C22   A    
O25   C61   S    
C28   C36   A    
C29   C41   A    
C16   C48   A    
C31   H5    S    
C64   H34   S    
C42   C48   A    
O9    V2    S    
C63   C64   S    
C6    O22   S    
C61   H28   S    
C22   C24   A    
O3    V1    S    
C25   C33   A    
C60   H24   S    
C40   C44   A    
C26   C34   A    
C9    H1    S    
C7    O25   S    
C6    C10   S    
C11   I7    S    
C1    C16   S    
O20   V3    S    
O3    C1    A    
O19   V4    S    
C56   H15   S    
C40   C42   A    
C24   C28   A    
C37   I13   S    
C58   H19   S    
C13   C21   A    
C61   C62   S    
C9    C11   D    
C63   H32   S    
O26   C63   S    
C1    O8    A    
C23   C25   A    
O8    V2    S    
O24   C59   S    
C24   C26   A    
C55   H13   S    
C62   H29   S    
C41   C47   A    
O5    V1    S    
C55   H12   S    
C5    C7    D    
C17   C25   A    
C6    C8    D    
C18   C26   A    
O7    V1    S    
C57   H17   S    
O14   V4    S    
C59   H23   S    
O13   V3    S    
C17   I15   S    
C2    C15   S    
C45   I11   S    
O11   V4    S    
C10   H2    S    
C54   H11   S    
C33   I9    S    
C22   O24   S    
C64   H35   S    
C54   H10   S    
O15   C51   A    
O10   V1    S    
O14   C50   A    
C19   I1    S    
C61   H27   S    
C60   H25   S    
