data_mof_unit_66287.cif
_audit_creation_date              2012-12-10T21:36:36-0500
_audit_creation_method            fapswitch 2.2
_symmetry_space_group_name_H-M    P1
_symmetry_Int_Tables_number       1
_space_group_crystal_system       triclinic
_cell_length_a                    10.527087
_cell_length_b                    16.111843
_cell_length_c                    16.555111
_cell_angle_alpha                 86.679675
_cell_angle_beta                  90.128766
_cell_angle_gamma                 92.791732
_cell_volume                      2799.88422258

loop_
_atom_site_label
_atom_site_type_symbol
_atom_type_description
_atom_site_fract_x
_atom_site_fract_y
_atom_site_fract_z
_atom_type_partial_charge
C1    C     C_R   0.502388 0.487994 0.653526 0.954976
C2    C     C_R   0.561634 0.238743 0.540758 -0.130808
C3    C     C_R   0.448321 0.848653 0.452141 0.301222
C4    C     C_R   0.551629 0.151342 0.547876 0.301243
C5    C     C_R   0.534608 0.891936 0.503065 0.127021
C6    C     C_R   0.465375 0.108066 0.496926 0.127024
C7    C     C_R   0.611784 0.844946 0.556107 0.206819
C8    C     C_R   0.388239 0.155061 0.443862 0.206849
C9    C     C_R   0.603959 0.756069 0.556426 0.463052
C10   C     C_R   0.396074 0.243938 0.443545 0.463035
C11   C     C_R   0.742647 0.500281 0.499595 0.958293
C12   C     C_R   0.497635 0.512006 0.346475 0.955067
C13   C     C_R   0.257353 0.499719 0.500404 0.958314
C14   C     C_3   0.954577 0.460006 0.568514 0.105298
C15   C     C_3   0.045424 0.539993 0.431483 0.105271
C16   C     C_3   0.045698 0.538714 0.565638 -0.358646
C17   C     C_3   0.954302 0.461286 0.434360 -0.358673
C18   C     C_3   0.122958 0.499348 0.500271 -0.175204
C19   C     C_3   0.877042 0.500651 0.499726 -0.175181
C20   C     C_3   0.033160 0.422169 0.503503 0.475304
C21   C     C_3   0.966840 0.577830 0.496494 0.475305
C22   C     C_R   0.517022 0.477284 0.740620 -0.148216
C23   C     C_R   0.533172 0.458705 0.907975 0.178012
C24   C     C_R   0.483189 0.522716 0.259371 -0.148193
C25   C     C_R   0.607358 0.526993 0.780850 0.396949
C26   C     C_R   0.392900 0.473044 0.219066 0.396977
C27   C     C_R   0.619563 0.514550 0.865288 0.040720
C28   C     C_R   0.380921 0.485473 0.134613 0.040693
C29   C     C_R   0.467487 0.541257 0.091996 0.177977
C30   C     C_R   0.457203 0.401899 0.865993 0.190834
C31   C     C_R   0.543444 0.598020 0.134038 0.190829
C32   C     C_R   0.448570 0.411873 0.782464 -0.326277
C33   C     C_R   0.551846 0.588066 0.217577 -0.326389
C34   C     C_R   0.438327 0.761252 0.459264 -0.130813
H1    H     H_    0.086226 0.571004 0.617985 0.198230
H2    H     H_    0.233315 0.260176 0.391290 0.351597
H3    H     H_    0.993742 0.304686 0.506084 0.348237
H4    H     H_    0.006260 0.695313 0.493915 0.348229
H5    H     H_    0.274844 0.376015 0.228246 0.365976
H6    H     H_    0.725291 0.624083 0.771581 0.365957
H7    H     H_    0.580938 0.057448 0.623144 0.381882
H8    H     H_    0.418971 0.942534 0.376867 0.381898
H9    H     H_    0.913774 0.428996 0.382013 0.198226
H10   H     H_    0.386110 0.369681 0.750320 0.210482
H11   H     H_    0.614294 0.630222 0.249772 0.210480
H12   H     H_    0.627250 0.271858 0.579343 0.211442
H13   H     H_    0.372685 0.728132 0.420698 0.211445
H14   H     H_    0.706057 0.851569 0.656624 0.350859
H15   H     H_    0.294033 0.148447 0.343319 0.350868
H16   H     H_    0.766760 0.739846 0.608632 0.351605
I1    I     I_    0.878946 0.396178 0.675969 -0.224103
I2    I     I_    0.121059 0.603818 0.324028 -0.223966
I3    I     I_    0.218955 0.436391 0.072682 -0.189557
I4    I     I_    0.781625 0.563704 0.927069 -0.189498
I5    I     I_    0.357755 0.298287 0.924630 -0.179287
I6    I     I_    0.643219 0.701546 0.075486 -0.179211
N1    N     N_2   0.513955 0.464134 0.991648 -0.111592
N2    N     N_2   0.486789 0.535846 0.008331 -0.111608
N3    N     N_R   0.515540 0.716920 0.509720 -0.153553
N4    N     N_R   0.484460 0.283080 0.490280 -0.153558
N5    N     N_2   0.550713 0.981229 0.500967 -0.089706
N6    N     N_2   0.449264 0.018773 0.499022 -0.089722
O1    O     O_R   0.494440 0.422540 0.612660 -0.638511
O2    O     O_3   0.308475 0.112365 0.392610 -0.702745
O3    O     O_3   0.685851 0.707357 0.600900 -0.656173
O4    O     O_3   0.314224 0.292658 0.399044 -0.656220
O5    O     O_3   0.072892 0.340484 0.507590 -0.699381
O6    O     O_3   0.927109 0.659516 0.492405 -0.699386
O7    O     O_3   0.315095 0.416547 0.264164 -0.688229
O8    O     O_3   0.685000 0.583537 0.735691 -0.688167
O9    O     O_3   0.623516 0.111940 0.606904 -0.680994
O10   O     O_3   0.376393 0.888048 0.393131 -0.680993
O11   O     O_R   0.505560 0.577460 0.387340 -0.638510
O12   O     O_R   0.504420 0.561850 0.618900 -0.539032
O13   O     O_R   0.495580 0.438150 0.381100 -0.539057
O14   O     O_R   0.681060 0.430360 0.496900 -0.651227
O15   O     O_R   0.318940 0.569640 0.503100 -0.651230
O16   O     O_R   0.691040 0.569670 0.503140 -0.517209
O17   O     O_R   0.308960 0.430330 0.496860 -0.517241
O18   O     O_3   0.691582 0.887647 0.607336 -0.702728
Zn1   Zn    Zn3+2 0.493340 0.406980 0.495830 1.043139
Zn2   Zn    Zn3+2 0.506660 0.593020 0.504170 1.043153

loop_
_geom_bond_atom_site_label_1
_geom_bond_atom_site_label_2
_ccdc_geom_bond_type
C15   C18   S    
C13   O17   A    
C16   C21   S    
C33   H11   S    
C20   O5    S    
C2    C4    A    
N3    Zn2   S    
C27   I4    S    
C2    H12   S    
C11   C19   S    
H6    O8    S    
C13   C18   S    
O1    Zn1   S    
C1    O12   A    
C28   C29   A    
C19   C21   S    
C24   C26   A    
C11   O14   A    
C16   H1    S    
C2    N4    A    
C17   C20   S    
C23   N1    S    
C22   C25   A    
C31   C33   A    
C23   C27   A    
C31   I6    S    
H7    O9    S    
C1    C22   S    
H15   O2    S    
C12   O11   A    
O12   Zn2   S    
C1    O1    A    
C10   O4    S    
H5    O7    S    
C13   O15   A    
C23   C30   A    
C14   C20   S    
C4    C6    A    
O17   Zn1   S    
O13   Zn1   S    
C6    C8    A    
C3    C34   A    
C9    N3    A    
C10   N4    A    
C17   H9    S    
C11   O16   A    
N4    Zn1   S    
O16   Zn2   S    
H2    O4    S    
C14   I1    S    
H8    O10   S    
C32   H10   S    
C5    N5    S    
C15   I2    S    
C22   C32   A    
C8    O2    S    
C8    C10   A    
H4    O6    S    
C21   O6    S    
C34   N3    A    
C14   C16   S    
O11   Zn2   S    
C5    C7    A    
C15   C17   S    
C14   C19   S    
C3    C5    A    
O14   Zn1   S    
C28   I3    S    
C25   O8    S    
C25   C27   A    
C30   I5    S    
C12   C24   S    
C26   C28   A    
C24   C33   A    
C6    N6    S    
C3    O10   S    
C29   C31   A    
C30   C32   A    
H14   O18   S    
N1    N2    D    
O15   Zn2   S    
H3    O5    S    
C17   C19   S    
C18   C20   S    
N5    N6    D    
H16   O3    S    
C9    O3    S    
C7    C9    A    
C15   C21   S    
C29   N2    S    
C16   C18   S    
C12   O13   A    
C26   O7    S    
C34   H13   S    
C4    O9    S    
C7    O18   S    
