data_mof_unit_55177.cif
_audit_creation_date              2012-10-26T19:40:06-0400
_audit_creation_method            fapswitch 2.2
_symmetry_space_group_name_H-M    P1
_symmetry_Int_Tables_number       1
_space_group_crystal_system       triclinic
_cell_length_a                    14.999145
_cell_length_b                    8.875056
_cell_length_c                    7.638312
_cell_angle_alpha                 104.165701
_cell_angle_beta                  94.862855
_cell_angle_gamma                 96.030017
_cell_volume                      973.968221472

loop_
_atom_site_label
_atom_site_type_symbol
_atom_type_description
_atom_site_fract_x
_atom_site_fract_y
_atom_site_fract_z
_atom_type_partial_charge
C1    C     C_R   0.493663 0.199746 0.452080 0.553002
C2    C     C_R   0.174921 0.354316 0.460284 0.068200
C3    C     C_R   0.767177 0.507930 0.495604 -0.007147
C4    C     C_R   0.232706 0.496435 0.502608 -0.016707
C5    C     C_R   0.800786 0.368617 0.426354 -0.150881
C6    C     C_R   0.198897 0.638643 0.550148 -0.149344
C7    C     C_R   0.893260 0.365494 0.423458 0.019682
C8    C     C_R   0.106573 0.642616 0.558835 0.023213
C9    C     C_R   0.953025 0.506197 0.493691 -0.039473
C10   C     C_R   0.046651 0.501490 0.496407 -0.037944
C11   C     C_R   0.918973 0.651240 0.559681 0.050733
C12   C     C_R   0.504029 0.799793 0.545826 0.534865
C13   C     C_R   0.080668 0.355791 0.437154 0.050400
C14   C     C_R   0.926245 0.223807 0.349634 0.132775
C15   C     C_R   0.073831 0.785029 0.630026 0.133656
C16   C     C_3   0.416878 0.926853 0.259782 -0.260595
C17   C     C_3   0.380893 0.002991 0.112872 -0.317312
C18   C     C_3   0.318643 0.886040 0.961683 -0.482695
C19   C     C_3   0.588795 0.060829 0.722055 -0.255682
C20   C     C_3   0.675562 0.131318 0.662293 -0.295023
C21   C     C_3   0.748393 0.199770 0.822556 -0.430942
C22   C     C_3   0.387762 0.374506 0.945883 -0.024197
C23   C     C_R   0.019320 0.218181 0.354420 0.129378
C24   C     C_3   0.308046 0.473540 0.981613 -0.254610
C25   C     C_3   0.222075 0.375312 0.006191 -0.458278
C26   C     C_3   0.612564 0.616097 0.062359 -0.035407
C27   C     C_3   0.660591 0.756231 0.006145 -0.313326
C28   C     C_3   0.642833 0.915987 0.118718 -0.467847
C29   C     C_R   0.981020 0.790022 0.634084 0.128745
C30   C     C_2   0.480969 0.029914 0.427202 -0.031705
C31   C     C_2   0.519360 0.968422 0.562110 -0.042430
C32   C     C_R   0.329429 0.498209 0.500670 0.533771
C33   C     C_R   0.670556 0.503538 0.499254 0.524941
C34   C     C_R   0.824304 0.650786 0.550713 0.081308
Cu1   Cu    Cu3+1 0.510010 0.517380 0.684380 0.883314
Cu2   Cu    Cu3+1 0.489990 0.482620 0.315620 0.871972
H1    H     H_    0.753757 0.262436 0.373996 0.140677
H2    H     H_    0.119114 0.011950 0.643879 0.258393
H3    H     H_    0.077279 0.019102 0.350359 0.266557
H4    H     H_    0.093994 0.098057 0.169510 0.246387
H5    H     H_    0.913671 0.919873 0.825954 0.251823
H6    H     H_    0.919415 0.984458 0.631148 0.265219
H7    H     H_    0.354911 0.788189 0.896862 0.186864
H8    H     H_    0.257780 0.839638 0.014896 0.162557
H9    H     H_    0.298117 0.946739 0.857117 0.166639
H10   H     H_    0.343410 0.099407 0.171610 0.171199
H11   H     H_    0.437980 0.047795 0.047905 0.180027
H12   H     H_    0.245695 0.745787 0.584010 0.141420
H13   H     H_    0.453096 0.837173 0.179129 0.197252
H14   H     H_    0.358686 0.868378 0.310039 0.150905
H15   H     H_    0.721924 0.284819 0.931501 0.161191
H16   H     H_    0.772297 0.104707 0.877777 0.151983
H17   H     H_    0.806833 0.260993 0.776495 0.160380
H18   H     H_    0.702651 0.040553 0.562187 0.159444
H19   H     H_    0.661722 0.224726 0.596337 0.199327
H20   H     H_    0.558648 0.149605 0.820173 0.175489
H21   H     H_    0.610817 0.981360 0.802018 0.145323
H22   H     H_    0.195448 0.288104 0.876597 0.146855
H23   H     H_    0.743462 0.791757 0.462995 0.222672
H24   H     H_    0.235132 0.311580 0.111283 0.165398
H25   H     H_    0.169798 0.452627 0.047352 0.155184
H26   H     H_    0.326566 0.577886 0.097559 0.193256
H27   H     H_    0.287572 0.524195 0.869875 0.165241
H28   H     H_    0.389425 0.319959 0.801251 0.158216
H29   H     H_    0.374529 0.271876 0.001189 0.108485
H30   H     H_    0.574044 0.937964 0.078226 0.161745
H31   H     H_    0.651649 0.923403 0.265895 0.144528
H32   H     H_    0.690995 0.009983 0.094059 0.158106
H33   H     H_    0.734562 0.752513 0.026981 0.130840
H34   H     H_    0.746867 0.802162 0.688392 0.222931
H35   H     H_    0.644257 0.750597 0.863403 0.219559
H36   H     H_    0.604612 0.666279 0.203382 0.200209
H37   H     H_    0.658472 0.524641 0.050754 0.129231
H38   H     H_    0.249251 0.220953 0.579204 0.226924
H39   H     H_    0.255387 0.195811 0.355222 0.220902
H40   H     H_    0.875186 0.046911 0.129831 0.244839
H41   H     H_    0.878047 0.996910 0.330082 0.252557
H42   H     H_    0.128043 0.963948 0.844738 0.246325
N1    N     N_2   0.474890 0.456420 0.038520 -0.164122
N2    N     N_2   0.525110 0.543580 0.961480 -0.142787
N3    N     N_3   0.785476 0.794230 0.580319 -0.676471
N4    N     N_3   0.211717 0.210893 0.454346 -0.671164
N5    N     N_3   0.864386 0.084734 0.266107 -0.664168
N6    N     N_3   0.135800 0.925135 0.706846 -0.666775
N7    N     N_3   0.048307 0.074561 0.258460 -0.636216
N8    N     N_3   0.953591 0.936650 0.724958 -0.637517
O1    O     O_R   0.506510 0.286130 0.619770 -0.525244
O2    O     O_R   0.493490 0.713870 0.380230 -0.543213
O3    O     O_R   0.489600 0.256770 0.308360 -0.512608
O4    O     O_R   0.510400 0.743230 0.691640 -0.518621
O5    O     O_R   0.378710 0.514640 0.655720 -0.531988
O6    O     O_R   0.621290 0.485360 0.344280 -0.538953
O7    O     O_R   0.361800 0.485290 0.344300 -0.512039
O8    O     O_R   0.638200 0.514710 0.655700 -0.519586

loop_
_geom_bond_atom_site_label_1
_geom_bond_atom_site_label_2
_ccdc_geom_bond_type
Cu2   O3    S    
C1    O1    A    
C24   C25   S    
C5    H1    S    
C26   H36   S    
C28   H30   S    
Cu1   Cu2   S    
C19   H20   S    
C19   C31   S    
C33   O8    A    
Cu2   O2    S    
H5    N8    S    
C26   C27   S    
C6    H12   S    
C12   O4    A    
C28   H32   S    
C16   H14   S    
C22   N1    S    
C30   C31   D    
C32   O5    A    
C3    C33   S    
C16   C30   S    
Cu1   N2    S    
C26   H37   S    
C13   C23   A    
H34   N3    S    
C2    C13   A    
Cu1   O1    S    
Cu2   O7    S    
C7    C14   A    
C19   C20   S    
C16   C17   S    
C1    O3    A    
H6    N8    S    
C34   N3    S    
C9    C10   A    
C27   H33   S    
Cu2   O6    S    
C32   O7    A    
C14   N5    S    
H38   N4    S    
C20   H19   S    
H40   N5    S    
C15   C29   A    
C12   O2    A    
C17   H11   S    
C28   H31   S    
C17   H10   S    
C20   H18   S    
C33   O6    A    
C5    C7    A    
C6    C8    A    
C3    C34   A    
C10   C13   A    
C19   H21   S    
C14   C23   A    
C2    C4    A    
C22   H29   S    
C18   H8    S    
C17   C18   S    
C25   H25   S    
C16   H13   S    
C9    C11   A    
C29   N8    S    
C4    C32   S    
C4    C6    A    
C25   H24   S    
C8    C15   A    
C12   C31   S    
C22   C24   S    
C2    N4    S    
C25   H22   S    
H3    N7    S    
C18   H9    S    
C21   H15   S    
C27   H35   S    
Cu1   O8    S    
C7    C9    A    
C24   H26   S    
H4    N7    S    
H2    N6    S    
C11   C34   A    
H23   N3    S    
C3    C5    A    
Cu2   N1    S    
H39   N4    S    
C15   N6    S    
C24   H27   S    
C18   H7    S    
C21   H17   S    
C1    C30   S    
C26   N2    S    
C22   H28   S    
N1    N2    D    
Cu1   O4    S    
H42   N6    S    
C20   C21   S    
C11   C29   A    
C8    C10   A    
C23   N7    S    
C27   C28   S    
H41   N5    S    
C21   H16   S    
Cu1   O5    S    
