data_mof_unit_48253.cif
_audit_creation_date              2012-12-10T17:19:52-0500
_audit_creation_method            fapswitch 2.2
_symmetry_space_group_name_H-M    P1
_symmetry_Int_Tables_number       1
_space_group_crystal_system       triclinic
_cell_length_a                    9.60791
_cell_length_b                    10.835549
_cell_length_c                    15.496148
_cell_angle_alpha                 85.26724
_cell_angle_beta                  73.554564
_cell_angle_gamma                 90.771896
_cell_volume                      1540.83772528

loop_
_atom_site_label
_atom_site_type_symbol
_atom_type_description
_atom_site_fract_x
_atom_site_fract_y
_atom_site_fract_z
_atom_type_partial_charge
C1    C     C_R   0.003292 0.263771 0.492230 0.814215
C2    C     C_R   0.675277 0.449956 0.913075 0.066921
C3    C     C_R   0.777034 0.475582 0.960768 0.068674
C4    C     C_R   0.527367 0.420663 0.961933 -0.000510
C5    C     C_R   0.480904 0.435188 0.055847 -0.017549
C6    C     C_R   0.587355 0.448781 0.102072 0.672633
C7    C     C_R   0.732372 0.471272 0.054664 -0.222569
C8    C     C_R   0.425004 0.374403 0.921266 -0.185715
C9    C     C_R   0.280439 0.349172 0.970934 -0.120057
C10   C     C_R   0.230590 0.379220 0.060242 -0.048198
C11   C     C_R   0.329679 0.430288 0.101020 -0.074857
C12   C     C_R   0.917213 0.497385 0.672361 0.771646
C13   C     C_R   0.082884 0.362141 0.109021 0.596275
C14   C     C_R   0.032594 0.402150 0.195693 -0.335929
C15   C     C_R   0.273671 0.482930 0.182962 0.682281
C16   C     C_R   0.280029 0.127069 0.428310 0.650094
C17   C     C_R   0.405021 0.070278 0.437573 -0.167345
C18   C     C_R   0.393829 0.955305 0.486352 -0.259797
C19   C     C_R   0.259804 0.891061 0.517271 -0.128923
C20   C     C_R   0.134244 0.941724 0.499559 0.065957
C21   C     C_R   0.141158 0.068381 0.469192 -0.034288
C22   C     C_R   0.008854 0.130742 0.482340 -0.083812
C23   C     C_R   0.998924 0.737189 0.506043 0.850449
C24   C     C_R   0.877530 0.062466 0.500738 -0.186095
C25   C     C_R   0.875710 0.934515 0.509800 -0.188837
C26   C     C_R   0.002679 0.872187 0.509436 -0.071708
C27   C     C_R   0.714912 0.649151 0.369341 -0.216554
C28   C     C_R   0.691071 0.703722 0.292169 0.274163
C29   C     C_R   0.553032 0.704774 0.285019 -0.096433
C30   C     C_R   0.435763 0.656423 0.356763 0.422394
C31   C     C_R   0.458696 0.576431 0.432494 0.110225
C32   C     C_R   0.607976 0.574574 0.434739 0.105797
C33   C     C_R   0.544158 0.428589 0.561948 -0.044443
C34   C     C_R   0.082259 0.493669 0.328160 0.970610
C35   C     C_R   0.396502 0.428810 0.562097 -0.043035
C36   C     C_R   0.870344 0.489116 0.771661 -0.049523
C37   C     C_R   0.127824 0.463975 0.233019 -0.241868
C38   C     C_R   0.923379 0.503257 0.914185 -0.079334
C39   C     C_R   0.969898 0.509233 0.820312 -0.207951
C40   C     C_R   0.724288 0.459371 0.818087 -0.202699
Cu1   Cu    Cu3+1 0.140660 0.499990 0.500010 1.028066
Cu2   Cu    Cu3+1 0.859340 0.500010 0.499990 0.952565
H1    H     H_    0.810168 0.485475 0.092001 0.205931
H2    H     H_    0.775421 0.107821 0.508653 0.162780
H3    H     H_    0.510492 0.116386 0.408028 0.181678
H4    H     H_    0.489835 0.913856 0.497611 0.159002
H5    H     H_    0.256695 0.803493 0.556445 0.167360
H6    H     H_    0.773465 0.884431 0.518935 0.157620
H7    H     H_    0.574949 0.369674 0.612808 0.120121
H8    H     H_    0.820461 0.668104 0.373947 0.248027
H9    H     H_    0.536687 0.756422 0.225776 0.235246
H10   H     H_    0.317233 0.370155 0.612994 0.122115
H11   H     H_    0.919790 0.384085 0.233663 0.226082
H12   H     H_    0.206414 0.310813 0.937879 0.189407
H13   H     H_    0.001818 0.521189 0.950431 0.153812
H14   H     H_    0.083299 0.531484 0.785811 0.149778
H15   H     H_    0.649695 0.447096 0.778737 0.141395
H16   H     H_    0.455105 0.351369 0.852160 0.129325
N1    N     N_R   0.648320 0.501210 0.499140 -0.174852
N2    N     N_R   0.352470 0.501290 0.499110 -0.172409
O1    O     O_R   0.118810 0.319640 0.500010 -0.548565
O2    O     O_R   0.881240 0.319660 0.500000 -0.595384
O3    O     O_R   0.055570 0.499980 0.629840 -0.601939
O4    O     O_R   0.818000 0.500010 0.629830 -0.590413
O5    O     O_R   0.118760 0.680340 0.500000 -0.558281
O6    O     O_R   0.881190 0.680360 0.499990 -0.613351
O7    O     O_R   0.182000 0.499990 0.370170 -0.460672
O8    O     O_R   0.944430 0.500020 0.370160 -0.614912
F1    F     F_    0.988306 0.303832 0.073884 -0.657480
F2    F     F_    0.296726 0.233797 0.373308 -0.629620
Cl1   Cl    Cl    0.833927 0.781391 0.207199 -0.554886
F3    F     F_    0.356804 0.565397 0.208691 -0.621246
Cl2   Cl    Cl    0.285801 0.736248 0.339993 -0.551001
F4    F     F_    0.555035 0.428134 0.193358 -0.599602

loop_
_geom_bond_atom_site_label_1
_geom_bond_atom_site_label_2
_ccdc_geom_bond_type
C16   C21   A    
C34   C37   S    
Cu1   Cu2   S    
C19   C20   A    
Cu1   O1    S    
C4    C8    A    
C1    O2    A    
Cu1   O7    S    
C15   F3    S    
C20   C26   A    
C23   O6    A    
C28   C29   A    
C17   H3    S    
C5    C11   A    
C3    C7    A    
C38   C39   A    
C12   O4    A    
C19   H5    S    
C33   H7    S    
C18   C19   A    
C23   C26   S    
C15   C37   A    
C8    H16   S    
C11   C15   A    
C38   H13   S    
C31   C32   A    
C3    C38   A    
C8    C9    A    
C7    H1    S    
C12   C36   S    
C9    C10   A    
Cu2   O2    S    
C27   H8    S    
C1    C22   S    
C33   N1    A    
C21   C22   A    
Cu2   O8    S    
C18   H4    S    
C6    F4    S    
C36   C40   A    
C16   F2    S    
C24   C25   A    
C34   O8    A    
C30   Cl2   S    
C16   C17   A    
Cu1   O5    S    
C25   C26   A    
C35   N2    A    
C31   N2    A    
Cu2   N1    S    
C2    C4    A    
C29   C30   A    
C39   H14   S    
C30   C31   A    
C17   C18   A    
C25   H6    S    
C24   H2    S    
C22   C24   A    
C28   Cl1   S    
Cu1   O3    S    
Cu2   O4    S    
C27   C28   A    
C29   H9    S    
C12   O3    A    
C40   H15   S    
C27   C32   A    
C36   C39   A    
Cu1   N2    S    
C4    C5    A    
C10   C13   A    
C1    O1    A    
C34   O7    A    
C6    C7    A    
C23   O5    A    
C2    C3    A    
C14   C37   A    
C5    C6    A    
C13   F1    S    
C33   C35   A    
C10   C11   A    
C2    C40   A    
C14   H11   S    
C20   C21   A    
C35   H10   S    
Cu2   O6    S    
C9    H12   S    
C32   N1    A    
C13   C14   A    
