data_mof_unit_43019.cif
_audit_creation_date              2012-12-10T17:27:56-0500
_audit_creation_method            fapswitch 2.2
_symmetry_space_group_name_H-M    P1
_symmetry_Int_Tables_number       1
_space_group_crystal_system       triclinic
_cell_length_a                    10.629633
_cell_length_b                    11.999886
_cell_length_c                    12.879807
_cell_angle_alpha                 93.272763
_cell_angle_beta                  90.229745
_cell_angle_gamma                 86.49751
_cell_volume                      1637.13255772

loop_
_atom_site_label
_atom_site_type_symbol
_atom_type_description
_atom_site_fract_x
_atom_site_fract_y
_atom_site_fract_z
_atom_type_partial_charge
C1    C     C_R   0.497434 0.521952 0.700401 0.850388
C2    C     C_R   0.515645 0.638848 0.862548 -0.197206
C3    C     C_R   0.480047 0.440593 0.867466 -0.301008
C4    C     C_R   0.739450 0.500824 0.503182 0.868767
C5    C     C_R   0.487324 0.448104 0.974167 0.189838
C6    C     C_R   0.508816 0.552253 0.025724 0.187804
C7    C     C_R   0.516592 0.559711 0.132380 -0.286311
C8    C     C_R   0.481812 0.361323 0.137380 -0.204490
C9    C     C_R   0.474489 0.352886 0.029949 -0.229914
C10   C     C_R   0.383124 0.955058 0.402565 -0.382748
C11   C     C_R   0.393852 0.838452 0.411627 0.288161
C12   C     C_R   0.937158 0.461218 0.597019 0.096234
C13   C     C_R   0.550548 0.858291 0.542230 -0.094444
C14   C     C_R   0.542606 0.975728 0.535646 0.090811
C15   C     C_R   0.457693 0.024428 0.464705 0.075845
C16   C     C_R   0.502095 0.478057 0.299569 0.886459
C17   C     C_R   0.449604 0.141711 0.457881 -0.036451
C18   C     C_R   0.605739 0.161770 0.588438 0.025336
C19   C     C_R   0.617051 0.045539 0.597900 -0.321524
C20   C     C_R   0.260479 0.500017 0.502757 0.871648
C21   C     C_R   0.874916 0.423970 0.684396 -0.191803
C22   C     C_R   0.943646 0.385376 0.768977 -0.138460
C23   C     C_R   0.871537 0.502817 0.510568 -0.095075
C24   C     C_R   0.074640 0.384379 0.768581 -0.134420
C25   C     C_R   0.137360 0.421902 0.683571 -0.179052
C26   C     C_R   0.069114 0.460107 0.596568 0.093987
C27   C     C_R   0.932162 0.546704 0.428098 -0.210768
C28   C     C_R   0.060730 0.545589 0.427631 -0.213358
C29   C     C_R   0.128228 0.500649 0.509662 -0.097712
C30   C     C_R   0.501676 0.465040 0.188200 -0.053239
C31   C     C_R   0.496235 0.535077 0.811701 -0.046617
C32   C     C_R   0.521868 0.647449 0.969981 -0.227336
H1    H     H_    0.879745 0.579360 0.362873 0.151346
H2    H     H_    0.773278 0.425940 0.689067 0.143492
H3    H     H_    0.895031 0.357247 0.835455 0.138310
H4    H     H_    0.127820 0.355484 0.834754 0.136706
H5    H     H_    0.238920 0.422142 0.687611 0.147798
H6    H     H_    0.108078 0.577815 0.362216 0.153411
H7    H     H_    0.533348 0.639827 0.171749 0.160344
H8    H     H_    0.469868 0.287771 0.180487 0.159124
H9    H     H_    0.537970 0.727650 0.009245 0.137300
H10   H     H_    0.335804 0.780817 0.270494 0.156238
H11   H     H_    0.222934 0.792809 0.363219 0.164012
H12   H     H_    0.458264 0.272703 0.990705 0.137733
H13   H     H_    0.528267 0.712300 0.819471 0.159140
H14   H     H_    0.463255 0.360530 0.828005 0.160065
H15   H     H_    0.384818 0.180506 0.403674 0.124732
H16   H     H_    0.663214 0.215454 0.636478 0.131697
H17   H     H_    0.316975 0.990680 0.347462 0.145329
H18   H     H_    0.683301 0.010731 0.653289 0.144673
H19   H     H_    0.615339 0.819431 0.596388 0.133694
N1    N     N_R   0.523130 0.207800 0.519340 -0.102347
N2    N     N_R   0.476870 0.792180 0.480660 -0.097286
N3    N     N_3   0.317413 0.767803 0.348422 -0.399525
O1    O     O_R   0.506170 0.421690 0.658830 -0.642547
O2    O     O_R   0.491330 0.609320 0.646410 -0.624482
O3    O     O_R   0.690660 0.406170 0.506210 -0.620263
O4    O     O_R   0.675810 0.593790 0.493790 -0.619938
O5    O     O_R   0.508670 0.390680 0.353590 -0.625327
O6    O     O_R   0.493830 0.578310 0.341170 -0.608661
O7    O     O_R   0.324190 0.406210 0.506210 -0.626265
O8    O     O_R   0.309340 0.593830 0.493790 -0.595410
Zn1   Zn    Zn3+2 0.509910 0.374720 0.508290 0.936784
Zn2   Zn    Zn3+2 0.490090 0.625280 0.491710 0.956780

loop_
_geom_bond_atom_site_label_1
_geom_bond_atom_site_label_2
_ccdc_geom_bond_type
C4    O3    A    
C6    C32   A    
C32   H9    S    
O2    Zn2   S    
C5    C9    A    
C6    C7    A    
C23   C27   A    
C8    H8    S    
C20   O7    A    
H11   N3    S    
O5    Zn1   S    
C12   C23   A    
C28   H6    S    
O6    Zn2   S    
C8    C30   A    
O7    Zn1   S    
C1    O1    A    
C18   N1    A    
C7    C30   A    
C13   H19   S    
C13   C14   A    
H10   N3    S    
C3    C31   A    
C22   H3    S    
C19   H18   S    
C11   N2    A    
C24   H4    S    
C11   N3    S    
C12   C21   A    
C17   N1    A    
O1    Zn1   S    
C28   C29   A    
C25   C26   A    
C1    O2    A    
O3    Zn1   S    
C13   N2    A    
C20   C29   S    
C2    H13   S    
C20   O8    A    
C5    C6    A    
N2    Zn2   S    
C22   C24   A    
C10   C11   A    
C16   C30   S    
C1    C31   S    
C24   C25   A    
C26   C29   A    
C2    C32   A    
C18   C19   A    
C16   O6    A    
C4    O4    A    
C27   C28   A    
C15   C17   A    
C4    C23   S    
C7    H7    S    
C14   C15   A    
C2    C31   A    
C9    H12   S    
O8    Zn2   S    
C21   H2    S    
C3    H14   S    
O4    Zn2   S    
C25   H5    S    
C10   C15   A    
C21   C22   A    
C10   H17   S    
C14   C19   A    
N1    Zn1   S    
C27   H1    S    
C17   H15   S    
C12   C26   A    
C8    C9    A    
C3    C5    A    
C16   O5    A    
C18   H16   S    
