data_mof_unit_64204.cif
_audit_creation_date              2013-03-05T16:46:17-0500
_audit_creation_method            fapswitch 2.2
_symmetry_space_group_name_H-M    P1
_symmetry_Int_Tables_number       1
_space_group_crystal_system       triclinic
_cell_length_a                    15.978418
_cell_length_b                    17.087256
_cell_length_c                    23.627388
_cell_angle_alpha                 93.042497
_cell_angle_beta                  91.106273
_cell_angle_gamma                 95.491052
_cell_volume                      6410.33895452

loop_
_atom_site_label
_atom_site_type_symbol
_atom_site_description
_atom_site_fract_x
_atom_site_fract_y
_atom_site_fract_z
_atom_type_partial_charge
O1    O     O_R   0.420530 0.382500 0.497430 -0.514413
O2    O     O_R   0.579470 0.617500 0.502570 -0.525191
O3    O     O_R   0.563720 0.388950 0.502070 -0.544139
O4    O     O_R   0.436280 0.611050 0.497930 -0.505401
C1    C     C_R   0.489977 0.348087 0.501695 0.993300
C2    C     C_R   0.510378 0.650913 0.494714 0.972925
O5    O     O_R   0.428390 0.496750 0.415560 -0.557784
O6    O     O_R   0.571610 0.503250 0.584440 -0.549904
O7    O     O_R   0.571580 0.503200 0.420200 -0.507145
O8    O     O_R   0.428420 0.496800 0.579800 -0.507974
C3    C     C_R   0.500442 0.500691 0.390947 0.945576
C4    C     C_R   0.499089 0.501688 0.609318 0.960533
Cu1   Cu    Cu3+1 0.415220 0.496180 0.497250 1.181009
Cu2   Cu    Cu3+1 0.584780 0.503820 0.502750 1.176447
C5    C     C_R   0.432307 0.501234 0.881386 0.615368
C6    C     C_R   0.592482 0.501998 0.120792 0.624700
N1    N     N_R   0.506010 0.499227 0.853144 -0.461680
N2    N     N_R   0.518593 0.503850 0.148775 -0.463495
C7    C     C_R   0.581153 0.497587 0.881093 0.615980
C8    C     C_R   0.443396 0.503841 0.120565 0.609730
C9    C     C_R   0.584759 0.498139 0.940384 -0.083934
C10   C     C_R   0.439915 0.502400 0.061359 -0.081225
C11   C     C_R   0.510131 0.499607 0.970904 -0.041138
C12   C     C_R   0.514582 0.500684 0.030939 -0.041154
C13   C     C_R   0.431425 0.500112 0.941439 -0.143154
C14   C     C_R   0.593229 0.500105 0.060508 -0.148322
C15   C     C_R   0.661901 0.497045 0.969176 -0.158651
C16   C     C_R   0.362587 0.501903 0.032569 -0.158024
C17   C     C_R   0.667901 0.497720 0.028303 0.396939
C18   C     C_R   0.356450 0.499978 0.973496 0.398583
O9    O     O_2   0.361216 0.505701 0.850808 -0.407371
O10   O     O_2   0.663955 0.502503 0.151849 -0.393873
O11   O     O_2   0.652278 0.495321 0.851354 -0.462161
O12   O     O_2   0.371862 0.504700 0.150044 -0.464143
H1    H     H_    0.718582 0.495630 0.945017 0.249090
H2    H     H_    0.305788 0.502647 0.056668 0.250068
C19   C     C_R   0.503362 0.572006 0.241084 -0.093660
C20   C     C_R   0.471182 0.433796 0.759886 -0.126305
H3    H     H_    0.496622 0.625080 0.218989 0.205034
H4    H     H_    0.448266 0.382017 0.781532 0.205196
C21   C     C_R   0.490656 0.570838 0.299473 0.281802
C22   C     C_R   0.467142 0.433892 0.700667 0.289917
C23   C     C_R   0.500695 0.500676 0.328058 -0.237501
C24   C     C_R   0.497025 0.502858 0.672614 -0.234781
C25   C     C_R   0.509707 0.430289 0.294425 0.395233
C26   C     C_R   0.526864 0.571602 0.707178 0.344079
C27   C     C_R   0.521448 0.433792 0.236114 -0.103310
C28   C     C_R   0.531498 0.568164 0.766151 -0.099687
H5    H     H_    0.527208 0.380308 0.210294 0.201755
H6    H     H_    0.554134 0.620076 0.792454 0.201849
C29   C     C_R   0.518994 0.504163 0.209533 0.177735
C30   C     C_R   0.504304 0.499933 0.792400 0.187948
C31   C     C_R   0.488123 0.260072 0.500486 -0.275253
C32   C     C_R   0.517423 0.737474 0.486302 -0.340031
C33   C     C_R   0.566639 0.227059 0.505376 0.163117
C34   C     C_R   0.447958 0.782005 0.497757 0.191017
C35   C     C_R   0.573329 0.148664 0.486974 0.180764
C36   C     C_R   0.457467 0.864359 0.496079 0.200087
C37   C     C_R   0.501858 0.100727 0.465865 0.103987
C38   C     C_R   0.535894 0.903672 0.484552 0.092339
C39   C     C_R   0.423875 0.131579 0.463002 0.193793
C40   C     C_R   0.604566 0.861212 0.472699 0.193340
C41   C     C_R   0.414081 0.208292 0.485845 0.288882
C42   C     C_R   0.594984 0.778098 0.469204 0.298615
N3    N     N_2   0.502000 0.017953 0.455315 -0.087755
N4    N     N_2   0.547540 0.986889 0.489384 -0.093488
N5    N     N_R   0.712130 0.509560 0.506880 -0.291968
N6    N     N_R   0.287870 0.490440 0.493120 -0.291956
C43   C     C_R   0.758847 0.472445 0.465516 0.483380
C44   C     C_R   0.241636 0.526267 0.535313 0.514819
C45   C     C_R   0.846807 0.474895 0.470416 -0.293484
C46   C     C_R   0.153510 0.522513 0.531274 -0.298971
C47   C     C_R   0.891904 0.513336 0.516121 0.197501
C48   C     C_R   0.108181 0.485506 0.485102 0.193620
C49   C     C_R   0.846322 0.551754 0.557486 0.152080
C50   C     C_R   0.153601 0.449433 0.442452 0.145065
C51   C     C_R   0.756899 0.549972 0.551916 0.354436
C52   C     C_R   0.243106 0.452412 0.447047 0.332146
N7    N     N_2   0.982449 0.517489 0.520328 -0.118353
N8    N     N_2   0.017651 0.481168 0.481249 -0.119092
H7    H     H_    0.119127 0.547959 0.565419 0.256078
H8    H     H_    0.881403 0.447410 0.437319 0.257109
S1    S     S_3+6 0.309186 0.225910 0.505619 0.162412
O13   O     O_2   0.298048 0.306136 0.531221 -0.208433
O14   O     O_2   0.250991 0.209798 0.454700 -0.165829
O15   O     O_3   0.279689 0.161186 0.554391 -0.414229
H9    H     H_    0.218639 0.164879 0.558781 0.403197
S2    S     S_3+6 0.679032 0.729506 0.437823 0.130055
O16   O     O_2   0.742799 0.716699 0.483064 -0.217054
O17   O     O_2   0.648510 0.651851 0.408235 -0.254299
O18   O     O_3   0.726556 0.785804 0.389244 -0.417222
H10   H     H_    0.775625 0.758193 0.377372 0.400435
S3    S     S_3+6 0.281765 0.575338 0.600402 0.119334
O19   O     O_2   0.219824 0.629916 0.622443 -0.206260
O20   O     O_2   0.290583 0.515037 0.643498 -0.254358
O21   O     O_3   0.373433 0.629933 0.595872 -0.474983
H11   H     H_    0.379192 0.662282 0.631993 0.412482
S4    S     S_3+6 0.718817 0.423238 0.400693 0.126230
O22   O     O_2   0.699097 0.483052 0.359270 -0.210418
O23   O     O_2   0.783921 0.375783 0.374087 -0.221324
O24   O     O_3   0.633839 0.360945 0.410167 -0.475693
H12   H     H_    0.652943 0.307512 0.406528 0.390181
N9    N     N_R   0.890700 0.593516 0.605210 0.185284
O25   O     O_R   0.876270 0.665341 0.619926 -0.187827
O26   O     O_R   0.949437 0.561597 0.632093 -0.246466
N10   N     N_R   0.109050 0.408435 0.394489 0.185727
O27   O     O_R   0.126815 0.338479 0.377252 -0.186516
O28   O     O_R   0.047935 0.439305 0.369371 -0.246361
N11   N     N_R   0.714384 0.591120 0.594773 0.189682
O29   O     O_R   0.713549 0.565281 0.645608 -0.270749
O30   O     O_R   0.704124 0.664692 0.588522 -0.216278
N12   N     N_R   0.285821 0.417141 0.401286 0.180283
O31   O     O_R   0.281365 0.445074 0.351243 -0.295387
O32   O     O_R   0.309667 0.347222 0.405722 -0.206920
S5    S     S_3+6 0.770891 0.494940 0.057831 0.111918
O33   O     O_2   0.794207 0.568183 0.095074 -0.181447
O34   O     O_2   0.773123 0.423598 0.092242 -0.179847
O35   O     O_3   0.842179 0.490144 0.006558 -0.500390
H13   H     H_    0.896777 0.488946 0.026927 0.404006
S6    S     S_3+6 0.252660 0.495550 0.943825 0.110358
O36   O     O_2   0.242858 0.568897 0.912869 -0.176736
O37   O     O_2   0.236980 0.424483 0.903356 -0.191369
O38   O     O_3   0.180518 0.488804 0.994747 -0.498908
H14   H     H_    0.125565 0.487358 0.974384 0.403650
S7    S     S_3+6 0.450726 0.655664 0.331030 0.072161
O39   O     O_2   0.522191 0.713634 0.352199 -0.213791
O40   O     O_2   0.401604 0.694350 0.287275 -0.210031
O41   O     O_3   0.386786 0.633713 0.384481 -0.491139
H15   H     H_    0.334241 0.608124 0.366058 0.389454
S8    S     S_3+6 0.422231 0.346165 0.664830 0.095208
O42   O     O_2   0.477482 0.323558 0.617636 -0.264593
O43   O     O_2   0.412990 0.279649 0.704154 -0.216095
O44   O     O_3   0.326907 0.360347 0.638620 -0.424681
H16   H     H_    0.289972 0.359938 0.671816 0.385761
S9    S     S_3+6 0.490467 0.334003 0.318292 0.089875
O45   O     O_2   0.472433 0.333686 0.380169 -0.303922
O46   O     O_2   0.415759 0.293142 0.285524 -0.184364
O47   O     O_3   0.574383 0.284443 0.304441 -0.464834
H17   H     H_    0.559509 0.231286 0.318272 0.387526
S10   S     S_3+6 0.551813 0.667000 0.683014 0.081423
O48   O     O_2   0.493999 0.720922 0.710975 -0.251197
O49   O     O_2   0.640600 0.695424 0.701354 -0.145374
O50   O     O_3   0.541413 0.671245 0.612866 -0.539581
H18   H     H_    0.548004 0.728251 0.606247 0.377796
N13   N     N_R   0.368017 0.745645 0.514198 0.200875
O51   O     O_R   0.318050 0.707442 0.475934 -0.239720
O52   O     O_R   0.335981 0.770045 0.561431 -0.231678
N14   N     N_R   0.639886 0.271822 0.531190 0.185418
O53   O     O_R   0.636944 0.302699 0.582535 -0.245613
O54   O     O_R   0.711465 0.276245 0.505632 -0.279716
N15   N     N_R   0.387573 0.908678 0.509005 0.197772
O55   O     O_R   0.394356 0.963687 0.549546 -0.240234
O56   O     O_R   0.315385 0.890671 0.482775 -0.176018
N16   N     N_R   0.653952 0.118625 0.487906 0.199725
O57   O     O_R   0.691475 0.108867 0.536026 -0.202622
O58   O     O_R   0.694706 0.111978 0.441065 -0.217500
N17   N     N_R   0.353780 0.082826 0.437088 0.202419
O59   O     O_R   0.294376 0.051457 0.467924 -0.168380
O60   O     O_R   0.357004 0.058842 0.384065 -0.231272
N18   N     N_R   0.684504 0.903587 0.463487 0.211712
O61   O     O_R   0.748857 0.895129 0.496399 -0.198598
O62   O     O_R   0.693365 0.949833 0.421606 -0.193199

loop_
_geom_bond_atom_site_label_1
_geom_bond_atom_site_label_2
_geom_bond_distance
_ccdc_geom_bond_type
S9    O47   1.681350 S    
O24   H12   0.990039 S    
C15   C17   1.397803 A    
C46   C48   1.386782 A    
C47   C49   1.402678 A    
N5    C51   1.385233 A    
S10   O50   1.668642 S    
O41   H15   0.990446 S    
N12   O32   1.297077 A    
N13   O51   1.300247 A    
O38   H14   0.990645 S    
C27   H5    1.083948 S    
C36   N15   1.436822 S    
O5    C3    1.297439 A    
S3    O19   1.505154 D    
C32   C42   1.437145 A    
O1    C1    1.309239 A    
C10   C12   1.406576 A    
C1    C31   1.500131 S    
C7    C9    1.400446 A    
N14   O54   1.301331 A    
C20   C22   1.399525 A    
C28   C30   1.386700 A    
N11   O30   1.298961 A    
C19   C29   1.390255 A    
C35   C37   1.406947 A    
C20   C30   1.387481 A    
N10   O27   1.301158 A    
C36   C38   1.402594 A    
S5    O33   1.503546 D    
O4    Cu1   1.958612 S    
C38   C40   1.396951 A    
C25   C27   1.397684 A    
C34   N13   1.435759 S    
C43   C45   1.404436 A    
O35   H13   0.990629 S    
C40   C42   1.411617 A    
N9    O26   1.301326 A    
N17   O59   1.299949 A    
C24   C26   1.431778 A    
S5    O34   1.503593 D    
S7    O41   1.675152 S    
O6    Cu2   1.946030 S    
Cu2   N5    2.028023 S    
C3    C23   1.485956 S    
N16   O58   1.300167 A    
C46   H7    1.080430 S    
S6    O38   1.682989 S    
O6    C4    1.308052 A    
C45   H8    1.079365 S    
C8    O12   1.350791 S    
C43   S4    1.784486 S    
N10   O28   1.301331 A    
C28   H6    1.084095 S    
C9    C15   1.398516 A    
N15   O55   1.301416 A    
C38   N4    1.414536 S    
S3    O20   1.500658 D    
C10   C16   1.397971 A    
Cu1   Cu2   2.700215 S    
C49   N9    1.438870 S    
C21   C23   1.427498 A    
O2    C2    1.305051 A    
C22   C24   1.429508 A    
C2    C32   1.496683 S    
N1    C30   1.435670 S    
N12   O31   1.301578 A    
N13   O52   1.301847 A    
S6    O37   1.503639 D    
N2    C29   1.435172 S    
C26   C28   1.398566 A    
C31   C33   1.429075 A    
N6    C52   1.387347 A    
C32   C34   1.426732 A    
C37   C39   1.400484 A    
C25   S9    1.768552 S    
C21   S7    1.773287 S    
S9    O45   1.495776 D    
C44   S3    1.789258 S    
N14   O53   1.300492 A    
O4    C2    1.313836 A    
C7    O11   1.350226 S    
O18   H10   0.990576 S    
C45   C47   1.385979 A    
O15   H9    0.990617 S    
C27   C29   1.389275 A    
C15   H1    1.081372 S    
C5    O9    1.344950 S    
O8    Cu1   1.957118 S    
C17   S5    1.780792 S    
C41   S1    1.797205 S    
N5    C43   1.402691 A    
N18   O62   1.300270 A    
S8    O43   1.504054 D    
O7    Cu2   1.957120 S    
C39   N17   1.436702 S    
C23   C25   1.426495 A    
S1    O13   1.496534 D    
S2    O18   1.682411 S    
C8    C10   1.397747 A    
C11   C12   1.417916 A    
S5    O35   1.682968 S    
O21   H11   0.989712 S    
S1    O15   1.682161 S    
C39   C41   1.414722 A    
C47   N7    1.442946 S    
C22   S8    1.764904 S    
S10   O48   1.503526 D    
C51   N11   1.422541 S    
O7    C3    1.314827 A    
N16   O57   1.301091 A    
O3    Cu2   1.958613 S    
O8    C4    1.309123 A    
C6    N2    1.366411 A    
S1    O14   1.503504 D    
S2    O17   1.500587 D    
S4    O22   1.502558 D    
S3    O21   1.668012 S    
S4    O23   1.505788 D    
C33   C35   1.400804 A    
O44   H16   0.990542 S    
C40   N18   1.433031 S    
S8    O44   1.676990 S    
O1    Cu1   1.952651 S    
C48   C50   1.403586 A    
S6    O36   1.503554 D    
C26   S10   1.767849 S    
C13   C18   1.429530 A    
S9    O46   1.503095 D    
C50   N10   1.439059 S    
C44   C46   1.404586 A    
C12   C14   1.427083 A    
C50   C52   1.427993 A    
O3    C1    1.310521 A    
C6    C14   1.423317 A    
C52   N12   1.426924 S    
C5    N1    1.367090 A    
S10   O49   1.502794 D    
C6    O10   1.344560 S    
S4    O24   1.669486 S    
C35   N16   1.431820 S    
N18   O61   1.300909 A    
C9    C11   1.406976 A    
S8    O42   1.493160 D    
C19   H3    1.083213 S    
N11   O29   1.301368 A    
C37   N3    1.423304 S    
C20   H4    1.082450 S    
C31   C41   1.433014 A    
C33   N14   1.441661 S    
S7    O39   1.498054 D    
C18   S6    1.781283 S    
C16   C18   1.395706 A    
N1    C7    1.362443 A    
C34   C36   1.403611 A    
N2    C8    1.362712 A    
N15   O56   1.301330 A    
C19   C21   1.399217 A    
O2    Cu2   1.952653 S    
C5    C13   1.420368 A    
O47   H17   0.990702 S    
N7    N8    1.257041 D    
O5    Cu1   1.946030 S    
C11   C13   1.426605 A    
S2    O16   1.501377 D    
C16   H2    1.081403 S    
C14   C17   1.430148 A    
N17   O60   1.300819 A    
N3    N4    1.247343 D    
C49   C51   1.429613 A    
N9    O25   1.300881 A    
S7    O40   1.504100 D    
N6    C44   1.401622 A    
C4    C24   1.495630 S    
C48   N8    1.442189 S    
C42   S2    1.796996 S    
O50   H18   0.990714 S    
Cu1   N6    2.028023 S    
