data_mof_unit_54479.cif
_audit_creation_date              2012-12-10T17:29:18-0500
_audit_creation_method            fapswitch 2.2
_symmetry_space_group_name_H-M    P1
_symmetry_Int_Tables_number       1
_space_group_crystal_system       triclinic
_cell_length_a                    11.967887
_cell_length_b                    13.107611
_cell_length_c                    13.350523
_cell_angle_alpha                 88.206317
_cell_angle_beta                  112.147915
_cell_angle_gamma                 89.463859
_cell_volume                      1938.31428424

loop_
_atom_site_label
_atom_site_type_symbol
_atom_type_description
_atom_site_fract_x
_atom_site_fract_y
_atom_site_fract_z
_atom_type_partial_charge
C1    C     C_R   0.481661 0.300028 0.498256 0.870101
C2    C     C_R   0.537000 0.458107 0.976495 0.086545
C3    C     C_R   0.521407 0.506394 0.876149 0.069599
C4    C     C_R   0.452514 0.479189 0.023662 0.051705
C5    C     C_R   0.342065 0.530387 0.962263 0.103281
C6    C     C_R   0.331162 0.585868 0.867213 -0.025719
C7    C     C_R   0.424897 0.578149 0.829116 -0.282690
C8    C     C_R   0.479429 0.459921 0.133600 -0.295832
C9    C     C_R   0.271528 0.494066 0.107784 0.008536
C10   C     C_R   0.600978 0.479817 0.824353 -0.102715
C11   C     C_R   0.521113 0.810136 0.487108 -0.123117
C12   C     C_R   0.565109 0.497906 0.707855 0.859930
C13   C     C_R   0.478820 0.190192 0.501606 -0.107309
C14   C     C_R   0.382746 0.043745 0.539049 -0.213584
C15   C     C_R   0.391525 0.147114 0.533718 -0.230935
C16   C     C_R   0.564681 0.128323 0.479625 -0.095089
C17   C     C_R   0.551536 0.021409 0.479056 0.107670
C18   C     C_R   0.456043 0.980324 0.505553 0.087270
C19   C     C_R   0.432006 0.876268 0.496223 -0.086761
C20   C     C_R   0.616325 0.849607 0.463153 -0.277948
C21   C     C_R   0.627665 0.953455 0.451187 0.077568
C22   C     C_R   0.994529 0.577465 0.374580 -0.090190
C23   C     C_R   0.517273 0.700231 0.497449 0.896431
C24   C     C_R   0.119461 0.569648 0.391609 0.005076
C25   C     C_R   0.163943 0.469289 0.552422 -0.074073
C26   C     C_R   0.040952 0.471783 0.539961 0.071754
C27   C     C_R   0.955489 0.529894 0.453548 0.019563
C28   C     C_R   0.835186 0.538075 0.451275 -0.070490
C29   C     C_R   0.880148 0.421850 0.600716 0.046598
C30   C     C_R   0.002036 0.417458 0.612944 -0.346820
C31   C     C_R   0.434191 0.493926 0.293498 0.874154
C32   C     C_R   0.248454 0.527860 0.001566 -0.238298
C33   C     C_R   0.393120 0.479949 0.177385 -0.115218
C34   C     C_R   0.699292 0.412768 0.876641 -0.194364
C35   C     C_R   0.713186 0.364867 0.974758 -0.167864
C36   C     C_R   0.632664 0.386371 0.024104 -0.204059
H1    H     H_    0.679890 0.799372 0.447357 0.168551
H2    H     H_    0.315594 0.013865 0.567672 0.161287
H3    H     H_    0.330205 0.193572 0.556656 0.165935
H4    H     H_    0.770439 0.592207 0.397329 0.142106
H5    H     H_    0.851256 0.379167 0.656991 0.119870
H6    H     H_    0.065544 0.371533 0.679197 0.137551
H7    H     H_    0.151896 0.601308 0.332265 0.142327
H8    H     H_    0.229489 0.425682 0.619380 0.142147
H9    H     H_    0.157473 0.548597 0.949662 0.143831
H10   H     H_    0.570258 0.438516 0.187229 0.156289
H11   H     H_    0.759454 0.390182 0.837241 0.150926
H12   H     H_    0.642547 0.342248 0.096455 0.121812
H13   H     H_    0.784207 0.307782 0.010749 0.149112
H14   H     H_    0.420417 0.627224 0.761243 0.159914
N1    N     N_R   0.798200 0.480260 0.519790 -0.095590
N2    N     N_R   0.201820 0.519740 0.480210 -0.109921
O1    O     O_R   0.579910 0.341070 0.505280 -0.619640
O2    O     O_R   0.388440 0.353740 0.492580 -0.625809
O3    O     O_R   0.643280 0.490550 0.663120 -0.626062
O4    O     O_R   0.451810 0.503220 0.650420 -0.620943
O5    O     O_R   0.611560 0.646260 0.507420 -0.630005
O6    O     O_R   0.420090 0.658930 0.494720 -0.623733
O7    O     O_R   0.548190 0.496780 0.349580 -0.625590
O8    O     O_R   0.356720 0.509450 0.336880 -0.621115
Zn1   Zn    Zn3+2 0.627850 0.491540 0.508480 0.939598
Zn2   Zn    Zn3+2 0.372150 0.508460 0.491520 0.944501
C37   C     C_R   0.169789 0.463672 0.139924 0.130210
C38   C     C_R   0.180769 0.374856 0.205848 -0.080488
C39   C     C_R   0.083467 0.341759 0.230876 -0.145161
C40   C     C_R   0.972627 0.393816 0.186255 -0.142168
C41   C     C_R   0.959318 0.479059 0.116974 -0.113506
C42   C     C_R   0.057694 0.515845 0.096516 -0.197773
H15   H     H_    0.264517 0.330669 0.237536 0.105741
H16   H     H_    0.093435 0.274685 0.283190 0.126345
H17   H     H_    0.896760 0.367609 0.204446 0.121112
H18   H     H_    0.872724 0.517604 0.079103 0.178348
H19   H     H_    0.045148 0.584393 0.045824 0.135939
N3    N     N_3   0.714530 0.987038 0.407787 -0.457334
H20   H     H_    0.692632 0.956760 0.331329 0.186874
H21   H     H_    0.799535 0.957619 0.457906 0.181234
C43   C     C_R   0.670270 0.173582 0.463184 0.208077
C44   C     C_R   0.657390 0.221383 0.363634 -0.087597
C45   C     C_R   0.759216 0.255705 0.346400 -0.140249
C46   C     C_R   0.874101 0.240517 0.426784 -0.089626
C47   C     C_R   0.887376 0.193439 0.526107 -0.156212
C48   C     C_R   0.785729 0.162019 0.545308 -0.143485
H22   H     H_    0.569073 0.231038 0.299615 0.097870
H23   H     H_    0.749552 0.292933 0.270394 0.097788
H24   H     H_    0.952744 0.266091 0.412493 0.125285
H25   H     H_    0.976374 0.182097 0.588548 0.124505
H26   H     H_    0.797080 0.125004 0.622313 0.115085
C49   C     C_R   0.909400 0.632367 0.272918 0.119012
C50   C     C_R   0.949259 0.714823 0.225338 -0.158034
C51   C     C_R   0.870554 0.768473 0.133342 -0.156432
C52   C     C_R   0.750751 0.739938 0.085498 -0.120915
C53   C     C_R   0.710891 0.655430 0.127318 -0.134927
C54   C     C_R   0.790315 0.599784 0.217605 -0.187063
H27   H     H_    0.041676 0.738152 0.258045 0.140401
H28   H     H_    0.902742 0.832354 0.099214 0.128412
H29   H     H_    0.689429 0.781980 0.014751 0.123023
H30   H     H_    0.618603 0.632507 0.088689 0.150436
H31   H     H_    0.759074 0.529618 0.241635 0.128421
C55   C     C_R   0.233747 0.664417 0.818414 0.121649
C56   C     C_R   0.261613 0.768441 0.828038 -0.167701
C57   C     C_R   0.169509 0.843183 0.790191 -0.130679
C58   C     C_R   0.049022 0.814711 0.742621 -0.123678
C59   C     C_R   0.020476 0.711423 0.732036 -0.155606
C60   C     C_R   0.112472 0.636632 0.769004 -0.198128
H32   H     H_    0.354369 0.791523 0.866341 0.123384
H33   H     H_    0.191527 0.923184 0.798037 0.125325
H34   H     H_    0.977929 0.872634 0.713376 0.124252
H35   H     H_    0.927305 0.689281 0.694710 0.149347
H36   H     H_    0.089320 0.557109 0.761450 0.143855
C61   C     C_R   0.306798 0.844850 0.479814 0.144475
C62   C     C_R   0.282562 0.786459 0.558657 -0.100403
C63   C     C_R   0.163488 0.769205 0.546800 -0.127689
C64   C     C_R   0.068213 0.820545 0.465180 -0.124321
C65   C     C_R   0.091635 0.884138 0.390078 -0.181279
C66   C     C_R   0.209436 0.892123 0.393942 -0.181287
H37   H     H_    0.355627 0.753834 0.628258 0.119465
H38   H     H_    0.145078 0.716236 0.600992 0.171467
H39   H     H_    0.976336 0.809623 0.459052 0.132914
H40   H     H_    0.018050 0.924123 0.326422 0.142471
H41   H     H_    0.225939 0.940618 0.333978 0.138966

loop_
_geom_bond_atom_site_label_1
_geom_bond_atom_site_label_2
_ccdc_geom_bond_type
O6    Zn2   S    
C23   O6    A    
C24   N2    A    
C57   C58   A    
C32   H9    S    
C14   C18   A    
C62   C63   A    
N1    Zn1   S    
C4    C8    A    
C47   C48   A    
C51   H28   S    
C43   C44   A    
C11   C19   A    
C56   H32   S    
C29   C30   A    
N3    H21   S    
C34   C35   A    
C3    C7    A    
C45   H23   S    
C28   N1    A    
C28   H4    S    
C48   H26   S    
O8    Zn2   S    
C41   H18   S    
C31   O7    A    
C50   H27   S    
C1    O1    A    
C61   C62   A    
C56   C57   A    
C9    C32   A    
C52   H29   S    
C49   C54   A    
O1    Zn1   S    
C44   H22   S    
C55   C56   A    
C16   C17   A    
C35   H13   S    
C31   C33   S    
C36   H12   S    
C62   H37   S    
C22   C49   S    
C47   H25   S    
C5    C32   A    
C64   H39   S    
C40   C41   A    
C9    C33   A    
C25   H8    S    
C63   C64   A    
C53   H30   S    
C65   C66   A    
C11   C20   A    
O7    Zn1   S    
N3    H20   S    
C41   C42   A    
C52   C53   A    
C44   C45   A    
C18   C19   A    
O2    Zn2   S    
C42   H19   S    
C21   N3    S    
C17   C21   A    
C37   C38   A    
C35   C36   A    
C31   O8    A    
C2    C4    A    
C1    O2    A    
C46   H24   S    
C14   H2    S    
C40   H17   S    
C14   C15   A    
C17   C18   A    
C26   C27   A    
C58   H34   S    
C10   C34   A    
C38   H15   S    
C20   C21   A    
C15   H3    S    
C12   O4    A    
C10   C12   S    
C26   C30   A    
C22   C27   A    
C13   C15   A    
C22   C24   A    
C1    C13   S    
C59   C60   A    
C64   C65   A    
C29   N1    A    
C19   C61   S    
C2    C36   A    
C57   H33   S    
C23   O5    A    
C37   C42   A    
C29   H5    S    
C9    C37   S    
C30   H6    S    
C65   H40   S    
C7    H14   S    
C46   C47   A    
C61   C66   A    
C66   H41   S    
O5    Zn1   S    
C6    C7    A    
C63   H38   S    
C38   C39   A    
C2    C3    A    
C25   C26   A    
C25   N2    A    
C3    C10   A    
N2    Zn2   S    
C6    C55   S    
C20   H1    S    
C51   C52   A    
C5    C6    A    
C43   C48   A    
O3    Zn1   S    
C11   C23   S    
C53   C54   A    
C55   C60   A    
O4    Zn2   S    
C8    C33   A    
C58   C59   A    
C8    H10   S    
C12   O3    A    
C45   C46   A    
C4    C5    A    
C49   C50   A    
C39   C40   A    
C13   C16   A    
C27   C28   A    
C24   H7    S    
C60   H36   S    
C16   C43   S    
C59   H35   S    
C34   H11   S    
C50   C51   A    
C54   H31   S    
C39   H16   S    
