data_mof_unit_40555.cif
_audit_creation_date              2012-12-11T14:35:57-0500
_audit_creation_method            fapswitch 2.2
_symmetry_space_group_name_H-M    P1
_symmetry_Int_Tables_number       1
_space_group_crystal_system       triclinic
_cell_length_a                    13.475427
_cell_length_b                    13.475575
_cell_length_c                    27.566304
_cell_angle_alpha                 90.456212
_cell_angle_beta                  89.987788
_cell_angle_gamma                 60.01367
_cell_volume                      4335.50773276

loop_
_atom_site_label
_atom_site_type_symbol
_atom_type_description
_atom_site_fract_x
_atom_site_fract_y
_atom_site_fract_z
_atom_type_partial_charge
C1    C     C_R   0.620046 0.101094 0.570355 0.546895
C2    C     C_1   0.650607 0.702903 0.657997 -0.032730
C3    C     C_3   0.896956 0.810616 0.191547 -0.117985
C4    C     C_3   0.106255 0.118711 0.739128 -0.075756
C5    C     C_R   0.599711 0.779339 0.568729 0.544791
C6    C     C_3   0.200583 0.057464 0.777927 -0.107207
C7    C     C_1   0.096893 0.202082 0.901769 -0.013816
C8    C     C_1   0.232371 0.136902 0.618133 -0.011885
C9    C     C_3   0.054721 0.231229 0.769330 -0.079505
C10   C     C_3   0.149437 0.169784 0.807328 0.050188
C11   C     C_3   0.132528 0.266876 0.742270 -0.113465
C12   C     C_3   0.183584 0.154649 0.712833 0.043363
C13   C     C_1   0.631618 0.731040 0.616151 -0.004927
C14   C     C_3   0.226799 0.205747 0.780966 -0.100993
C15   C     C_3   0.278435 0.093245 0.750778 -0.107150
C16   C     C_1   0.125383 0.183242 0.859667 -0.058799
C17   C     C_R   0.278341 0.121513 0.569903 0.549028
C18   C     C_1   0.205879 0.146046 0.660421 -0.057297
C19   C     C_3   0.671549 0.254486 0.739450 -0.090986
C20   C     C_3   0.573467 0.279870 0.776045 -0.148007
C21   C     C_1   0.689599 0.207566 0.903508 -0.010049
C22   C     C_1   0.634704 0.132450 0.618647 -0.005207
C23   C     C_3   0.756971 0.158378 0.773030 0.318016
C24   C     C_3   0.634330 0.594551 0.770249 -0.089039
C25   C     C_3   0.660130 0.183887 0.809181 0.027453
C26   C     C_3   0.734154 0.071474 0.746805 0.126495
C27   C     C_3   0.648853 0.165742 0.713537 0.041183
C28   C     C_3   0.637931 0.094299 0.783298 -0.123603
C29   C     C_R   0.620759 0.097896 0.430395 0.539914
C30   C     C_3   0.550858 0.190628 0.749502 -0.133817
C31   C     C_1   0.671632 0.195918 0.861566 -0.043881
C32   C     C_1   0.642464 0.150959 0.660982 -0.029588
C33   C     C_R   0.732111 0.682247 0.360722 -0.152838
C34   C     C_R   0.750012 0.665289 0.310544 0.010918
C35   C     C_3   0.678402 0.653718 0.805628 0.053157
C36   C     C_R   0.777146 0.626514 0.210232 -0.015560
C37   C     C_R   0.872954 0.576578 0.240591 -0.080328
C38   C     C_R   0.860538 0.594957 0.290577 0.089932
C39   C     C_R   0.788938 0.598284 0.161452 -0.166190
C40   C     C_R   0.691853 0.634939 0.132108 0.024701
C41   C     C_R   0.599812 0.779911 0.429548 0.537168
C42   C     C_R   0.527761 0.805584 0.347602 -0.127360
C43   C     C_R   0.543497 0.792657 0.298063 0.002888
C44   C     C_R   0.654017 0.720172 0.279247 0.036957
C45   C     C_R   0.449941 0.851241 0.267185 -0.149709
C46   C     C_3   0.565145 0.710298 0.744595 0.121765
C47   C     C_R   0.463478 0.831605 0.217549 -0.114427
C48   C     C_R   0.570395 0.750300 0.198453 0.038209
C49   C     C_R   0.667488 0.700303 0.229199 0.028336
C50   C     C_R   0.581811 0.712700 0.150031 0.270085
C51   C     C_R   0.621098 0.749373 0.378854 0.001233
C52   C     C_R   0.183314 0.082697 0.360699 0.068384
C53   C     C_R   0.281641 0.119436 0.430083 0.572712
C54   C     C_R   0.159358 0.092199 0.310510 0.019323
C55   C     C_R   0.113620 0.113538 0.210602 0.008068
C56   C     C_R   0.080240 0.050051 0.239380 -0.138472
C57   C     C_3   0.665340 0.680726 0.710164 0.049578
C58   C     C_R   0.102422 0.039750 0.288911 -0.139977
C59   C     C_R   0.083565 0.131120 0.162049 -0.131682
C60   C     C_R   0.106832 0.204020 0.134264 -0.017278
C61   C     C_R   0.276777 0.196319 0.350122 -0.153739
C62   C     C_R   0.254726 0.205658 0.301030 -0.041776
C63   C     C_R   0.195489 0.154303 0.280920 0.024105
C64   C     C_R   0.292973 0.264589 0.271884 -0.095535
C65   C     C_3   0.737183 0.564154 0.735446 -0.121119
C66   C     C_R   0.266624 0.279642 0.222496 0.281874
C67   C     C_R   0.205540 0.230323 0.201998 0.025494
C68   C     C_3   0.606509 0.770206 0.780319 -0.124461
C69   C     C_R   0.172462 0.165234 0.231108 0.017087
C70   C     C_R   0.171404 0.249709 0.153534 -0.117928
C71   C     C_R   0.241695 0.135705 0.380104 0.040097
C72   C     C_R   0.582189 0.234098 0.362825 -0.144835
C73   C     C_R   0.583920 0.253201 0.313065 0.019426
C74   C     C_R   0.596060 0.289092 0.213765 0.033266
C75   C     C_R   0.543553 0.382546 0.246041 -0.114478
C76   C     C_R   0.536995 0.364724 0.295374 -0.136810
C77   C     C_3   0.778688 0.623998 0.771270 0.120542
C78   C     C_R   0.613242 0.306557 0.165661 -0.136166
C79   C     C_3   0.709390 0.739891 0.745531 -0.097373
C80   C     C_R   0.673191 0.213370 0.134029 -0.009211
C81   C     C_R   0.680857 0.028924 0.347452 -0.125954
C82   C     C_R   0.680236 0.046734 0.297919 -0.044210
C83   C     C_R   0.633719 0.158797 0.280432 0.044156
C84   C     C_R   0.725332 0.953621 0.265884 -0.129839
C85   C     C_R   0.732210 0.969058 0.216166 0.297988
C86   C     C_R   0.689874 0.081378 0.197861 0.062770
C87   C     C_R   0.638788 0.176365 0.230534 -0.001285
C88   C     C_R   0.703468 0.101384 0.148695 0.100109
C89   C     C_1   0.697132 0.607744 0.900132 -0.006447
C90   C     C_1   0.687843 0.633320 0.857951 -0.036432
C91   C     C_R   0.632783 0.121875 0.380020 0.004116
C92   C     C_R   0.048996 0.236495 0.949649 0.550773
C93   C     C_R   0.711554 0.563028 0.948178 0.551967
C94   C     C_R   0.721857 0.225471 0.951008 0.545828
C95   C     C_R   0.048147 0.244446 0.088216 0.545468
C96   C     C_R   0.708298 0.575015 0.086137 0.573667
C97   C     C_R   0.717374 0.233477 0.088832 0.534786
C98   C     C_3   0.933044 0.046780 0.810107 -0.128120
C99   C     C_3   0.427318 0.692151 0.131275 -0.100631
C100  C     C_3   0.249549 0.452642 0.205105 -0.132576
Cr1   Cr    Cr6+3 0.417550 0.169090 0.500530 1.022948
Cr2   Cr    Cr6+3 0.669180 0.913420 0.499920 1.025918
Cr3   Cr    Cr6+3 0.413260 0.917540 0.499520 1.043745
Cr4   Cr    Cr6+3 0.909170 0.177380 0.020380 1.015413
Cr5   Cr    Cr6+3 0.912710 0.429210 0.018220 1.031357
Cr6   Cr    Cr6+3 0.657170 0.432570 0.019030 1.029377
H1    H     H_    0.276639 0.241175 0.798611 0.109218
H2    H     H_    0.802816 0.643997 0.385944 0.114264
H3    H     H_    0.957526 0.520102 0.225625 0.121609
H4    H     H_    0.389298 0.877641 0.194585 0.156668
H5    H     H_    0.365711 0.909688 0.281580 0.124977
H6    H     H_    0.442525 0.862817 0.361906 0.139411
H7    H     H_    0.033826 0.095121 0.147077 0.134947
H8    H     H_    0.034739 0.010223 0.223726 0.100397
H9    H     H_    0.742647 0.797248 0.735112 0.146385
H10   H     H_    0.074177 0.990888 0.309906 0.110271
H11   H     H_    0.189714 0.304813 0.131398 0.170513
H12   H     H_    0.104302 0.352948 0.727085 0.105461
H13   H     H_    0.342882 0.299577 0.287526 0.123713
H14   H     H_    0.325436 0.233878 0.364789 0.141687
H15   H     H_    0.587946 0.392518 0.153869 0.116832
H16   H     H_    0.541854 0.305729 0.388060 0.111679
H17   H     H_    0.509937 0.469374 0.233256 0.095099
H18   H     H_    0.497567 0.437926 0.319802 0.107801
H19   H     H_    0.551226 0.854143 0.798447 0.098830
H20   H     H_    0.757381 0.867840 0.279547 0.125936
H21   H     H_    0.715252 0.942132 0.360565 0.136810
H22   H     H_    0.600996 0.537087 0.780552 0.114689
H23   H     H_    0.962327 0.288541 0.777459 0.143720
H24   H     H_    0.228529 0.971495 0.793155 0.095825
H25   H     H_    0.056771 0.083246 0.721205 0.136014
H26   H     H_    0.370959 0.036728 0.742641 0.099905
H27   H     H_    0.946695 0.562758 0.755792 0.221503
H28   H     H_    0.922836 0.497008 0.802018 0.229464
H29   H     H_    0.858429 0.907022 0.759747 0.218509
H30   H     H_    0.882633 0.966427 0.710815 0.238272
H31   H     H_    0.986104 0.977411 0.783837 0.112334
H32   H     H_    0.884718 0.019377 0.834012 0.119944
H33   H     H_    0.992367 0.059900 0.833604 0.151900
H34   H     H_    0.506250 0.366269 0.788446 0.119096
H35   H     H_    0.968732 0.601855 0.339684 0.223630
H36   H     H_    0.951773 0.485288 0.344280 0.239519
H37   H     H_    0.364418 0.736373 0.160935 0.091255
H38   H     H_    0.484689 0.600808 0.141180 0.107828
H39   H     H_    0.378428 0.692900 0.098779 0.148344
H40   H     H_    0.188633 0.935247 0.380093 0.223866
H41   H     H_    0.060647 0.056578 0.390506 0.229715
H42   H     H_    0.154962 0.490728 0.202451 0.103226
H43   H     H_    0.275323 0.497210 0.178601 0.131301
H44   H     H_    0.273509 0.468586 0.241717 0.117834
H45   H     H_    0.686357 0.319472 0.721508 0.111618
H46   H     H_    0.698212 0.034718 0.082776 0.236094
H47   H     H_    0.832763 0.985125 0.105395 0.244354
H48   H     H_    0.920490 0.769934 0.227810 0.104938
H49   H     H_    0.937041 0.864567 0.185655 0.099110
H50   H     H_    0.933028 0.740758 0.163989 0.141563
H51   H     H_    0.396993 0.772899 0.760289 0.218876
H52   H     H_    0.421198 0.836254 0.713222 0.230105
H53   H     H_    0.465147 0.204483 0.739324 0.117345
H54   H     H_    0.624971 0.028047 0.801152 0.109692
H55   H     H_    0.873664 0.538052 0.147557 0.136005
H56   H     H_    0.792480 0.480219 0.717320 0.103800
N1    N     N_3   0.896835 0.577183 0.786916 -0.621642
N2    N     N_3   0.819776 0.958014 0.729483 -0.639849
N3    N     N_3   0.961175 0.539311 0.320028 -0.648476
N4    N     N_3   0.149607 0.020306 0.392198 -0.620516
N5    N     N_3   0.748379 0.008569 0.114094 -0.551106
N6    N     N_3   0.446914 0.756901 0.729071 -0.619496
O1    O     O_R   0.301710 0.195650 0.554160 -0.505775
O2    O     O_R   0.635520 0.542770 0.964420 -0.505149
O3    O     O_R   0.665950 0.325030 0.970100 -0.493919
O4    O     O_R   0.522390 0.158990 0.550460 -0.495268
O5    O     O_R   0.816620 0.158530 0.074540 -0.531334
O6    O     O_R   0.004460 0.188870 0.069750 -0.501943
O7    O     O_R   0.025800 0.341780 0.072300 -0.523838
O8    O     O_R   0.807650 0.528950 0.067500 -0.513816
O9    O     O_R   0.633420 0.550490 0.071810 -0.494286
O10   O     O_R   0.664000 0.332180 0.069640 -0.505036
O11   O     O_3   0.826350 0.346390 0.019210 -0.249220
O12   O     O_R   0.658900 0.818120 0.449760 -0.505636
O13   O     O_R   0.694390 0.003530 0.554040 -0.499903
O14   O     O_R   0.657700 0.819660 0.549320 -0.494498
O15   O     O_R   0.501930 0.803280 0.552920 -0.501407
O16   O     O_R   0.318170 0.023580 0.549580 -0.490395
O17   O     O_R   0.303010 0.193990 0.446760 -0.532378
O18   O     O_R   0.523600 0.157450 0.450900 -0.504743
O19   O     O_R   0.695690 0.001860 0.446640 -0.517421
O20   O     O_3   0.862980 0.149391 0.785105 -0.589644
O21   O     O_3   0.487195 0.750608 0.120051 -0.552921
O22   O     O_3   0.307655 0.334740 0.193408 -0.565582
O23   O     O_R   0.503220 0.801620 0.445520 -0.517272
O24   O     O_3   0.776943 0.874225 0.185662 -0.519290
O25   O     O_R   0.319370 0.022040 0.450020 -0.470940
O26   O     O_3   0.499990 0.000010 0.499990 -0.256789
O27   O     O_R   0.818720 0.150820 0.967160 -0.511004
O28   O     O_R   0.006410 0.181720 0.970200 -0.494517
O29   O     O_R   0.027890 0.334070 0.964920 -0.502831
O30   O     O_R   0.809600 0.521790 0.967960 -0.490438

loop_
_geom_bond_atom_site_label_1
_geom_bond_atom_site_label_2
_ccdc_geom_bond_type
C44   C49   A    
C25   C31   S    
C38   N3    S    
C83   C87   A    
C55   C56   A    
C4    C9    S    
C75   C76   A    
C77   N1    S    
C79   H9    S    
C80   C97   S    
Cr2   O12   S    
Cr6   O3    S    
C57   C79   S    
C41   O12   A    
C19   C20   S    
C6    H24   S    
C81   C82   A    
C2    C57   S    
H52   N6    S    
C20   C30   S    
C85   C86   A    
H28   N1    S    
C25   C28   S    
C5    O15   A    
C21   C31   T    
C26   C27   S    
C37   C38   A    
C64   H13   S    
C46   N6    S    
C98   H32   S    
Cr3   O15   S    
C99   H37   S    
C36   C37   A    
C95   O6    A    
Cr5   O11   S    
C55   C59   A    
H30   N2    S    
C23   O20   S    
C11   C14   S    
C17   O1    A    
Cr4   O11   S    
C20   C25   S    
C70   H11   S    
Cr2   O26   S    
C28   H54   S    
C53   O25   A    
C29   O18   A    
Cr1   O4    S    
H29   N2    S    
C23   C26   S    
C26   N2    S    
C2    C13   T    
C78   H15   S    
C95   O7    A    
C54   C63   A    
C53   O17   A    
C52   N4    S    
C6    C15   S    
C15   H26   S    
C63   C69   A    
C56   C58   A    
Cr5   O8    S    
C65   H56   S    
C19   H45   S    
Cr1   O1    S    
Cr3   O26   S    
C96   O9    A    
C4    C12   S    
C19   C27   S    
C9    C10   S    
Cr6   O9    S    
C37   H3    S    
C42   C51   A    
C5    O14   A    
C61   C71   A    
C68   C79   S    
Cr5   O29   S    
C66   C67   A    
H40   N4    S    
C1    C22   S    
H47   N5    S    
C27   C30   S    
C58   H10   S    
Cr6   O2    S    
C33   H2    S    
C40   C96   S    
Cr1   O17   S    
H27   N1    S    
H51   N6    S    
C52   C54   A    
C4    H25   S    
C45   C47   A    
C84   H20   S    
C30   H53   S    
C93   O2    A    
C24   C35   S    
C97   O5    A    
C74   C75   A    
C41   O23   A    
C98   H31   S    
C94   O27   A    
Cr2   O14   S    
C99   H38   S    
C34   C44   A    
C84   C85   A    
C4    C6    S    
C10   C14   S    
C39   C40   A    
C99   O21   S    
C72   C91   A    
C1    O13   A    
C86   C87   A    
Cr4   O6    S    
C42   H6    S    
C100  H44   S    
C35   C77   S    
C3    H48   S    
C8    C18   T    
Cr3   O16   S    
C85   O24   S    
C76   H18   S    
C19   C23   S    
C43   C44   A    
C60   C95   S    
C46   C68   S    
C62   C63   A    
H41   N4    S    
C94   O3    A    
C65   C77   S    
C9    C11   S    
C47   C48   A    
C12   C15   S    
C60   C70   A    
C59   H7    S    
C88   N5    S    
C3    H49   S    
C33   C34   A    
Cr4   O28   S    
C77   C79   S    
C43   C45   A    
C55   C69   A    
C22   C32   T    
C24   C65   S    
C48   C49   A    
C82   C84   A    
C46   C57   S    
C74   C78   A    
C74   C87   A    
C73   C76   A    
C75   H17   S    
C9    H23   S    
C50   O21   S    
C39   H55   S    
C42   C43   A    
C92   O29   A    
C53   C71   S    
C14   H1    S    
Cr6   O11   S    
C29   C91   S    
H46   N5    S    
Cr1   O26   S    
C54   C58   A    
C7    C16   T    
C89   C93   S    
C96   O8    A    
C72   H16   S    
C27   C32   S    
C34   C38   A    
Cr2   O13   S    
C5    C13   S    
C36   C39   A    
C100  O22   S    
Cr2   O19   S    
C57   C65   S    
C72   C73   A    
C92   O28   A    
C6    C10   S    
Cr5   O7    S    
C11   C12   S    
C45   H5    S    
Cr4   O5    S    
C41   C51   S    
C100  H43   S    
C33   C51   A    
C47   H4    S    
C1    O4    A    
C26   C28   S    
C8    C17   S    
C98   H33   S    
C67   C70   A    
C24   C46   S    
H35   N3    S    
C20   H34   S    
C28   C30   S    
C62   C64   A    
Cr5   O30   S    
C80   C88   A    
C52   C71   A    
C10   C16   S    
C3    O24   S    
H36   N3    S    
C17   O16   A    
C97   O10   A    
C35   C68   S    
C100  H42   S    
C40   C50   A    
C7    C92   S    
C66   O22   S    
C86   C88   A    
C48   C50   A    
C3    H50   S    
Cr4   O27   S    
Cr6   O10   S    
C93   O30   A    
C78   C80   A    
C23   C25   S    
C99   H39   S    
C61   C62   A    
C81   C91   A    
C35   C90   S    
C29   O19   A    
C59   C60   A    
Cr3   O23   S    
C82   C83   A    
C21   C94   S    
C12   C18   S    
C24   H22   S    
C56   H8    S    
C14   C15   S    
Cr3   O25   S    
C67   C69   A    
C89   C90   T    
C11   H12   S    
C98   O20   S    
C68   H19   S    
C73   C83   A    
C81   H21   S    
C36   C49   A    
Cr1   O18   S    
C64   C66   A    
C61   H14   S    
