data_mof_unit_14711.cif
_audit_creation_date              2012-12-11T17:09:38-0500
_audit_creation_method            fapswitch 2.2
_symmetry_space_group_name_H-M    P1
_symmetry_Int_Tables_number       1
_space_group_crystal_system       triclinic
_cell_length_a                    14.813952
_cell_length_b                    6.92455
_cell_length_c                    13.511194
_cell_angle_alpha                 89.946884
_cell_angle_beta                  99.836996
_cell_angle_gamma                 90.073746
_cell_volume                      1365.59920373

loop_
_atom_site_label
_atom_site_type_symbol
_atom_type_description
_atom_site_fract_x
_atom_site_fract_y
_atom_site_fract_z
_atom_type_partial_charge
O1    O     O_R   0.586930 0.505770 0.416350 -0.526399
O2    O     O_R   0.413070 0.005770 0.583650 -0.547325
O3    O     O_R   0.397900 0.173100 0.389630 -0.537573
O4    O     O_R   0.602100 0.673100 0.610370 -0.536274
C1    C     C_R   0.364236 0.345403 0.362858 0.725179
C2    C     C_R   0.635775 0.845444 0.637120 0.717810
O5    O     O_R   0.585280 0.175870 0.404330 -0.549615
O6    O     O_R   0.414720 0.675870 0.595670 -0.534247
O7    O     O_R   0.601790 0.008380 0.598460 -0.539175
O8    O     O_R   0.398210 0.508380 0.401540 -0.536037
C3    C     C_R   0.613061 0.345213 0.380910 0.695729
C4    C     C_R   0.383611 0.844345 0.615080 0.704123
O9    O     O_3   0.505200 0.340120 0.563670 -0.373924
O10   O     O_3   0.494800 0.840120 0.436330 -0.367245
V1    V     V_3+5 0.499040 0.064180 0.488190 1.424872
V2    V     V_3+5 0.500960 0.564180 0.511810 1.448757
C5    C     C_R   0.324004 0.983140 0.761982 -0.007402
C6    C     C_R   0.757108 0.476841 0.332991 -0.040481
C7    C     C_R   0.313956 0.851623 0.681996 -0.219273
C8    C     C_R   0.680832 0.353823 0.311673 -0.154168
C9    C     C_R   0.238666 0.719707 0.673325 0.357936
C10   C     C_R   0.677499 0.226973 0.227666 0.392763
C11   C     C_R   0.175522 0.732589 0.740581 -0.107811
C12   C     C_R   0.747258 0.234501 0.168193 -0.147125
H1    H     H_    0.116896 0.636567 0.730366 0.162063
H2    H     H_    0.742450 0.139353 0.103858 0.140979
C13   C     C_R   0.182853 0.876630 0.814931 -0.172679
C14   C     C_R   0.817488 0.374270 0.185101 -0.171772
C15   C     C_R   0.260266 0.995398 0.826410 -0.036087
C16   C     C_R   0.822958 0.487188 0.271329 -0.034508
C17   C     C_3   0.269894 0.210202 0.834594 0.219759
C18   C     C_3   0.837666 0.698886 0.288970 0.226001
C19   C     C_3   0.340001 0.196739 0.763949 0.136039
C20   C     C_3   0.765965 0.687570 0.357962 0.144955
H3    H     H_    0.298213 0.259306 0.912015 0.142894
H4    H     H_    0.817381 0.787803 0.220154 0.151545
H5    H     H_    0.320037 0.269623 0.689908 0.134343
H6    H     H_    0.792836 0.716113 0.438933 0.059564
C21   C     C_1   0.783506 0.877076 0.782799 -0.177062
C22   C     C_1   0.216514 0.377137 0.217172 -0.172419
C23   C     C_1   0.716239 0.860154 0.716739 -0.174719
C24   C     C_1   0.283778 0.360108 0.283224 -0.168885
O11   O     O_R   0.101720 0.231700 0.098560 -0.537254
O12   O     O_R   0.898280 0.731700 0.901440 -0.541463
O13   O     O_R   0.914700 0.558980 0.095690 -0.538667
O14   O     O_R   0.085300 0.058980 0.904310 -0.523451
C25   C     C_R   0.885348 0.389448 0.116996 0.727258
C26   C     C_R   0.114507 0.889874 0.882721 0.728510
O15   O     O_R   0.102080 0.561590 0.110390 -0.533728
O16   O     O_R   0.897920 0.061590 0.889610 -0.541611
O17   O     O_R   0.086950 0.728940 0.916330 -0.536326
O18   O     O_R   0.913050 0.228940 0.083670 -0.543002
C27   C     C_R   0.136087 0.391927 0.137496 0.746296
C28   C     C_R   0.863926 0.891879 0.862484 0.717250
O19   O     O_3   0.994770 0.394510 0.936380 -0.364446
O20   O     O_3   0.005230 0.894510 0.063620 -0.366214
V3    V     V_3+5 0.000970 0.670520 0.011800 1.480871
V4    V     V_3+5 0.999030 0.170520 0.988200 1.476771
O21   O     O_3   0.220211 0.584517 0.597486 -0.655209
H7    H     H_    0.251995 0.621170 0.541599 0.282445
O22   O     O_3   0.605119 0.103351 0.196288 -0.613963
H8    H     H_    0.550699 0.148506 0.222989 0.289997
O23   O     O_3   0.189349 0.308836 0.792957 -0.639466
H9    H     H_    0.166801 0.256857 0.724660 0.297139
O24   O     O_3   0.926266 0.743339 0.339990 -0.642900
H10   H     H_    0.942253 0.652500 0.397271 0.289437
O25   O     O_3   0.428390 0.243200 0.813194 -0.631039
H11   H     H_    0.469080 0.226817 0.762622 0.308586
O26   O     O_3   0.686463 0.789605 0.318035 -0.608387
H12   H     H_    0.662558 0.844404 0.376133 0.319461

loop_
_geom_bond_atom_site_label_1
_geom_bond_atom_site_label_2
_ccdc_geom_bond_type
C13   C26   S    
C1    C24   S    
C14   C25   S    
C13   C15   A    
C5    C15   A    
O1    C3    A    
O2    C4    A    
C2    O7    A    
C21   C23   T    
O5    C3    A    
O13   V3    S    
O16   C28   A    
C18   H4    S    
C7    C9    A    
C12   H2    S    
C9    O21   S    
C21   C28   S    
O15   V3    S    
O20   V3    S    
C17   H3    S    
O11   V4    S    
O11   C27   A    
C26   O17   A    
C2    C23   S    
C17   C19   S    
C6    C16   A    
O10   V2    S    
C11   C13   A    
C22   C24   T    
O21   H7    S    
O6    V2    S    
O14   V4    S    
O22   H8    S    
C5    C19   S    
O13   C25   A    
C9    C11   A    
O14   C26   A    
C3    C8    S    
O25   H11   S    
O16   V4    S    
C17   O23   S    
O4    C2    A    
O5    V1    S    
C19   H5    S    
C18   C20   S    
O4    V2    S    
O12   V3    S    
O6    C4    A    
O1    V2    S    
O2    V1    S    
C6    C20   S    
C20   O26   S    
O18   V4    S    
O17   V3    S    
C8    C10   A    
C22   C27   S    
O19   V3    S    
C10   C12   A    
O19   V4    S    
O3    V1    S    
C19   O25   S    
C20   H6    S    
C12   C14   A    
O3    C1    A    
C25   O18   A    
O9    V1    S    
O7    V1    S    
C1    O8    A    
C15   C17   S    
O8    V2    S    
C10   O22   S    
C16   C18   S    
O15   C27   A    
C4    C7    S    
C14   C16   A    
C5    C7    A    
O20   V4    S    
C6    C8    A    
C11   H1    S    
O26   H12   S    
O23   H9    S    
O12   C28   A    
O24   H10   S    
O9    V2    S    
O10   V1    S    
C18   O24   S    
