data_mof_unit_35315.cif
_audit_creation_date              2012-12-10T18:25:12-0500
_audit_creation_method            fapswitch 2.2
_symmetry_space_group_name_H-M    P1
_symmetry_Int_Tables_number       1
_space_group_crystal_system       triclinic
_cell_length_a                    19.302806
_cell_length_b                    15.881916
_cell_length_c                    14.622907
_cell_angle_alpha                 89.591132
_cell_angle_beta                  89.749995
_cell_angle_gamma                 89.320232
_cell_volume                      4482.40875865

loop_
_atom_site_label
_atom_site_type_symbol
_atom_type_description
_atom_site_fract_x
_atom_site_fract_y
_atom_site_fract_z
_atom_type_partial_charge
C1    C     C_R   0.500218 0.339575 0.500268 0.836722
C2    C     C_R   0.499784 0.660425 0.499732 0.836688
C3    C     C_3   0.561863 0.972412 0.529598 0.014236
C4    C     C_3   0.438156 0.027587 0.470393 0.014234
C5    C     C_3   0.549648 0.025761 0.442377 0.013955
C6    C     C_3   0.450371 0.974238 0.557614 0.013961
C7    C     C_1   0.500290 0.250263 0.500603 -0.195198
C8    C     C_1   0.499718 0.749736 0.499395 -0.195219
C9    C     C_3   0.511921 0.031047 0.583779 -0.248155
C10   C     C_3   0.488098 0.968952 0.416213 -0.248159
C11   C     C_3   0.499625 0.083692 0.495979 0.085876
C12   C     C_3   0.500394 0.916307 0.504012 0.085883
C13   C     C_1   0.500117 0.174951 0.499073 -0.097159
C14   C     C_1   0.499897 0.825048 0.500922 -0.097154
C15   C     C_3   0.504209 0.579395 0.968582 -0.143401
C16   C     C_3   0.495789 0.420605 0.031418 -0.143404
C17   C     C_3   0.445490 0.544932 0.030762 -0.146139
C18   C     C_3   0.554508 0.455068 0.969238 -0.146134
C19   C     C_3   0.558719 0.534442 0.030202 -0.150206
C20   C     C_3   0.441279 0.465558 0.969798 -0.150219
C21   C     C_3   0.500001 0.499980 0.091270 0.090486
C22   C     C_3   0.499997 0.500020 0.908730 0.090485
C23   C     C_R   0.367246 0.500412 0.500312 0.840684
C24   C     C_R   0.632754 0.499584 0.499689 0.840726
C25   C     C_1   0.500001 0.499980 0.194093 0.096643
C26   C     C_1   0.499999 0.500019 0.805906 0.096637
C27   C     C_R   0.253354 0.545075 0.565779 0.489372
C28   C     C_R   0.746633 0.454812 0.434281 0.489385
C29   C     C_R   0.180909 0.542151 0.564373 -0.264764
C30   C     C_R   0.819080 0.457702 0.435692 -0.264767
C31   C     C_R   0.146303 0.489683 0.503153 -0.050868
C32   C     C_R   0.853698 0.510211 0.496858 -0.050847
C33   C     C_R   0.185261 0.438654 0.442108 0.028134
C34   C     C_R   0.814754 0.561317 0.557841 0.028164
C35   C     C_R   0.257513 0.445349 0.440488 -0.321663
C36   C     C_R   0.742498 0.554660 0.559460 -0.321678
C37   C     C_R   0.291518 0.498182 0.501412 -0.131923
C38   C     C_R   0.708481 0.501786 0.498590 -0.131887
C39   C     C_R   0.929977 0.506449 0.498420 0.415477
C40   C     C_R   0.070022 0.493417 0.501596 0.415494
Cu1   Cu    Cu3+1 0.500010 0.500000 0.590220 0.980421
Cu2   Cu    Cu3+1 0.499990 0.500000 0.409780 0.980414
H1    H     H_    0.392657 0.437079 0.945006 0.119855
H2    H     H_    0.607341 0.562921 0.054994 0.119871
H3    H     H_    0.151552 0.582988 0.609615 0.165722
H4    H     H_    0.848429 0.416809 0.390501 0.165685
H5    H     H_    0.287742 0.406463 0.394059 0.158593
H6    H     H_    0.712278 0.593603 0.605841 0.158544
H7    H     H_    0.478277 0.943389 0.347029 0.148000
H8    H     H_    0.521743 0.056610 0.652962 0.147993
H9    H     H_    0.400349 0.582124 0.055974 0.123992
H10   H     H_    0.599649 0.417875 0.944025 0.123995
H11   H     H_    0.507680 0.645125 0.942797 0.125869
H12   H     H_    0.492318 0.354875 0.057203 0.125863
N1    N     N_R   0.035079 0.486248 0.421786 -0.220300
N2    N     N_R   0.964918 0.513616 0.578230 -0.220291
N3    N     N_R   0.966315 0.492147 0.420302 -0.246611
N4    N     N_R   0.033683 0.507716 0.579714 -0.246614
N5    N     N_1   0.499980 0.500000 0.274190 -0.154188
N6    N     N_1   0.500020 0.500000 0.725810 -0.154186
O1    O     O_R   0.500010 0.379080 0.576170 -0.574921
O2    O     O_R   0.499990 0.620920 0.423830 -0.574914
O3    O     O_R   0.500000 0.379080 0.423800 -0.568994
O4    O     O_R   0.500000 0.620920 0.576200 -0.568993
O5    O     O_R   0.400150 0.499990 0.576210 -0.550512
O6    O     O_R   0.599850 0.500010 0.423790 -0.550524
O7    O     O_R   0.400140 0.499990 0.423840 -0.584373
O8    O     O_R   0.599860 0.500010 0.576160 -0.584358
O9    O     O_3   0.286896 0.600890 0.622380 -0.581438
C41   C     C_3   0.279749 0.573935 0.714031 -0.313529
H13   H     H_    0.313826 0.612751 0.757249 0.181672
H14   H     H_    0.296399 0.506995 0.723192 0.163175
H15   H     H_    0.225754 0.583280 0.738971 0.152511
O10   O     O_3   0.713072 0.398961 0.377741 -0.581454
C42   C     C_3   0.720272 0.425790 0.286053 -0.313589
H16   H     H_    0.703712 0.492749 0.276785 0.163154
H17   H     H_    0.686152 0.386986 0.242882 0.181656
H18   H     H_    0.774260 0.416306 0.261148 0.152538
C43   C     C_R   0.152985 0.374323 0.383449 0.129785
C44   C     C_R   0.166787 0.372716 0.289017 -0.148376
C45   C     C_R   0.137931 0.310482 0.234324 -0.135113
C46   C     C_R   0.095429 0.249251 0.273424 -0.123379
C47   C     C_R   0.081864 0.249973 0.367352 -0.140348
C48   C     C_R   0.110700 0.311972 0.422337 -0.126197
H19   H     H_    0.199646 0.419769 0.257792 0.128574
H20   H     H_    0.148604 0.309660 0.161612 0.126321
H21   H     H_    0.073252 0.201028 0.231013 0.120693
H22   H     H_    0.049329 0.202167 0.397657 0.126912
H23   H     H_    0.100477 0.311090 0.495221 0.123083
C49   C     C_R   0.847051 0.625688 0.616432 0.129760
C50   C     C_R   0.889390 0.687954 0.577485 -0.126192
C51   C     C_R   0.918252 0.749985 0.632403 -0.140288
C52   C     C_R   0.904659 0.750826 0.726322 -0.123426
C53   C     C_R   0.862101 0.689684 0.765480 -0.135123
C54   C     C_R   0.833220 0.627417 0.710854 -0.148413
H24   H     H_    0.899638 0.688745 0.504606 0.123091
H25   H     H_    0.950832 0.797722 0.602053 0.126928
H26   H     H_    0.926857 0.799073 0.768681 0.120695
H27   H     H_    0.851405 0.690599 0.838183 0.126334
H28   H     H_    0.800318 0.580432 0.742125 0.128582
C55   C     C_R   0.606643 0.045014 0.374533 0.100354
C56   C     C_R   0.644087 0.977724 0.335577 -0.133696
C57   C     C_R   0.697964 0.992999 0.273715 -0.133361
C58   C     C_R   0.714904 0.075576 0.249972 -0.119331
C59   C     C_R   0.677910 0.142930 0.288006 -0.123860
C60   C     C_R   0.623978 0.127899 0.349942 -0.141165
H29   H     H_    0.631725 0.913324 0.353563 0.129549
H30   H     H_    0.726631 0.940784 0.244274 0.125356
H31   H     H_    0.756659 0.087375 0.202108 0.121939
H32   H     H_    0.691057 0.206932 0.269544 0.146004
H33   H     H_    0.596580 0.181311 0.377860 0.149978
C61   C     C_R   0.393376 0.954986 0.625459 0.100356
C62   C     C_R   0.355931 0.022277 0.664412 -0.133699
C63   C     C_R   0.302053 0.007003 0.726273 -0.133370
C64   C     C_R   0.285113 0.924428 0.750018 -0.119315
C65   C     C_R   0.322109 0.857072 0.711988 -0.123882
C66   C     C_R   0.376042 0.872102 0.650053 -0.141216
H34   H     H_    0.368293 0.086677 0.646423 0.129552
H35   H     H_    0.273385 0.059220 0.755712 0.125353
H36   H     H_    0.243357 0.912630 0.797882 0.121945
H37   H     H_    0.308962 0.793071 0.730452 0.146049
H38   H     H_    0.403440 0.818689 0.622139 0.149966
C67   C     C_R   0.633424 0.950979 0.565138 0.110115
C68   C     C_R   0.679316 0.016878 0.582942 -0.130879
C69   C     C_R   0.746305 0.999624 0.614414 -0.139486
C70   C     C_R   0.768136 0.916437 0.628649 -0.106189
C71   C     C_R   0.722955 0.850421 0.611519 -0.132509
C72   C     C_R   0.655877 0.867436 0.579999 -0.160380
H39   H     H_    0.663252 0.081739 0.571955 0.133127
H40   H     H_    0.781319 0.050796 0.627678 0.128917
H41   H     H_    0.820008 0.903185 0.653006 0.129031
H42   H     H_    0.739919 0.785946 0.622647 0.141941
H43   H     H_    0.622463 0.815006 0.567635 0.135611
C73   C     C_R   0.366599 0.049018 0.434840 0.110099
C74   C     C_R   0.320694 0.983121 0.417084 -0.130876
C75   C     C_R   0.253711 0.000374 0.385590 -0.139490
C76   C     C_R   0.231900 0.083558 0.371281 -0.106205
C77   C     C_R   0.277094 0.149572 0.388360 -0.132512
C78   C     C_R   0.344166 0.132557 0.419902 -0.160369
H44   H     H_    0.336744 0.918262 0.428123 0.133128
H45   H     H_    0.218686 0.949203 0.372364 0.128912
H46   H     H_    0.180033 0.096809 0.346905 0.129012
H47   H     H_    0.260146 0.214044 0.377171 0.141940
H48   H     H_    0.377594 0.184985 0.432216 0.135621

loop_
_geom_bond_atom_site_label_1
_geom_bond_atom_site_label_2
_ccdc_geom_bond_type
C59   H32   S    
C16   C21   S    
C27   C29   A    
Cu1   Cu2   S    
Cu1   O1    S    
C42   H16   S    
C28   O10   S    
C17   H9    S    
C6    C9    S    
C63   C64   A    
C49   C50   A    
C18   H10   S    
C67   C68   A    
C31   C40   S    
C15   C19   S    
C52   C53   A    
C15   H11   S    
C35   C37   A    
C5    C11   S    
C77   H47   S    
C6    C12   S    
C61   C66   A    
C1    O1    A    
C64   C65   A    
C39   N3    A    
C17   C20   S    
C65   C66   A    
C18   C19   S    
C32   C39   S    
C23   O7    A    
C71   H42   S    
C61   C62   A    
C3    C12   S    
C50   H24   S    
C69   H40   S    
C15   C22   S    
C47   C48   A    
C3    C67   S    
C24   C38   S    
C31   C33   A    
C57   H30   S    
Cu2   O2    S    
C45   H20   S    
C27   O9    S    
C24   O6    A    
C47   H22   S    
C35   H5    S    
C1    C7    S    
C43   C48   A    
C56   C57   A    
C1    O3    A    
C58   C59   A    
C2    O4    A    
C51   H25   S    
C45   C46   A    
Cu1   O8    S    
C60   H33   S    
C74   H44   S    
C5    C55   S    
C76   H46   S    
C40   N4    A    
C65   H37   S    
C55   C56   A    
C74   C75   A    
C4    C6    S    
O10   C42   S    
C50   C51   A    
C54   H28   S    
C33   C43   S    
Cu1   O5    S    
C23   C37   S    
C17   C21   S    
C43   C44   A    
C29   H3    S    
C32   C34   A    
C66   H38   S    
C34   C49   S    
C44   H19   S    
C3    C9    S    
C9    C11   S    
C78   H48   S    
C39   N2    A    
C28   C38   A    
C16   C20   S    
C40   N1    A    
C41   H15   S    
C46   H21   S    
C56   H29   S    
C4    C11   S    
C42   H17   S    
C41   H13   S    
C10   C12   S    
O9    C41   S    
C12   C14   S    
C64   H36   S    
N1    N3    A    
Cu2   O7    S    
C48   H23   S    
C4    C10   S    
C71   C72   A    
C73   C78   A    
C20   H1    S    
C19   H2    S    
C4    C73   S    
C62   C63   A    
C76   C77   A    
C55   C60   A    
C15   C17   S    
C21   C25   S    
C8    C14   T    
C19   C21   S    
C18   C22   S    
C6    C61   S    
C30   H4    S    
C2    C8    S    
C9    H8    S    
C63   H35   S    
Cu1   N6    S    
C20   C22   S    
C44   C45   A    
C3    C5    S    
C49   C54   A    
Cu2   N5    S    
C73   C74   A    
C59   C60   A    
C53   H27   S    
C23   O5    A    
C28   C30   A    
C5    C10   S    
C29   C31   A    
C72   H43   S    
C30   C32   A    
C11   C13   S    
C67   C72   A    
C69   C70   A    
C70   H41   S    
C27   C37   A    
C70   C71   A    
C52   H26   S    
C36   C38   A    
C51   C52   A    
C33   C35   A    
C75   H45   S    
N2    N4    A    
C68   H39   S    
C36   H6    S    
C34   C36   A    
C53   C54   A    
C42   H18   S    
C16   H12   S    
C77   C78   A    
C24   O8    A    
C62   H34   S    
C7    C13   T    
C16   C18   S    
C46   C47   A    
C22   C26   S    
C57   C58   A    
Cu2   O6    S    
C58   H31   S    
C75   C76   A    
C41   H14   S    
C25   N5    T    
Cu1   O4    S    
C10   H7    S    
C26   N6    T    
Cu2   O3    S    
C2    O2    A    
C68   C69   A    
