data_mof_unit_18708.cif
_audit_creation_date              2012-12-10T17:08:41-0500
_audit_creation_method            fapswitch 2.2
_symmetry_space_group_name_H-M    P1
_symmetry_Int_Tables_number       1
_space_group_crystal_system       triclinic
_cell_length_a                    27.670011
_cell_length_b                    11.004124
_cell_length_c                    10.03177
_cell_angle_alpha                 109.822463
_cell_angle_beta                  99.871018
_cell_angle_gamma                 94.584312
_cell_volume                      2799.405296

loop_
_atom_site_label
_atom_site_type_symbol
_atom_type_description
_atom_site_fract_x
_atom_site_fract_y
_atom_site_fract_z
_atom_type_partial_charge
C1    C     C_R   0.495699 0.254383 0.440671 0.801817
C2    C     C_R   0.504300 0.745618 0.559330 0.801791
C3    C     C_R   0.101827 0.530945 0.490041 -0.087543
C4    C     C_R   0.898178 0.469359 0.509682 -0.087571
C5    C     C_R   0.117478 0.458721 0.363676 0.018216
C6    C     C_R   0.882536 0.541515 0.636093 0.018234
C7    C     C_R   0.082232 0.382151 0.239639 -0.170758
C8    C     C_R   0.917785 0.618096 0.760122 -0.170762
C9    C     C_R   0.137355 0.615975 0.611864 -0.163259
C10   C     C_R   0.862645 0.384380 0.387839 -0.163273
C11   C     C_R   0.354791 0.504847 0.494832 -0.097349
C12   C     C_R   0.645212 0.495231 0.505167 -0.097285
C13   C     C_R   0.965345 0.403574 0.382515 -0.114989
C14   C     C_R   0.034655 0.596766 0.617161 -0.114991
C15   C     C_R   0.984178 0.573536 0.626429 0.094887
C16   C     C_R   0.015825 0.426786 0.373266 0.094854
C17   C     C_R   0.949351 0.482711 0.505645 0.014406
C18   C     C_R   0.050652 0.517609 0.494052 0.014426
C19   C     C_R   0.930691 0.297451 0.278013 0.357902
C20   C     C_R   0.069300 0.702925 0.721626 0.357873
C21   C     C_R   0.879535 0.294091 0.273465 0.154824
C22   C     C_R   0.120457 0.706311 0.726181 0.154796
C23   C     C_R   0.407692 0.499964 0.498281 0.825818
C24   C     C_R   0.592308 0.500043 0.501718 0.825802
C25   C     C_R   0.032271 0.368330 0.243568 -0.166961
C26   C     C_R   0.967739 0.631980 0.756147 -0.166904
C27   C     C_2   0.487446 0.113750 0.405537 -0.004763
C28   C     C_2   0.512551 0.886254 0.594467 -0.004701
C29   C     C_2   0.508202 0.065831 0.503393 -0.201806
C30   C     C_2   0.491811 0.934161 0.496581 -0.201778
C31   C     C_2   0.504589 0.514103 0.082537 0.542189
C32   C     C_2   0.495414 0.485887 0.917461 0.542275
C33   C     C_R   0.168215 0.465276 0.363846 0.584758
C34   C     C_R   0.831802 0.534888 0.635977 0.584783
C35   C     C_R   0.188199 0.608665 0.611064 0.611979
C36   C     C_R   0.811803 0.391690 0.388676 0.611900
C37   C     C_R   0.286947 0.631365 0.504892 -0.100383
C38   C     C_R   0.713056 0.368688 0.494602 -0.100286
C39   C     C_R   0.337062 0.623012 0.508052 -0.227221
C40   C     C_R   0.662940 0.376980 0.491487 -0.227173
C41   C     C_R   0.321934 0.393547 0.477791 0.085153
C42   C     C_R   0.678069 0.606669 0.522585 0.084953
C43   C     C_R   0.271682 0.403468 0.481697 0.196996
C44   C     C_R   0.728322 0.596824 0.518615 0.197082
C45   C     C_R   0.254037 0.522513 0.492097 0.246150
C46   C     C_R   0.745970 0.477690 0.507787 0.246051
Cu1   Cu    Cu3+1 0.508480 0.521810 0.644910 1.022062
Cu2   Cu    Cu3+1 0.491520 0.478190 0.355090 1.022015
H1    H     H_    0.093112 0.331528 0.138757 0.189850
H2    H     H_    0.906910 0.668695 0.861025 0.189843
H3    H     H_    0.637918 0.291194 0.479454 0.156896
H4    H     H_    0.362081 0.708681 0.519762 0.156956
H5    H     H_    0.726413 0.277045 0.486023 0.174813
H6    H     H_    0.273588 0.722934 0.513119 0.174800
H7    H     H_    0.007006 0.314419 0.141734 0.205659
H8    H     H_    0.993008 0.685921 0.857964 0.205627
H9    H     H_    0.462650 0.871923 0.407281 0.187224
H10   H     H_    0.537373 0.128058 0.592672 0.187248
N1    N     N_R   0.202350 0.533150 0.488727 -0.460444
N2    N     N_R   0.797659 0.467098 0.511082 -0.460425
N3    N     N_2   0.478780 0.445430 0.137360 -0.080286
N4    N     N_2   0.521220 0.554570 0.862640 -0.080311
O1    O     O_R   0.504520 0.332330 0.577400 -0.568908
O2    O     O_R   0.495480 0.667670 0.422600 -0.568973
O3    O     O_R   0.490210 0.295500 0.332650 -0.595549
O4    O     O_R   0.509790 0.704500 0.667350 -0.595517
O5    O     O_R   0.437420 0.518430 0.622370 -0.526144
O6    O     O_R   0.562580 0.481570 0.377630 -0.526154
O7    O     O_R   0.423110 0.481600 0.377610 -0.581329
O8    O     O_R   0.576890 0.518400 0.622390 -0.581304
O9    O     O_2   0.183493 0.401220 0.241411 -0.508895
O10   O     O_2   0.816537 0.598789 0.758485 -0.508918
O11   O     O_2   0.776703 0.328484 0.267933 -0.480200
O12   O     O_2   0.223296 0.671972 0.731784 -0.480175
I1    I     I_    0.347675 0.210060 0.435827 -0.299715
I2    I     I_    0.652313 0.790193 0.565068 -0.299876
I3    I     I_    0.561465 0.002664 0.795327 -0.405313
I4    I     I_    0.438484 0.997376 0.204758 -0.405303
O13   O     O_3   0.459119 0.384931 0.823975 -0.548253
C47   C     C_3   0.475762 0.265094 0.818169 0.105276
H11   H     H_    0.487453 0.257894 0.926005 0.120246
H12   H     H_    0.509255 0.253920 0.772149 0.170439
C48   C     C_3   0.434646 0.152061 0.728102 -0.691080
H13   H     H_    0.428996 0.140816 0.612753 0.268467
H14   H     H_    0.444571 0.059997 0.739960 0.214990
H15   H     H_    0.399185 0.169939 0.762939 0.254866
O14   O     O_3   0.540900 0.615017 0.176018 -0.548277
C49   C     C_3   0.524278 0.734886 0.181875 0.105227
H16   H     H_    0.490781 0.746071 0.227873 0.170392
H17   H     H_    0.512598 0.742133 0.074059 0.120248
C50   C     C_3   0.565405 0.847870 0.272005 -0.691071
H18   H     H_    0.600862 0.829995 0.237131 0.254805
H19   H     H_    0.555488 0.939977 0.260248 0.214949
H20   H     H_    0.571058 0.859021 0.387330 0.268464
O15   O     O_3   0.569567 0.586699 0.932327 -0.508681
C51   C     C_3   0.590407 0.704241 0.922537 0.211079
H21   H     H_    0.575293 0.789354 0.987608 0.130532
H22   H     H_    0.584321 0.705404 0.812560 0.209994
C52   C     C_3   0.646318 0.724890 0.977615 -0.726070
H23   H     H_    0.655233 0.723625 0.089273 0.260702
H24   H     H_    0.662752 0.645965 0.905491 0.262859
H25   H     H_    0.662963 0.820385 0.978220 0.231475
O16   O     O_3   0.430434 0.413286 0.067662 -0.508672
C53   C     C_3   0.409603 0.295735 0.077450 0.211056
H26   H     H_    0.415668 0.294601 0.187438 0.209946
H27   H     H_    0.424744 0.210645 0.012448 0.130565
C54   C     C_3   0.353696 0.275014 0.022270 -0.726077
H28   H     H_    0.337061 0.179495 0.021627 0.231452
H29   H     H_    0.337235 0.353900 0.094356 0.262834
H30   H     H_    0.344799 0.276291 0.910615 0.260778
I5    I     I_    0.222575 0.242826 0.480884 -0.227104
I6    I     I_    0.777413 0.757715 0.519883 -0.227026
I7    I     I_    0.832242 0.135647 0.098357 -0.154342
I8    I     I_    0.167737 0.864848 0.901204 -0.154395
O17   O     O_3   0.946367 0.189881 0.186330 -0.579257
C55   C     C_3   0.960280 0.107842 0.264023 0.074011
H31   H     H_    0.928065 0.072454 0.301165 0.162724
H32   H     H_    0.991021 0.159551 0.359769 0.147676
C56   C     C_3   0.978261 0.989695 0.165806 -0.733707
H33   H     H_    0.012091 0.021573 0.133588 0.254965
H34   H     H_    0.987432 0.922338 0.224357 0.201677
H35   H     H_    0.948898 0.936830 0.067328 0.256902
O18   O     O_3   0.053611 0.810517 0.813245 -0.579249
C57   C     C_3   0.039694 0.892490 0.735475 0.074056
H36   H     H_    0.008978 0.840720 0.639693 0.147644
H37   H     H_    0.071913 0.927908 0.698379 0.162762
C58   C     C_3   0.021671 0.010611 0.833590 -0.733724
H38   H     H_    0.051003 0.063520 0.932126 0.256877
H39   H     H_    0.012511 0.077943 0.774994 0.201681
H40   H     H_    0.987827 0.978706 0.865719 0.254955

loop_
_geom_bond_atom_site_label_1
_geom_bond_atom_site_label_2
_ccdc_geom_bond_type
O14   C49   S    
C51   C52   S    
C35   O12   S    
C8    H2    S    
C27   C29   D    
C8    C26   A    
C31   N3    D    
O15   C51   S    
Cu2   O7    S    
C27   I4    S    
Cu1   N4    S    
C53   H27   S    
C24   O8    A    
O18   C57   S    
C43   I5    S    
N3    O16   S    
Cu1   O1    S    
C50   H20   S    
C9    C22   A    
Cu2   O2    S    
C50   H19   S    
O17   C55   S    
C30   H9    S    
C55   H31   S    
C3    C18   A    
C35   N1    A    
C23   O5    A    
C23   O7    A    
C20   O18   S    
C12   C42   A    
C48   H13   S    
C44   C46   A    
C5    C33   A    
C1    O3    A    
C54   H28   S    
Cu2   O3    S    
Cu1   O4    S    
C48   H14   S    
C1    C27   S    
C49   H16   S    
C39   H4    S    
C33   N1    A    
N4    O15   S    
C34   N2    A    
C41   C43   A    
C42   C44   A    
C47   C48   S    
C1    O1    A    
Cu1   O5    S    
C53   H26   S    
C2    O2    A    
C56   H34   S    
C10   C21   A    
C31   O14   S    
C13   C19   A    
C14   C20   A    
C7    H1    S    
C4    C6    A    
C50   H18   S    
C5    C7    A    
C24   O6    A    
C15   C26   A    
C6    C8    A    
C36   N2    A    
C6    C34   A    
C51   H22   S    
C12   C40   A    
C58   H39   S    
Cu1   O8    S    
C29   C30   S    
C3    C9    A    
C41   I1    S    
Cu1   Cu2   S    
C49   C50   S    
C19   O17   S    
C51   H21   S    
C52   H25   S    
Cu2   O6    S    
C11   C39   A    
C28   I3    S    
C43   C45   A    
C57   C58   S    
C4    C17   A    
C44   I6    S    
C21   I7    S    
C52   H24   S    
C49   H17   S    
C54   H30   S    
C37   H6    S    
C4    C10   A    
C58   H38   S    
C34   O10   S    
C57   H37   S    
C56   H35   S    
C16   C25   A    
C15   C17   A    
C45   N1    S    
C46   N2    S    
C14   C18   A    
C31   C32   S    
C25   H7    S    
C20   C22   A    
C47   H11   S    
C3    C5    A    
C26   H8    S    
C10   C36   A    
C56   H33   S    
C55   C56   S    
C2    O4    A    
C40   H3    S    
C12   C24   S    
C42   I2    S    
C7    C25   A    
C52   H23   S    
C13   C17   A    
C28   C30   D    
C58   H40   S    
C32   N4    D    
C37   C39   A    
C32   O13   S    
C38   C40   A    
Cu2   N3    S    
C54   H29   S    
C38   H5    S    
C11   C23   S    
C47   H12   S    
C55   H32   S    
C11   C41   A    
C38   C46   A    
C36   O11   S    
C33   O9    S    
O13   C47   S    
C22   I8    S    
C48   H15   S    
C29   H10   S    
C16   C18   A    
C13   C16   A    
O16   C53   S    
C9    C35   A    
C14   C15   A    
C2    C28   S    
C37   C45   A    
C53   C54   S    
C57   H36   S    
C19   C21   A    
