data_mof_unit_57348.cif
_audit_creation_date              2013-03-05T16:43:02-0500
_audit_creation_method            fapswitch 2.2
_symmetry_space_group_name_H-M    P1
_symmetry_Int_Tables_number       1
_space_group_crystal_system       triclinic
_cell_length_a                    10.641251
_cell_length_b                    10.658087
_cell_length_c                    9.854465
_cell_angle_alpha                 90.026969
_cell_angle_beta                  90.028593
_cell_angle_gamma                 89.828459
_cell_volume                      1117.64261093

loop_
_atom_site_label
_atom_site_type_symbol
_atom_site_description
_atom_site_fract_x
_atom_site_fract_y
_atom_site_fract_z
_atom_type_partial_charge
O1    O     O_R   0.500020 0.316790 0.614690 -0.604114
O2    O     O_R   0.500000 0.316760 0.385350 -0.582877
C1    C     C_R   0.508612 0.260109 0.499693 0.930656
O3    O     O_R   0.314800 0.500000 0.614670 -0.632510
O4    O     O_R   0.314790 0.499960 0.385330 -0.635142
C2    C     C_R   0.257650 0.498719 0.499802 0.845179
Zn1   Zn    Zn3+2 0.500010 0.500020 0.653130 0.961396
Zn2   Zn    Zn3+2 0.499990 0.499980 0.346870 0.983880
O5    O     O_R   0.500000 0.683240 0.614650 -0.621904
O6    O     O_R   0.499980 0.683210 0.385310 -0.628736
O7    O     O_R   0.685210 0.500040 0.614670 -0.625423
O8    O     O_R   0.685200 0.500000 0.385330 -0.608289
C3    C     C_R   0.503905 0.740088 0.500088 0.903886
C4    C     C_R   0.742328 0.498198 0.499848 0.881872
C5    C     C_3   0.074107 0.384700 0.585142 -0.463383
H1    H     H_    0.110368 0.391101 0.690765 0.157615
H2    H     H_    0.111145 0.295337 0.542241 0.195628
C6    C     C_3   0.929288 0.385941 0.589110 0.186008
H3    H     H_    0.900783 0.404956 0.696118 0.120268
H4    H     H_    0.105561 0.633152 0.666510 0.181138
H5    H     H_    0.891850 0.634689 0.665029 0.185625
C7    C     C_3   0.071389 0.621517 0.560443 -0.399322
C8    C     C_3   0.071302 0.482439 0.352148 -0.397745
C9    C     C_3   0.121328 0.496960 0.499420 0.125465
H6    H     H_    0.106310 0.560147 0.286881 0.179316
H7    H     H_    0.104407 0.392064 0.307850 0.196792
C10   C     C_3   0.878723 0.496102 0.499383 0.033397
C11   C     C_3   0.927038 0.621531 0.559561 -0.469876
C12   C     C_3   0.928740 0.485176 0.351581 -0.337324
H8    H     H_    0.892076 0.400090 0.300032 0.249799
H9    H     H_    0.896577 0.567228 0.290541 0.172267
H10   H     H_    0.106524 0.702666 0.500461 0.176941
H11   H     H_    0.891955 0.702184 0.498348 0.193902
C13   C     C_R   0.521268 0.064162 0.622128 0.189649
C14   C     C_R   0.535334 0.128893 0.500247 -0.213340
C15   C     C_R   0.572769 0.062897 0.381750 0.331729
C16   C     C_R   0.565717 0.932610 0.383342 -0.288139
H12   H     H_    0.586281 0.880376 0.291567 0.199483
C17   C     C_R   0.526269 0.871126 0.501366 -0.186619
C18   C     C_R   0.517628 0.936539 0.622820 0.139300
C19   C     C_3   0.418869 0.932351 0.730480 -0.464457
C20   C     C_3   0.422571 0.074500 0.729801 -0.470358
H13   H     H_    0.328308 0.893263 0.693361 0.198811
H14   H     H_    0.454657 0.890579 0.826446 0.223759
H15   H     H_    0.334055 0.118155 0.692233 0.188044
H16   H     H_    0.460257 0.114864 0.825553 0.242111
C21   C     C_R   0.440064 0.407103 0.071177 0.308048
N1    N     N_R   0.499150 0.499140 0.142800 -0.114507
C22   C     C_R   0.568697 0.584806 0.072109 -0.120812
H17   H     H_    0.622179 0.654762 0.126621 0.149268
C23   C     C_R   0.568669 0.584849 0.928033 -0.128813
H18   H     H_    0.622076 0.654879 0.873667 0.153600
N2    N     N_R   0.499150 0.499180 0.857150 -0.114277
C24   C     C_R   0.439944 0.407206 0.928488 0.245286
C25   C     C_3   0.303111 0.378425 0.922795 -0.536127
C26   C     C_3   0.303318 0.378061 0.076660 -0.524949
H19   H     H_    0.246953 0.456701 0.879099 0.215753
H20   H     H_    0.284170 0.284689 0.878091 0.209192
H21   H     H_    0.247277 0.456136 0.120537 0.208350
H22   H     H_    0.284921 0.284068 0.121122 0.221522
N3    N     N_R   0.611227 0.124869 0.259078 0.223744
O9    O     O_R   0.695825 0.212648 0.263427 -0.339323
O10   O     O_R   0.577184 0.080599 0.141593 -0.427913
N4    N     N_R   0.877503 0.263566 0.549886 0.205684
O11   O     O_R   0.804615 0.203898 0.633693 -0.399111
O12   O     O_R   0.913008 0.207890 0.438718 -0.378970

loop_
_geom_bond_atom_site_label_1
_geom_bond_atom_site_label_2
_geom_bond_distance
_ccdc_geom_bond_type
C8    H7    1.113639 S    
C5    C6    1.541586 S    
C23   N2    1.368142 A    
C25   C26   1.516266 S    
Zn2   N1    2.011032 S    
C18   C19   1.494470 S    
C12   H8    1.110921 S    
C4    C10   1.451529 S    
O4    Zn2   2.007060 S    
C19   C20   1.515682 S    
C21   N1    1.363204 A    
C13   C20   1.497108 S    
C26   H21   1.109939 S    
C1    C14   1.426308 S    
Zn2   O8    2.006791 S    
C2    C9    1.450820 S    
N4    O11   1.300839 A    
C8    H6    1.113987 S    
O2    C1    1.281726 A    
C23   H18   1.081809 S    
C16   C17   1.400434 A    
C7    C11   1.536099 S    
N2    C24   1.362664 A    
Zn1   O7    2.007058 S    
C19   H13   1.112633 S    
C6    N4    1.468956 S    
C16   H12   1.083848 S    
C7    H10   1.113482 S    
O3    Zn1   2.006793 S    
C13   C18   1.360908 A    
O4    C2    1.281854 A    
C8    C12   1.517248 S    
Zn2   O6    1.989106 S    
N1    C22   1.368127 A    
C19   H14   1.112022 S    
H5    C11   1.113561 S    
H4    C7    1.113500 S    
C11   H11   1.113781 S    
C22   H17   1.081774 S    
C21   C24   1.406125 A    
C25   H19   1.111598 S    
N3    O9    1.300957 A    
O7    C4    1.284807 A    
C7    C9    1.549746 S    
C3    C17   1.417493 S    
O3    C2    1.284806 A    
C10   C12   1.555151 S    
Zn1   N2    2.010558 S    
C8    C9    1.553414 S    
C15   N3    1.438043 S    
C26   H22   1.111554 S    
C17   C18   1.387783 A    
C6    H3    1.115710 S    
C12   H9    1.114561 S    
C13   C14   1.393745 A    
C20   H16   1.111994 S    
C25   H20   1.110624 S    
C10   C11   1.551191 S    
Zn1   O5    1.989425 S    
O5    C3    1.282259 A    
C24   C25   1.489963 S    
C15   C16   1.390959 A    
O1    Zn1   1.989105 S    
C14   C15   1.419521 A    
C22   C23   1.419791 A    
C5    H2    1.112987 S    
C5    C9    1.550045 S    
O6    C3    1.283757 A    
N3    O10   1.301660 A    
O2    Zn2   1.989425 S    
C6    C10   1.564161 S    
C5    H1    1.112040 S    
O8    C4    1.281692 A    
C21   C26   1.489617 S    
O1    C1    1.287111 A    
C20   H15   1.112626 S    
N4    O12   1.301329 A    
