data_mof_unit_67227.cif
_audit_creation_date              2013-03-05T16:01:26-0500
_audit_creation_method            fapswitch 2.2
_symmetry_space_group_name_H-M    P1
_symmetry_Int_Tables_number       1
_space_group_crystal_system       triclinic
_cell_length_a                    20.044769
_cell_length_b                    20.585755
_cell_length_c                    8.535326
_cell_angle_alpha                 89.921179
_cell_angle_beta                  91.974447
_cell_angle_gamma                 89.898068
_cell_volume                      3519.88854456

loop_
_atom_site_label
_atom_site_type_symbol
_atom_site_description
_atom_site_fract_x
_atom_site_fract_y
_atom_site_fract_z
_atom_type_partial_charge
P1    P     P_3+3 0.136530 0.426510 0.931350 0.557337
P2    P     P_3+3 0.136530 0.573490 0.431350 0.544919
P3    P     P_3+3 0.636530 0.926510 0.931350 0.552274
P4    P     P_3+3 0.636530 0.073490 0.431350 0.536816
O1    O     O_2   0.130070 0.404060 0.104920 -0.284041
O2    O     O_2   0.130070 0.595940 0.604920 -0.292779
O3    O     O_2   0.630070 0.904060 0.104920 -0.284513
O4    O     O_2   0.630070 0.095940 0.604920 -0.308762
O5    O     O_3   0.075780 0.466370 0.861070 -0.379973
O6    O     O_3   0.075780 0.533630 0.361070 -0.386528
O7    O     O_3   0.575780 0.966370 0.861070 -0.386995
O8    O     O_3   0.575780 0.033630 0.361070 -0.380201
O9    O     O_3   0.022320 0.344950 0.359800 -0.334397
O10   O     O_3   0.022320 0.655050 0.859800 -0.314698
O11   O     O_3   0.522320 0.844950 0.359800 -0.321532
O12   O     O_3   0.522320 0.155050 0.859800 -0.311557
O13   O     O_2   0.140713 0.307768 0.272293 -0.275991
O14   O     O_2   0.138982 0.695100 0.767933 -0.305810
O15   O     O_2   0.638679 0.804376 0.268442 -0.279920
O16   O     O_2   0.637655 0.199796 0.774803 -0.318035
O17   O     O_3   0.208100 0.473191 0.965625 -0.571823
O18   O     O_3   0.206460 0.523948 0.467871 -0.547863
O19   O     O_3   0.707244 0.974638 0.963396 -0.567859
O20   O     O_3   0.708024 0.026095 0.462805 -0.559420
O21   O     O_3   0.062400 0.212355 0.299411 -0.472031
O22   O     O_3   0.059136 0.788489 0.796595 -0.487492
O23   O     O_3   0.558754 0.711316 0.300620 -0.472924
O24   O     O_3   0.554769 0.292279 0.815204 -0.510298
C1    C     C_3   0.017978 0.106262 0.315368 -0.766400
C2    C     C_3   0.016117 0.895029 0.813946 -0.720317
C3    C     C_3   0.517490 0.604548 0.319691 -0.701701
C4    C     C_3   0.499616 0.392089 0.864436 -0.984160
H1    H     H_    0.985092 0.112000 0.210110 0.215896
H2    H     H_    0.981457 0.889412 0.711983 0.238172
H3    H     H_    0.484012 0.609408 0.215227 0.204714
H4    H     H_    0.498651 0.405790 0.738826 0.267735
H5    H     H_    0.067039 0.087881 0.278588 0.263408
H6    H     H_    0.064740 0.912523 0.772544 0.268817
H7    H     H_    0.566936 0.587655 0.281724 0.282751
H8    H     H_    0.546526 0.411165 0.919381 0.281260
P5    P     P_3+3 0.863410 0.426100 0.379280 0.484595
P6    P     P_3+3 0.863410 0.573900 0.879280 0.490623
P7    P     P_3+3 0.363410 0.926100 0.379280 0.479494
P8    P     P_3+3 0.363410 0.073900 0.879280 0.495590
P9    P     P_3+3 0.911871 0.289406 0.926228 0.556117
P10   P     P_3+3 0.913283 0.711944 0.427529 0.488864
P11   P     P_3+3 0.411678 0.789664 0.927322 0.559841
P12   P     P_3+3 0.414452 0.212085 0.422016 0.462056
O25   O     O_2   0.869860 0.403670 0.205810 -0.317666
O26   O     O_2   0.869860 0.596330 0.705810 -0.357581
O27   O     O_2   0.369860 0.903670 0.205810 -0.314745
O28   O     O_2   0.369860 0.096330 0.705810 -0.354299
O29   O     O_3   0.977590 0.344880 0.951200 -0.346541
O30   O     O_3   0.977590 0.655120 0.451200 -0.375375
O31   O     O_3   0.477590 0.844880 0.951200 -0.345780
O32   O     O_3   0.477590 0.155120 0.451200 -0.394730
O33   O     O_2   0.856087 0.310234 0.035333 -0.326085
O34   O     O_2   0.858361 0.692643 0.540441 -0.366236
O35   O     O_2   0.356142 0.810629 0.036666 -0.330646
O36   O     O_2   0.358729 0.196072 0.536319 -0.365644
O37   O     O_3   0.789062 0.470474 0.371348 -0.548522
O38   O     O_3   0.789965 0.528942 0.884194 -0.584395
O39   O     O_3   0.289284 0.970829 0.370209 -0.558126
O40   O     O_3   0.290991 0.027188 0.886224 -0.587786
O41   O     O_3   0.935966 0.213157 0.002215 -0.452334
O42   O     O_3   0.939956 0.787672 0.501067 -0.477174
O43   O     O_3   0.435888 0.713721 0.004279 -0.440532
O44   O     O_3   0.445194 0.287870 0.483507 -0.526104
C5    C     C_3   0.970135 0.176791 0.889891 0.322542
C6    C     C_3   0.973930 0.822989 0.386633 0.343135
C7    C     C_3   0.471143 0.677755 0.893350 0.337541
C8    C     C_3   0.502035 0.305103 0.400088 0.193927
H9    H     H_    0.967720 0.199333 0.772193 -0.040734
H10   H     H_    0.968911 0.800590 0.269332 -0.100138
H11   H     H_    0.468965 0.700146 0.775415 -0.045683
H12   H     H_    0.506260 0.276425 0.292911 0.075622
C9    C     C_3   0.937511 0.109257 0.873601 -0.775455
C10   C     C_3   0.942817 0.891641 0.372185 -0.575829
C11   C     C_3   0.439092 0.610135 0.876469 -0.780071
C12   C     C_3   0.496641 0.378288 0.360778 -0.547464
H13   H     H_    0.941282 0.081924 0.985184 0.219348
H14   H     H_    0.951643 0.920237 0.480222 0.212876
H15   H     H_    0.440111 0.583758 0.989346 0.214717
H16   H     H_    0.497353 0.407162 0.470396 0.235402
H17   H     H_    0.883549 0.115605 0.844797 0.218121
H18   H     H_    0.887931 0.886686 0.355332 0.182659
H19   H     H_    0.385832 0.616760 0.840923 0.219033
H20   H     H_    0.447854 0.387833 0.299124 0.178611
C13   C     C_3   0.792435 0.472431 0.795118 0.257871
C14   C     C_3   0.797385 0.534819 0.323612 0.242020
C15   C     C_3   0.289975 0.975585 0.780403 0.274801
C16   C     C_3   0.297765 0.034950 0.320886 0.229658
H21   H     H_    0.800538 0.484603 0.670611 0.067316
H22   H     H_    0.815742 0.536325 0.202442 0.025830
H23   H     H_    0.296755 0.993571 0.659715 0.081565
H24   H     H_    0.316278 0.035860 0.199892 0.032215
H25   H     H_    0.832999 0.439917 0.841186 0.043293
H26   H     H_    0.832941 0.560668 0.404572 0.063004
H27   H     H_    0.329899 0.940086 0.813553 0.026879
H28   H     H_    0.333297 0.061101 0.401342 0.061907
C17   C     C_3   0.724386 0.439095 0.810779 0.597833
C18   C     C_3   0.727664 0.566302 0.329558 0.661280
C19   C     C_3   0.220920 0.943553 0.791654 0.605041
C20   C     C_3   0.228031 0.066608 0.325569 0.656293
Ba1   Ba    Ba6+2 0.999980 0.452130 0.155200 1.668829
Ba2   Ba    Ba6+2 0.999980 0.547870 0.655200 1.642390
Ba3   Ba    Ba6+2 0.499980 0.952130 0.155200 1.671002
Ba4   Ba    Ba6+2 0.499980 0.047870 0.655200 1.633674
C21   C     C_3   0.225947 0.507998 0.833950 0.249525
C22   C     C_3   0.231138 0.494504 0.334120 0.257242
C23   C     C_3   0.724628 0.008428 0.829385 0.240367
C24   C     C_3   0.726129 0.993298 0.328031 0.259305
H29   H     H_    0.196535 0.494318 0.727278 0.135513
H30   H     H_    0.195856 0.498043 0.232269 0.125368
H31   H     H_    0.690215 0.999343 0.727703 0.137253
H32   H     H_    0.691035 0.001661 0.227164 0.135780
C25   C     C_3   0.300759 0.498387 0.807827 -0.740734
C26   C     C_3   0.300053 0.522958 0.296200 -0.732747
C27   C     C_3   0.796220 0.991116 0.786168 -0.759012
C28   C     C_3   0.797072 0.012324 0.283548 -0.772711
H33   H     H_    0.329452 0.501533 0.921260 0.182591
H34   H     H_    0.331965 0.525758 0.405135 0.273445
H35   H     H_    0.831669 0.002477 0.885520 0.238492
H36   H     H_    0.833211 0.001462 0.382092 0.238111
H37   H     H_    0.318613 0.537032 0.730131 0.228834
H38   H     H_    0.325555 0.490684 0.212701 0.154760
H39   H     H_    0.810094 0.020438 0.683601 0.215886
H40   H     H_    0.811134 0.983381 0.180561 0.219225
O45   O     O_3   0.924190 0.533610 0.949240 -0.388962
O46   O     O_3   0.924190 0.466390 0.449240 -0.409914
O47   O     O_3   0.424190 0.033610 0.949240 -0.384041
O48   O     O_3   0.424190 0.966390 0.449240 -0.408172
P13   P     P_3+3 0.085057 0.714654 0.883690 0.571727
P14   P     P_3+3 0.086438 0.286830 0.385497 0.575715
P15   P     P_3+3 0.582205 0.216431 0.889877 0.600505
P16   P     P_3+3 0.584988 0.785313 0.385319 0.587412
C29   C     C_3   0.026289 0.171333 0.399087 0.845548
C30   C     C_3   0.024841 0.830052 0.898073 0.847234
C31   C     C_3   0.524525 0.669801 0.402589 0.815870
C32   C     C_3   0.496952 0.317924 0.882924 0.879897
H41   H     H_    0.995739 0.069385 0.392445 0.249570
H42   H     H_    0.995721 0.932464 0.892221 0.227340
H43   H     H_    0.496702 0.567060 0.397264 0.256542
H44   H     H_    0.456624 0.415730 0.920560 0.206402
C33   C     C_R   0.251107 0.307467 0.993929 0.494030
C34   C     C_R   0.249149 0.693564 0.495547 0.547982
C35   C     C_R   0.750699 0.807509 0.994142 0.540820
C36   C     C_R   0.749452 0.193301 0.494205 0.563606
C37   C     C_R   0.153605 0.348178 0.823757 0.269614
C38   C     C_R   0.152479 0.652768 0.324451 0.212530
C39   C     C_R   0.653489 0.848080 0.823262 0.248883
C40   C     C_R   0.651723 0.152898 0.325295 0.184086
C41   C     C_R   0.114930 0.338625 0.685539 -0.360154
C42   C     C_R   0.113347 0.663129 0.186771 -0.427310
C43   C     C_R   0.614259 0.837851 0.685916 -0.357397
C44   C     C_R   0.611273 0.163738 0.190053 -0.425583
C45   C     C_R   0.128056 0.287700 0.582985 0.215577
C46   C     C_R   0.127560 0.713151 0.081512 0.201316
C47   C     C_R   0.627621 0.787011 0.582725 0.213452
C48   C     C_R   0.622511 0.215925 0.089212 0.335163
C49   C     C_R   0.176433 0.241332 0.624647 -0.181885
C50   C     C_R   0.176878 0.758550 0.121803 -0.188543
C51   C     C_R   0.676408 0.741061 0.624376 -0.207382
C52   C     C_R   0.670164 0.262602 0.131490 -0.281844
C53   C     C_R   0.213014 0.245477 0.767334 0.013752
C54   C     C_R   0.212668 0.754759 0.265835 -0.019788
C55   C     C_R   0.713296 0.745628 0.766695 0.023628
C56   C     C_R   0.709647 0.256501 0.270050 -0.005579
C57   C     C_R   0.205043 0.300837 0.865267 -0.050371
C58   C     C_R   0.203812 0.699984 0.365586 -0.112265
C59   C     C_R   0.705171 0.801007 0.864495 -0.056726
C60   C     C_R   0.702984 0.200282 0.366288 -0.122162
H45   H     H_    0.077322 0.374122 0.650898 0.146527
H46   H     H_    0.074759 0.628506 0.154138 0.180880
H47   H     H_    0.576049 0.872882 0.652218 0.155276
H48   H     H_    0.573910 0.128139 0.155634 0.174450
C61   C     C_R   0.802075 0.700518 0.942603 0.028231
C62   C     C_R   0.801338 0.299660 0.440549 -0.031453
C63   C     C_R   0.301878 0.200224 0.942488 0.009756
C64   C     C_R   0.301276 0.799779 0.441583 -0.022236
C65   C     C_R   0.794999 0.756171 0.038755 0.005309
C66   C     C_R   0.794028 0.244341 0.537654 -0.009534
C67   C     C_R   0.296226 0.256610 0.036694 -0.052616
C68   C     C_R   0.293310 0.744831 0.539680 0.003348
C69   C     C_R   0.851081 0.651833 0.987114 0.316684
C70   C     C_R   0.850739 0.347928 0.484691 0.279479
C71   C     C_R   0.350623 0.151314 0.987099 0.320095
C72   C     C_R   0.350433 0.848148 0.485868 0.267855
C73   C     C_R   0.887930 0.659174 0.128433 -0.495119
C74   C     C_R   0.887551 0.340561 0.625831 -0.501503
C75   C     C_R   0.388540 0.158949 0.126204 -0.468263
C76   C     C_R   0.387102 0.840778 0.627195 -0.476547
C77   C     C_R   0.875866 0.711090 0.228219 0.181255
C78   C     C_R   0.874749 0.289477 0.726953 0.188283
C79   C     C_R   0.378228 0.211798 0.223322 0.232700
C80   C     C_R   0.374024 0.789842 0.728736 0.193505
C81   C     C_R   0.830445 0.759090 0.183476 -0.306314
C82   C     C_R   0.829058 0.241770 0.683115 -0.223479
C83   C     C_R   0.333859 0.260623 0.178167 -0.323785
C84   C     C_R   0.327765 0.742512 0.685788 -0.243570
C85   C     C_R   0.760159 0.696244 0.807060 -0.091019
C86   C     C_R   0.757968 0.304903 0.307400 -0.073055
C87   C     C_R   0.259570 0.195830 0.807691 -0.089324
C88   C     C_R   0.259807 0.803838 0.305223 -0.073553
H49   H     H_    0.185780 0.201994 0.544489 0.165198
H50   H     H_    0.187530 0.796884 0.039588 0.220248
H51   H     H_    0.685522 0.701471 0.544967 0.167108
H52   H     H_    0.677797 0.302871 0.053198 0.202792
H53   H     H_    0.820912 0.797199 0.266601 0.155936
H54   H     H_    0.818661 0.204355 0.767504 0.149274
H55   H     H_    0.326584 0.300004 0.259372 0.175413
H56   H     H_    0.317203 0.705021 0.770112 0.147985
H57   H     H_    0.923043 0.621884 0.166406 0.161020
H58   H     H_    0.922980 0.377519 0.663165 0.159447
H59   H     H_    0.423216 0.121350 0.164684 0.155575
H60   H     H_    0.422827 0.877544 0.664074 0.156324
H61   H     H_    0.762783 0.654191 0.731947 0.183352
H62   H     H_    0.760420 0.347152 0.232622 0.205562
H63   H     H_    0.261976 0.153686 0.732749 0.183322
H64   H     H_    0.262927 0.845539 0.228933 0.205603
C89   C     C_2   0.957131 0.197555 0.426119 0.441069
H65   H     H_    0.927580 0.176675 0.517213 0.019831
O49   O     O_2   0.932711 0.239537 0.340949 -0.496581
C90   C     C_2   0.955983 0.804397 0.929428 0.424727
H66   H     H_    0.927023 0.826105 0.020349 0.037082
O50   O     O_2   0.931058 0.761837 0.847344 -0.505812
C91   C     C_2   0.454947 0.694477 0.431203 0.431770
H67   H     H_    0.425403 0.671771 0.519912 0.005787
O51   O     O_2   0.430397 0.737755 0.350232 -0.498036
C92   C     C_2   0.434991 0.292576 0.801113 0.500317
H68   H     H_    0.396986 0.325180 0.754009 0.021649
O52   O     O_2   0.425557 0.234491 0.792112 -0.512532
O53   O     O_3   0.672834 0.480801 0.755619 -0.734423
H69   H     H_    0.666667 0.515101 0.835522 0.349730
O54   O     O_3   0.681869 0.530246 0.235564 -0.666942
H70   H     H_    0.697063 0.531653 0.126150 0.338385
O55   O     O_3   0.170657 0.989179 0.751277 -0.750873
H71   H     H_    0.166915 0.020014 0.839871 0.346058
O56   O     O_3   0.181983 0.029753 0.233992 -0.691438
H72   H     H_    0.197725 0.028974 0.125015 0.335465
C93   C     C_2   0.721530 0.379051 0.712826 0.534535
H73   H     H_    0.723177 0.383697 0.586686 0.042328
O57   O     O_2   0.715093 0.325570 0.772076 -0.553867
C94   C     C_2   0.728541 0.636159 0.277632 0.263247
H74   H     H_    0.758764 0.670625 0.343416 0.055482
O58   O     O_2   0.693269 0.655132 0.167343 -0.530691
C95   C     C_2   0.213902 0.887851 0.679165 0.473900
H75   H     H_    0.216501 0.896856 0.554449 0.071384
O59   O     O_2   0.202819 0.832932 0.725506 -0.557331
C96   C     C_2   0.228862 0.135978 0.269957 0.279728
H76   H     H_    0.259396 0.171016 0.333255 0.053903
O60   O     O_2   0.193147 0.153991 0.159489 -0.524833
O61   O     O_3   0.716061 0.423231 0.969667 -0.745937
H77   H     H_    0.668052 0.413580 0.982587 0.334971
O62   O     O_3   0.707873 0.564362 0.485821 -0.728853
H78   H     H_    0.659712 0.575577 0.486095 0.381029
O63   O     O_3   0.213916 0.921301 0.946571 -0.739557
H79   H     H_    0.165862 0.912412 0.960550 0.369231
O64   O     O_3   0.208453 0.066250 0.481976 -0.736440
H80   H     H_    0.160274 0.077392 0.481921 0.384000
C97   C     C_2   0.212155 0.576526 0.874028 0.657297
H81   H     H_    0.248347 0.614905 0.859402 -0.015663
O65   O     O_2   0.158864 0.588966 0.930858 -0.578044
C98   C     C_2   0.241059 0.424621 0.377127 0.711431
H82   H     H_    0.285569 0.398480 0.346186 0.002439
O66   O     O_2   0.200142 0.397072 0.455188 -0.624828
C99   C     C_2   0.721074 0.077964 0.873843 0.671896
H83   H     H_    0.761975 0.111176 0.857104 -0.035331
O67   O     O_2   0.671659 0.097029 0.938276 -0.596658
C100  C     C_2   0.724954 0.923650 0.371946 0.662224
H84   H     H_    0.766958 0.891665 0.355237 -0.041879
O68   O     O_2   0.676357 0.903168 0.436859 -0.604928
C101  C     C_2   0.315375 0.434605 0.732556 0.674525
H85   H     H_    0.293259 0.390541 0.774479 -0.015995
O69   O     O_2   0.353262 0.431754 0.623882 -0.593308
C102  C     C_2   0.295982 0.588629 0.222042 0.652258
H86   H     H_    0.250815 0.604513 0.161588 -0.016326
O70   O     O_2   0.344878 0.623787 0.223061 -0.569183
C103  C     C_2   0.803054 0.921316 0.741496 0.753810
H87   H     H_    0.765828 0.898284 0.666088 -0.043701
O71   O     O_2   0.851203 0.889871 0.788598 -0.592932
C104  C     C_2   0.802097 0.082304 0.238721 0.753594
H88   H     H_    0.763664 0.104933 0.165557 -0.029560
O72   O     O_2   0.850228 0.114296 0.282687 -0.586568
O73   O     O_3   0.062266 0.158502 0.539914 -0.828195
H89   H     H_    0.050188 0.191514 0.617646 0.242333
O74   O     O_3   0.062679 0.842621 0.036197 -0.821171
H90   H     H_    0.051094 0.810017 0.115318 0.232947
O75   O     O_3   0.561672 0.658095 0.542333 -0.827401
H91   H     H_    0.549758 0.691401 0.619412 0.247437
O76   O     O_3   0.495038 0.302829 0.041315 -0.846949
H92   H     H_    0.451899 0.319370 0.079347 0.259294
C105  C     C_2   0.968262 0.068723 0.748859 0.558156
H93   H     H_    0.021030 0.056842 0.756428 0.074487
O77   O     O_2   0.933952 0.047833 0.639493 -0.605452
C106  C     C_2   0.969360 0.930080 0.238432 0.520393
H94   H     H_    0.022186 0.940917 0.234124 0.137956
O78   O     O_2   0.931490 0.950798 0.135159 -0.627419
C107  C     C_2   0.472661 0.568385 0.758371 0.563933
H95   H     H_    0.525202 0.556322 0.773374 0.074590
O79   O     O_2   0.440825 0.546581 0.646201 -0.576943
C108  C     C_2   0.551366 0.402193 0.259686 0.706999
H96   H     H_    0.591104 0.370057 0.224865 0.031827
O80   O     O_2   0.551438 0.458577 0.215759 -0.578751
O81   O     O_3   0.255821 0.365658 0.070567 -0.748853
H97   H     H_    0.303818 0.377349 0.079423 0.263608
O82   O     O_3   0.254786 0.634978 0.570769 -0.755178
H98   H     H_    0.303028 0.626165 0.589019 0.292861
O83   O     O_3   0.755520 0.865925 0.070034 -0.751887
H99   H     H_    0.803525 0.875445 0.089988 0.314796
O84   O     O_3   0.754706 0.134821 0.570108 -0.747630
H100  H     H_    0.802769 0.125602 0.590684 0.307840
C109  C     C_2   0.042362 0.171804 0.942440 0.594135
H101  H     H_    0.064590 0.125362 0.974864 0.004405
O85   O     O_2   0.076628 0.220633 0.951272 -0.533979
C110  C     C_2   0.047287 0.823357 0.433209 0.556932
H102  H     H_    0.073966 0.777502 0.441271 0.034248
O86   O     O_2   0.077390 0.873660 0.462303 -0.590494
C111  C     C_2   0.543110 0.673494 0.948320 0.587290
H103  H     H_    0.565118 0.627598 0.985857 0.017507
O87   O     O_2   0.577290 0.722419 0.954264 -0.537635
C112  C     C_2   0.564395 0.288143 0.493260 0.550621
H104  H     H_    0.573581 0.237936 0.525032 0.087265
O88   O     O_2   0.605720 0.329186 0.530523 -0.586815

loop_
_geom_bond_atom_site_label_1
_geom_bond_atom_site_label_2
_geom_bond_distance
_ccdc_geom_bond_type
C112  O88   1.219116 D    
C2    C30   1.524223 S    
O76   H92   0.993812 S    
P5    O37   1.745862 S    
C22   C26   1.545732 S    
C11   H19   1.107899 S    
P7    O39   1.746021 S    
O1    Ba1   2.834114 S    
P8    O40   1.745305 S    
P9    O33   1.540299 D    
C104  H88   1.079461 S    
P5    Ba1   3.435451 S    
O23   P16   1.760469 S    
C42   C46   1.401730 A    
C27   C103  1.494390 S    
C96   O60   1.220903 D    
C1    H1    1.101926 S    
C94   H74   1.079285 S    
C2    H6    1.108659 S    
O14   P13   1.542637 D    
C18   O62   1.405077 S    
C37   C41   1.403429 A    
Ba4   O47   2.992515 S    
P16   C47   1.863204 S    
C40   C44   1.404942 A    
C6    H10   1.104366 S    
C39   C43   1.405236 A    
P4    O8    1.571797 S    
C35   C65   1.422215 A    
C49   H49   1.081106 S    
P5    O25   1.561097 D    
C53   C57   1.426247 A    
C20   C96   1.504549 S    
C21   C25   1.536140 S    
C52   C56   1.405546 A    
C25   C101  1.495480 S    
C24   C28   1.535734 S    
C42   H46   1.082374 S    
C55   C59   1.426291 A    
C64   C88   1.409030 A    
O15   P16   1.543313 D    
C19   C95   1.500269 S    
C110  H102  1.085019 S    
C20   O64   1.404402 S    
C70   C74   1.398778 A    
C17   O61   1.410051 S    
C10   H14   1.103975 S    
C91   H67   1.083230 S    
C30   C90   1.511049 S    
O44   C8    1.409823 S    
O2    Ba2   2.836940 S    
C92   O52   1.213044 D    
P6    Ba2   3.434753 S    
C62   C66   1.418316 A    
C106  H94   1.084375 S    
C34   O82   1.368164 S    
C100  O68   1.213115 D    
C18   C94   1.504538 S    
C48   C52   1.395113 A    
C31   O75   1.404480 S    
P9    C78   1.832875 S    
Ba2   O46   2.836346 S    
C13   C17   1.537873 S    
C15   C19   1.540219 S    
C4    C32   1.535872 S    
C27   H35   1.112796 S    
C23   C99   1.483605 S    
C12   H20   1.111503 S    
C32   O76   1.388591 S    
O42   C6    1.411365 S    
C56   C86   1.419709 A    
C103  O71   1.217564 D    
C3    H43   1.107391 S    
C4    H44   1.112008 S    
P3    O7    1.568674 S    
C16   C20   1.542994 S    
P11   O35   1.538668 D    
C62   C70   1.445220 A    
O27   Ba3   2.840830 S    
O31   Ba3   2.840417 S    
O40   C15   1.395040 S    
C49   C53   1.402555 A    
C64   C68   1.418905 A    
P1    Ba1   3.431978 S    
P2    C38   1.901576 S    
C46   C50   1.396316 A    
C111  O87   1.219219 D    
C41   H45   1.082480 S    
O24   P15   1.765404 S    
C5    C9    1.541847 S    
O20   C24   1.393127 S    
C65   C81   1.405030 A    
C7    C11   1.539003 S    
C38   C58   1.451327 A    
C105  H93   1.084944 S    
C37   C57   1.452112 A    
C4    H4    1.107737 S    
C31   C91   1.511325 S    
P13   C46   1.865040 S    
C97   H81   1.083533 S    
C40   C60   1.452390 A    
C109  O85   1.219393 D    
C16   H24   1.109488 S    
C39   C59   1.451362 A    
C23   C27   1.535413 S    
C93   H73   1.082394 S    
C26   H34   1.111896 S    
C14   C18   1.541915 S    
C7    C111  1.503879 S    
C98   H82   1.081774 S    
C68   C84   1.405288 A    
Ba3   Ba4   4.703238 S    
O53   H69   0.992866 S    
C22   H30   1.103845 S    
P8    O28   1.560027 D    
C9    H17   1.108403 S    
O55   H71   0.992684 S    
P10   O34   1.540217 D    
C79   C83   1.386319 A    
P4    C40   1.897630 S    
C108  O80   1.219289 D    
C2    H2    1.101056 S    
C43   C47   1.400222 A    
C5    C109  1.504117 S    
C44   C48   1.399069 A    
C52   H52   1.078478 S    
C11   C107  1.501517 S    
O11   P16   1.762807 S    
C30   O74   1.404280 S    
P2    Ba2   3.432663 S    
O23   C31   1.414153 S    
O21   C29   1.415451 S    
P2    O18   1.751022 S    
C89   H65   1.082533 S    
C74   H58   1.082448 S    
O10   Ba2   2.842277 S    
C103  H87   1.079296 S    
C1    H41   1.108087 S    
O75   H91   0.985616 S    
P1    C37   1.893274 S    
C73   H57   1.082312 S    
P6    O26   1.560027 D    
P6    C69   1.870926 S    
C98   O66   1.215121 D    
C91   O51   1.219357 D    
C63   C87   1.408711 A    
C54   C58   1.427000 A    
P12   C79   1.821695 S    
P9    O41   1.758006 S    
O3    Ba3   2.834114 S    
C24   H32   1.105952 S    
O37   C14   1.397270 S    
C33   O81   1.367520 S    
Ba3   O48   2.992662 S    
O17   C21   1.389573 S    
C99   H83   1.081578 S    
C69   C73   1.401024 A    
Ba1   O46   2.992662 S    
O10   P13   1.765524 S    
O19   C23   1.392750 S    
C33   C67   1.421282 A    
C104  O72   1.217919 D    
C34   C68   1.421518 A    
C72   C76   1.398706 A    
C86   H62   1.080276 S    
C34   C58   1.415458 A    
C8    C12   1.545821 S    
C78   C82   1.387040 A    
C61   C65   1.419943 A    
C106  O78   1.219343 D    
C101  O69   1.220282 D    
C94   O58   1.220955 D    
P5    C70   1.864620 S    
P6    O45   1.572796 S    
C61   C85   1.409130 A    
C13   H21   1.108969 S    
C82   H54   1.079281 S    
C75   C79   1.388146 A    
Ba4   O48   2.836346 S    
P8    C71   1.863079 S    
C9    C105  1.501879 S    
C73   C77   1.393492 A    
C102  H86   1.076639 S    
O7    Ba4   2.830167 S    
C15   H27   1.111865 S    
C25   H37   1.103035 S    
O64   H80   0.992184 S    
C27   H39   1.106344 S    
C32   C92   1.498655 S    
C20   O56   1.411716 S    
O56   H72   0.992599 S    
C6    C110  1.509962 S    
C12   H16   1.108845 S    
C90   H66   1.081661 S    
C12   C108  1.501990 S    
P4    Ba4   3.432663 S    
C88   H64   1.079953 S    
P1    O1    1.560983 D    
C76   C80   1.390502 A    
P10   O42   1.758568 S    
P3    O3    1.560983 D    
P5    O46   1.575946 S    
P4    O20   1.745150 S    
C63   C71   1.443340 A    
O38   C13   1.392352 S    
C29   C89   1.511961 S    
C61   C69   1.443404 A    
C110  O86   1.220939 D    
O11   Ba3   2.837306 S    
C64   C72   1.443626 A    
C75   H59   1.082468 S    
C50   C54   1.403874 A    
O18   C22   1.398249 S    
C66   C82   1.406036 A    
O54   H70   0.992624 S    
C5    H9    1.105514 S    
C80   C84   1.387182 A    
C28   C104  1.494490 S    
C112  H104  1.082032 S    
C18   O54   1.410850 S    
C50   H50   1.081732 S    
C26   C102  1.492857 S    
C14   H22   1.110022 S    
C95   O59   1.220511 D    
C33   C57   1.417096 A    
O30   Ba2   2.835447 S    
O82   H98   0.990540 S    
P11   C80   1.831526 S    
P1    O5    1.568674 S    
O9    Ba1   2.837306 S    
C24   C100  1.481886 S    
O25   Ba1   2.840830 S    
C96   H76   1.080084 S    
C107  H95   1.084870 S    
O73   H89   0.986085 S    
C10   C106  1.501132 S    
O74   H90   0.985188 S    
C9    H13   1.105795 S    
C35   O83   1.368677 S    
P7    Ba3   3.435451 S    
P12   O44   1.752828 S    
O21   P14   1.761793 S    
C36   O84   1.368502 S    
C17   O53   1.410235 S    
C3    H3    1.101650 S    
C21   C97   1.479873 S    
C45   C49   1.396392 A    
C43   H47   1.082442 S    
C44   H48   1.082416 S    
P15   C48   1.858173 S    
O22   C30   1.412725 S    
O8    Ba3   2.836234 S    
C28   H40   1.106828 S    
C1    C29   1.525764 S    
Ba1   Ba2   4.703238 S    
C2    H42   1.107457 S    
C53   C87   1.416873 A    
C11   H15   1.104832 S    
C99   O67   1.214224 D    
P7    O27   1.561097 D    
C109  H101  1.085531 S    
O61   H77   0.992805 S    
P7    C72   1.866599 S    
O41   C5    1.412117 S    
C51   H51   1.080033 S    
O43   C7    1.410736 S    
C55   C85   1.417016 A    
C41   C45   1.397081 A    
C92   H68   1.081102 S    
C111  H103  1.085288 S    
C56   C60   1.427393 A    
C36   C66   1.421757 A    
O81   H97   0.992534 S    
C1    H5    1.108646 S    
O13   P14   1.541405 D    
O26   Ba2   2.837991 S    
C100  H84   1.081351 S    
Ba2   O45   2.992515 S    
O84   H100  0.991261 S    
P1    O17   1.744672 S    
C6    C10   1.546786 S    
O9    P14   1.762318 S    
P3    O19   1.744875 S    
O24   C32   1.414476 S    
P4    O4    1.562052 D    
O83   H99   0.991367 S    
P8    O47   1.572796 S    
C84   H56   1.080755 S    
P7    O48   1.575946 S    
C14   H26   1.112221 S    
O63   H79   0.991973 S    
C25   H33   1.111007 S    
O32   Ba4   2.835447 S    
O39   C16   1.397383 S    
C17   C93   1.493285 S    
C22   C98   1.495442 S    
C21   H29   1.104601 S    
C105  O77   1.219511 D    
C10   H18   1.109520 S    
C19   O63   1.410423 S    
P10   O30   1.745505 S    
P2    O2    1.562052 D    
O4    Ba4   2.836940 S    
P11   O43   1.756000 S    
C35   C59   1.416515 A    
P12   O36   1.543884 D    
C63   C67   1.419538 A    
P8    Ba4   3.434753 S    
C8    C112  1.498665 S    
Ba3   O47   2.830281 S    
C97   O65   1.215325 D    
O12   Ba4   2.842277 S    
Ba1   O45   2.830281 S    
P3    Ba3   3.431978 S    
O5    Ba2   2.830167 S    
C15   H23   1.107008 S    
C67   C83   1.404178 A    
C13   H25   1.113115 S    
C93   O57   1.219823 D    
C51   C55   1.403507 A    
O29   Ba1   2.840417 S    
C29   O73   1.404764 S    
C19   O55   1.409898 S    
C101  H85   1.076500 S    
C8    H12   1.095075 S    
C54   C88   1.417422 A    
C107  O79   1.218788 D    
C102  O70   1.219199 D    
C62   C86   1.410754 A    
C47   C51   1.396173 A    
C3    C31   1.523600 S    
O62   H78   0.992288 S    
P2    O6    1.571797 S    
C16   H28   1.112358 S    
P10   C77   1.835495 S    
P11   O31   1.751146 S    
P12   O32   1.735264 S    
P6    O38   1.742025 S    
C108  H96   1.084170 S    
C71   C75   1.396720 A    
C90   O50   1.219520 D    
C95   H75   1.083297 S    
P3    C39   1.896628 S    
C87   H63   1.080584 S    
C85   H61   1.080230 S    
C89   O49   1.219508 D    
O22   P13   1.760768 S    
C7    H11   1.106010 S    
C77   C81   1.386706 A    
C36   C60   1.417499 A    
C3    H7    1.108819 S    
C83   H55   1.080266 S    
C4    H8    1.108951 S    
O16   P15   1.546670 D    
C81   H53   1.079676 S    
C74   C78   1.389398 A    
P9    O29   1.752590 S    
P14   C45   1.854941 S    
O28   Ba4   2.837991 S    
C38   C42   1.406031 A    
O6    Ba1   2.836234 S    
C23   H31   1.106200 S    
C26   H38   1.111674 S    
O12   P15   1.757411 S    
C76   H60   1.082459 S    
C28   H36   1.113173 S    
