data_mof_unit_50000.cif
_audit_creation_date              2012-12-10T19:59:21-0500
_audit_creation_method            fapswitch 2.2
_symmetry_space_group_name_H-M    P1
_symmetry_Int_Tables_number       1
_space_group_crystal_system       triclinic
_cell_length_a                    14.911858
_cell_length_b                    14.167169
_cell_length_c                    10.692626
_cell_angle_alpha                 90.603164
_cell_angle_beta                  89.499422
_cell_angle_gamma                 89.179646
_cell_volume                      2258.46555358

loop_
_atom_site_label
_atom_site_type_symbol
_atom_type_description
_atom_site_fract_x
_atom_site_fract_y
_atom_site_fract_z
_atom_type_partial_charge
C1    C     C_R   0.326908 0.500521 0.504797 0.860758
C2    C     C_R   0.672172 0.499617 0.507088 0.858807
C3    C     C_R   0.189570 0.410402 0.536580 -0.194077
C4    C     C_R   0.817750 0.425903 0.471757 -0.222747
C5    C     C_R   0.099158 0.403604 0.563019 -0.186618
C6    C     C_R   0.908503 0.418046 0.492847 -0.179006
C7    C     C_R   0.046802 0.485440 0.576488 0.104219
C8    C     C_R   0.949464 0.479995 0.576743 0.105070
C9    C     C_R   0.427651 0.104449 0.456148 0.353951
C10   C     C_R   0.583556 0.106116 0.521506 0.298285
C11   C     C_R   0.426247 0.203747 0.464616 -0.065860
C12   C     C_R   0.577715 0.205351 0.525658 -0.010949
C13   C     C_R   0.506681 0.053148 0.489005 -0.140361
C14   C     C_R   0.542665 0.889810 0.394518 0.312976
C15   C     C_R   0.470248 0.898684 0.599601 0.340794
C16   C     C_R   0.537031 0.791126 0.399804 -0.057245
C17   C     C_R   0.467242 0.799277 0.598508 -0.023800
C18   C     C_R   0.507310 0.946337 0.494814 -0.147145
C19   C     C_R   0.504169 0.499523 0.259771 0.898144
C20   C     C_R   0.505801 0.500277 0.739617 0.894293
C21   C     C_R   0.498482 0.582016 0.064352 0.111121
C22   C     C_R   0.500117 0.582998 0.937378 0.136238
C23   C     C_R   0.520029 0.499995 0.127976 -0.180396
C24   C     C_R   0.523542 0.501832 0.870105 -0.168883
C25   C     C_R   0.562929 0.424078 0.063207 -0.090360
C26   C     C_R   0.565028 0.424885 0.931556 -0.081475
C27   C     C_3   0.418641 0.645523 0.930929 -0.475521
C28   C     C_3   0.416762 0.644151 0.072734 -0.468851
C29   C     C_R   0.086615 0.574052 0.571216 -0.209866
C30   C     C_R   0.897990 0.546801 0.644257 -0.226439
C31   C     C_R   0.178024 0.582091 0.548680 -0.015377
C32   C     C_R   0.807107 0.558354 0.619828 -0.018527
C33   C     C_R   0.230146 0.499220 0.526905 -0.095796
C34   C     C_R   0.767240 0.497369 0.530933 -0.068845
H1    H     H_    0.564383 0.748703 0.323520 0.172089
H2    H     H_    0.438787 0.763104 0.677596 0.161497
H3    H     H_    0.434290 0.716195 0.893104 0.214209
H4    H     H_    0.357619 0.607454 0.112195 0.193253
H5    H     H_    0.360429 0.610006 0.887452 0.192677
H6    H     H_    0.431179 0.713894 0.116168 0.215906
H7    H     H_    0.045981 0.637939 0.579600 0.140745
H8    H     H_    0.929611 0.593405 0.711235 0.137409
H9    H     H_    0.227509 0.345211 0.523814 0.166228
H10   H     H_    0.787262 0.377904 0.405840 0.158648
H11   H     H_    0.069596 0.334358 0.568741 0.134990
H12   H     H_    0.947119 0.366791 0.438281 0.135419
H13   H     H_    0.366104 0.242174 0.439063 0.165019
H14   H     H_    0.636723 0.245179 0.548209 0.184336
N1    N     N_R   0.500000 0.252470 0.500000 -0.157898
N2    N     N_R   0.500000 0.747550 0.500000 -0.156276
O1    O     O_R   0.369060 0.579480 0.500010 -0.603121
O2    O     O_R   0.630940 0.579480 0.499990 -0.620530
O3    O     O_R   0.369050 0.420520 0.500010 -0.629668
O4    O     O_R   0.630950 0.420520 0.499990 -0.623320
O5    O     O_R   0.499990 0.579490 0.316780 -0.624842
O6    O     O_R   0.500010 0.579490 0.683220 -0.615395
O7    O     O_R   0.499980 0.420540 0.316780 -0.608054
O8    O     O_R   0.500020 0.420540 0.683220 -0.611132
Zn1   Zn    Zn3+2 0.500000 0.606140 0.500000 0.948732
Zn2   Zn    Zn3+2 0.500000 0.393860 0.500000 0.951186
C35   C     C_R   0.602843 0.342771 0.129585 0.176282
C36   C     C_R   0.550059 0.264301 0.156363 -0.094658
C37   C     C_R   0.589025 0.183679 0.207313 -0.151030
C38   C     C_R   0.680798 0.180974 0.233129 -0.095747
C39   C     C_R   0.733651 0.259220 0.207312 -0.147992
C40   C     C_R   0.694860 0.340140 0.155524 -0.159015
H15   H     H_    0.479095 0.265175 0.135515 0.121887
H16   H     H_    0.547466 0.123619 0.225785 0.146783
H17   H     H_    0.711070 0.118369 0.272811 0.152832
H18   H     H_    0.804781 0.256875 0.226525 0.129407
H19   H     H_    0.736503 0.399857 0.133587 0.118828
C41   C     C_R   0.610422 0.345558 0.862615 0.174841
C42   C     C_R   0.696910 0.357460 0.813261 -0.150453
C43   C     C_R   0.747574 0.279484 0.771431 -0.163869
C44   C     C_R   0.712224 0.188952 0.779018 -0.073822
C45   C     C_R   0.624537 0.176809 0.822663 -0.129089
C46   C     C_R   0.573222 0.254979 0.862567 -0.129730
H20   H     H_    0.726450 0.426264 0.811508 0.118025
H21   H     H_    0.814910 0.289087 0.735604 0.149044
H22   H     H_    0.752363 0.128390 0.749482 0.174919
H23   H     H_    0.596571 0.106793 0.826283 0.153840
H24   H     H_    0.506068 0.244513 0.898587 0.124346
O9    O     O_3   0.583463 0.926885 0.290244 -0.776807
H25   H     H_    0.602290 0.991722 0.309798 0.338884
O10   O     O_3   0.436707 0.945067 0.704667 -0.787608
H26   H     H_    0.447240 0.013580 0.698339 0.343952
C47   C     C_R   0.213983 0.678457 0.551185 0.151480
C48   C     C_R   0.221213 0.726345 0.666179 -0.188394
C49   C     C_R   0.240988 0.822341 0.669201 -0.124331
C50   C     C_R   0.253466 0.870958 0.557615 -0.084289
C51   C     C_R   0.248684 0.823138 0.442794 -0.166151
C52   C     C_R   0.228524 0.727072 0.439342 -0.108174
H27   H     H_    0.208936 0.689905 0.753094 0.129331
H28   H     H_    0.245436 0.859358 0.757940 0.160528
H29   H     H_    0.267019 0.945645 0.560723 0.189661
H30   H     H_    0.258749 0.860840 0.356438 0.143130
H31   H     H_    0.221722 0.691295 0.349976 0.117782
C53   C     C_R   0.757428 0.634788 0.687910 0.112402
C54   C     C_R   0.730755 0.717049 0.625220 -0.077615
C55   C     C_R   0.685136 0.789623 0.689788 -0.132581
C56   C     C_R   0.666890 0.781479 0.817509 -0.099627
C57   C     C_R   0.696382 0.701666 0.881663 -0.122588
C58   C     C_R   0.742636 0.629200 0.817659 -0.188273
H32   H     H_    0.744809 0.724640 0.526296 0.129957
H33   H     H_    0.663836 0.852149 0.640763 0.124018
H34   H     H_    0.631030 0.837566 0.867019 0.150195
H35   H     H_    0.683937 0.696187 0.981195 0.139767
H36   H     H_    0.767582 0.569627 0.869859 0.121016
O11   O     O_3   0.351302 0.061504 0.412984 -0.786431
H37   H     H_    0.365730 0.995276 0.389566 0.340102
O12   O     O_3   0.665731 0.065217 0.547927 -0.802884
H38   H     H_    0.663456 0.996273 0.534627 0.339298

loop_
_geom_bond_atom_site_label_1
_geom_bond_atom_site_label_2
_ccdc_geom_bond_type
C15   C18   A    
C47   C48   A    
C56   C57   A    
C7    C29   A    
O5    Zn1   S    
C26   C41   S    
C42   C43   A    
C14   C18   A    
C11   H13   S    
O12   H38   S    
C20   O6    A    
C12   N1    A    
C1    C33   S    
C7    C8    S    
O4    Zn2   S    
O10   H26   S    
C19   O7    A    
C3    H9    S    
C55   H33   S    
C41   C46   A    
N1    Zn2   S    
C36   H15   S    
O9    H25   S    
N2    Zn1   S    
C24   C26   A    
C16   H1    S    
C3    C33   A    
O8    Zn2   S    
C53   C58   A    
C49   H28   S    
C9    C13   A    
C1    O3    A    
C51   H30   S    
C48   H27   S    
C35   C40   A    
C54   C55   A    
C27   H5    S    
C42   H20   S    
C31   C33   A    
C58   H36   S    
C17   H2    S    
C44   H22   S    
C12   H14   S    
C15   O10   S    
C2    C34   S    
C54   H32   S    
C21   C22   A    
C35   C36   A    
C14   O9    S    
C10   C12   A    
O3    Zn2   S    
C52   H31   S    
C9    O11   S    
C4    C34   A    
C31   C47   S    
C43   C44   A    
C20   C24   S    
C57   H35   S    
C45   C46   A    
C4    C6    A    
C2    O4    A    
C51   C52   A    
C5    C7    A    
O7    Zn2   S    
C6    C8    A    
C4    H10   S    
C25   C26   A    
C5    H11   S    
C32   C34   A    
C17   N2    A    
C19   C23   S    
C44   C45   A    
C36   C37   A    
C11   N1    A    
O2    Zn1   S    
C1    O1    A    
C40   H19   S    
C28   H4    S    
C10   O12   S    
C25   C35   S    
C38   H17   S    
C9    C11   A    
C2    O2    A    
C13   C18   S    
C21   C28   S    
C53   C54   A    
C43   H21   S    
C21   C23   A    
C14   C16   A    
O1    Zn1   S    
C20   O8    A    
C19   O5    A    
C56   H34   S    
C15   C17   A    
C37   H16   S    
C6    H12   S    
C29   H7    S    
C16   N2    A    
C41   C42   A    
C3    C5    A    
C10   C13   A    
C50   H29   S    
C45   H23   S    
O6    Zn1   S    
C22   C27   S    
C8    C30   A    
C38   C39   A    
C29   C31   A    
O11   H37   S    
C30   C32   A    
C50   C51   A    
C46   H24   S    
C27   H3    S    
C55   C56   A    
C32   C53   S    
C22   C24   A    
C23   C25   A    
C57   C58   A    
C37   C38   A    
C48   C49   A    
C39   C40   A    
C27   C28   S    
C28   H6    S    
C30   H8    S    
C49   C50   A    
C47   C52   A    
C39   H18   S    
