data_mof_unit_40528.cif
_audit_creation_date              2012-12-10T18:22:34-0500
_audit_creation_method            fapswitch 2.2
_symmetry_space_group_name_H-M    P1
_symmetry_Int_Tables_number       1
_space_group_crystal_system       triclinic
_cell_length_a                    23.513064
_cell_length_b                    10.653093
_cell_length_c                    9.487348
_cell_angle_alpha                 90.67492
_cell_angle_beta                  89.844916
_cell_angle_gamma                 89.556829
_cell_volume                      2376.21072678

loop_
_atom_site_label
_atom_site_type_symbol
_atom_type_description
_atom_site_fract_x
_atom_site_fract_y
_atom_site_fract_z
_atom_type_partial_charge
C1    C     C_R   0.499606 0.260017 0.499105 0.860712
C2    C     C_R   0.701770 0.585483 0.586082 0.057293
C3    C     C_R   0.240166 0.419766 0.401387 -0.221958
C4    C     C_R   0.761036 0.584194 0.583192 -0.132201
C5    C     C_R   0.209229 0.494383 0.496659 0.323342
C6    C     C_R   0.790749 0.499409 0.496449 0.282069
C7    C     C_3   0.549430 0.043852 0.555996 -0.403642
C8    C     C_3   0.450603 0.956224 0.443726 -0.400710
C9    C     C_3   0.543462 0.957385 0.425373 0.038720
C10   C     C_3   0.456553 0.042730 0.574309 0.043517
C11   C     C_3   0.500223 0.876332 0.502375 -0.197456
C12   C     C_R   0.500424 0.740003 0.500857 0.838864
C13   C     C_3   0.499813 0.123727 0.497391 -0.199286
C14   C     C_3   0.505014 0.962524 0.633044 0.713510
C15   C     C_3   0.494996 0.037589 0.366729 0.717965
C16   C     C_R   0.391228 0.499483 0.500131 0.856941
C17   C     C_R   0.608732 0.500682 0.499935 0.822201
C18   C     C_3   0.529865 0.589775 0.049857 0.241609
C19   C     C_3   0.470126 0.410218 0.950143 0.246847
C20   C     C_3   0.479263 0.602286 0.952700 0.203052
C21   C     C_3   0.520716 0.397714 0.047303 0.210838
C22   C     C_3   0.551825 0.487082 0.948168 -0.183830
C23   C     C_R   0.237403 0.570868 0.594930 0.157796
C24   C     C_3   0.448158 0.512901 0.051862 -0.174851
C25   C     C_R   0.879943 0.594321 0.430788 0.569335
C26   C     C_R   0.120171 0.396991 0.557781 0.572900
C27   C     C_R   0.880264 0.404361 0.561957 0.588189
C28   C     C_R   0.119866 0.587853 0.428262 0.580167
C29   C     C_R   0.939820 0.400713 0.561337 -0.037123
C30   C     C_R   0.060306 0.590728 0.427415 -0.035311
C31   C     C_R   0.969974 0.496988 0.494326 -0.063614
C32   C     C_R   0.030145 0.494126 0.493855 -0.063088
C33   C     C_R   0.940036 0.596008 0.428177 -0.014535
C34   C     C_R   0.761216 0.414583 0.409966 0.160415
C35   C     C_R   0.060083 0.395037 0.559911 -0.015520
C36   C     C_R   0.969525 0.302705 0.626228 -0.216776
C37   C     C_R   0.030602 0.688552 0.362209 -0.218080
C38   C     C_R   0.028991 0.298627 0.626080 0.160291
C39   C     C_R   0.971134 0.692340 0.361845 0.160566
C40   C     C_R   0.297414 0.572995 0.596662 0.031658
C41   C     C_R   0.701195 0.414453 0.411739 0.054949
C42   C     C_R   0.328597 0.497567 0.499900 -0.047377
C43   C     C_R   0.671312 0.500263 0.499687 -0.093157
C44   C     C_R   0.299596 0.420593 0.402184 0.060399
Cu1   Cu    Cu3+1 0.500010 0.499990 0.643150 0.987318
Cu2   Cu    Cu3+1 0.499990 0.500010 0.356850 1.002411
F1    F     F_    0.509575 0.924728 0.771316 -0.635854
F2    F     F_    0.490424 0.075416 0.228470 -0.634556
H1    H     H_    0.946718 0.227970 0.677730 0.186985
H2    H     H_    0.419865 0.696975 0.841368 0.239998
H3    H     H_    0.556357 0.225659 0.016438 0.220156
H4    H     H_    0.580181 0.303365 0.158562 0.237159
H5    H     H_    0.587801 0.727997 0.026514 0.228914
H6    H     H_    0.534983 0.763441 0.138492 0.269350
H7    H     H_    0.412136 0.272086 0.973422 0.228584
H8    H     H_    0.464993 0.236510 0.861590 0.269357
H9    H     H_    0.043521 0.112431 0.645928 0.220463
H10   H     H_    0.044211 0.195030 0.799269 0.222335
H11   H     H_    0.956036 0.795810 0.188544 0.222932
H12   H     H_    0.053414 0.763428 0.310978 0.186333
H13   H     H_    0.956518 0.878489 0.341836 0.220461
H14   H     H_    0.214319 0.740064 0.677818 0.233172
H15   H     H_    0.215183 0.620415 0.794660 0.223327
H16   H     H_    0.781344 0.345524 0.216000 0.222454
H17   H     H_    0.782348 0.237801 0.346642 0.237276
H18   H     H_    0.315497 0.630124 0.796094 0.221473
H19   H     H_    0.314568 0.746604 0.675124 0.216683
H20   H     H_    0.681341 0.337442 0.221927 0.218691
H21   H     H_    0.681952 0.234925 0.357789 0.216903
H22   H     H_    0.318428 0.364042 0.203315 0.225385
H23   H     H_    0.594962 0.475368 0.901948 0.137249
H24   H     H_    0.318341 0.248049 0.323495 0.228023
H25   H     H_    0.644613 0.727320 0.614669 0.219265
H26   H     H_    0.651722 0.629711 0.754117 0.242583
H27   H     H_    0.613658 0.985984 0.305566 0.240165
H28   H     H_    0.617682 0.859630 0.409108 0.215658
H29   H     H_    0.382650 0.141730 0.589573 0.222431
H30   H     H_    0.385891 0.014882 0.692689 0.236828
H31   H     H_    0.404996 0.523934 0.098236 0.146956
H32   H     H_    0.217844 0.360617 0.326513 0.158675
H33   H     H_    0.784362 0.649544 0.649097 0.173305
H34   H     H_    0.589831 0.080172 0.600266 0.181254
H35   H     H_    0.410210 0.919923 0.399396 0.176838
H36   H     H_    0.443708 0.774428 0.983639 0.219470
N1    N     N_R   0.851785 0.499553 0.496704 -0.453338
N2    N     N_3   0.943025 0.794981 0.294002 -0.505451
N3    N     N_3   0.204341 0.645635 0.692017 -0.570170
N4    N     N_3   0.792886 0.329799 0.320639 -0.563404
N5    N     N_3   0.326926 0.653764 0.693292 -0.601743
N6    N     N_3   0.670279 0.325560 0.327659 -0.598612
N7    N     N_3   0.330476 0.340771 0.305811 -0.566070
N8    N     N_3   0.673725 0.676543 0.675014 -0.563467
N9    N     N_3   0.590815 0.908825 0.341411 -0.537815
N10   N     N_3   0.409111 0.091770 0.657628 -0.539852
N11   N     N_R   0.148284 0.492539 0.493303 -0.452244
N12   N     N_3   0.500040 0.499970 0.858290 -0.175435
N13   N     N_3   0.499960 0.500030 0.141710 -0.175378
N14   N     N_3   0.456582 0.719021 0.897537 -0.464603
N15   N     N_3   0.543465 0.281078 0.102514 -0.462752
N16   N     N_3   0.563357 0.691999 0.108600 -0.515961
N17   N     N_3   0.436629 0.308005 0.891381 -0.518041
N18   N     N_3   0.057107 0.195880 0.693716 -0.507633
O1    O     O_R   0.500030 0.316850 0.620870 -0.571857
O2    O     O_2   0.150579 0.305378 0.620179 -0.498251
O3    O     O_2   0.850855 0.313576 0.627493 -0.537294
O4    O     O_2   0.149342 0.679733 0.364877 -0.540627
O5    O     O_R   0.499970 0.683150 0.379130 -0.573127
O6    O     O_R   0.500000 0.316860 0.379090 -0.526774
O7    O     O_R   0.500000 0.683140 0.620910 -0.535698
O8    O     O_R   0.417890 0.499960 0.620920 -0.549340
O9    O     O_R   0.582110 0.500040 0.379080 -0.540837
O10   O     O_R   0.417870 0.499970 0.379140 -0.574707
O11   O     O_R   0.582130 0.500030 0.620860 -0.607288
O12   O     O_2   0.849580 0.685520 0.367511 -0.494273

loop_
_geom_bond_atom_site_label_1
_geom_bond_atom_site_label_2
_ccdc_geom_bond_type
Cu2   O10   S    
C27   C29   A    
C8    H35   S    
H22   N7    S    
C17   O11   A    
Cu1   Cu2   S    
H9    N18   S    
C29   C36   A    
H27   N9    S    
C33   C39   A    
C6    N1    S    
C18   N16   S    
C28   N11   A    
C19   C21   S    
H8    N17   S    
C21   N15   S    
C11   C14   S    
Cu1   O7    S    
C10   N10   S    
C23   C40   A    
H29   N10   S    
H19   N5    S    
H26   N8    S    
C27   N1    A    
Cu1   O1    S    
C26   O2    S    
C7    C14   S    
C4    H33   S    
C20   C24   S    
C28   O4    S    
Cu2   O6    S    
H20   N6    S    
C31   C33   A    
H10   N18   S    
C18   N13   S    
C40   N5    S    
C1    O1    A    
C38   N18   S    
C40   C42   A    
C41   N6    S    
C20   N12   S    
C23   N3    S    
Cu2   O9    S    
C41   C43   A    
H6    N16   S    
C34   C41   A    
C42   C44   A    
C15   F2    S    
C3    H32   S    
C17   O9    A    
C12   O7    A    
C5    N11   S    
H18   N5    S    
H5    N16   S    
H3    N15   S    
C37   C39   A    
C3    C44   A    
H2    N14   S    
C16   O8    A    
C24   N13   S    
C32   C35   A    
C35   C38   A    
C4    C6    A    
C10   C14   S    
H24   N7    S    
Cu1   O8    S    
C6    C34   A    
C30   C37   A    
C2    C4    A    
C17   C43   S    
H28   N9    S    
C21   N13   S    
C24   H31   S    
C31   C32   A    
C5    C23   A    
C2    C43   A    
Cu2   O5    S    
C25   N1    A    
C34   N4    S    
C2    N8    S    
C9    C11   S    
C44   N7    S    
Cu2   N13   S    
C8    C15   S    
C13   C15   S    
C1    C13   S    
H21   N6    S    
C9    N9    S    
C22   H23   S    
C16   O10   A    
H17   N4    S    
C26   N11   A    
C7    C9    S    
H15   N3    S    
C18   C22   S    
C16   C42   S    
C22   N12   S    
H25   N8    S    
C3    C5    A    
C10   C13   S    
C12   O5    A    
C11   C12   S    
C14   F1    S    
H14   N3    S    
H7    N17   S    
H4    N15   S    
H36   N14   S    
C28   C30   A    
C19   C24   S    
C9    C15   S    
H11   N2    S    
C29   C31   A    
C25   O12   S    
C30   C32   A    
C19   N17   S    
H30   N10   S    
C8    C11   S    
C36   C38   A    
C18   C20   S    
C37   H12   S    
H13   N2    S    
C19   N12   S    
C1    O6    A    
Cu1   O11   S    
C26   C35   A    
C7    C13   S    
C7    H34   S    
C20   N14   S    
C8    C10   S    
C27   O3    S    
C39   N2    S    
C21   C22   S    
Cu1   N12   S    
H16   N4    S    
C36   H1    S    
C25   C33   A    
