data_mof_unit_25613.cif
_audit_creation_date              2012-12-10T20:31:59-0500
_audit_creation_method            fapswitch 2.2
_symmetry_space_group_name_H-M    P1
_symmetry_Int_Tables_number       1
_space_group_crystal_system       triclinic
_cell_length_a                    9.915848
_cell_length_b                    10.656473
_cell_length_c                    15.603362
_cell_angle_alpha                 90.793386
_cell_angle_beta                  66.954268
_cell_angle_gamma                 89.727056
_cell_volume                      1516.95280366

loop_
_atom_site_label
_atom_site_type_symbol
_atom_type_description
_atom_site_fract_x
_atom_site_fract_y
_atom_site_fract_z
_atom_type_partial_charge
C1    C     C_R   0.504587 0.739474 0.492230 0.876706
C2    C     C_R   0.720366 0.406994 0.038882 0.162639
C3    C     C_R   0.584156 0.467187 0.089859 0.092890
C4    C     C_R   0.408031 0.493753 0.676238 0.874944
C5    C     C_R   0.818316 0.382331 0.081828 -0.216500
C6    C     C_R   0.782546 0.418530 0.174472 -0.206758
C7    C     C_R   0.557508 0.512943 0.179209 -0.243352
C8    C     C_R   0.391082 0.936298 0.477283 0.022453
C9    C     C_R   0.517025 0.869832 0.469227 -0.280141
C10   C     C_R   0.651942 0.934611 0.441730 0.442488
C11   C     C_R   0.647420 0.064766 0.450210 -0.215665
C12   C     C_R   0.415034 0.470075 0.914698 0.099568
C13   C     C_R   0.512157 0.128129 0.479797 -0.181636
C14   C     C_R   0.388619 0.064114 0.483527 0.074362
C15   C     C_3   0.234541 0.071218 0.554094 -0.503482
C16   C     C_R   0.502144 0.259856 0.497064 0.902886
C17   C     C_3   0.235503 0.928957 0.546582 0.270251
C18   C     C_R   0.907161 0.601537 0.533424 0.210358
C19   C     C_R   0.956457 0.409360 0.453779 -0.177311
C20   C     C_R   0.101321 0.410702 0.451771 0.001301
C21   C     C_R   0.046981 0.599451 0.536688 0.261080
C22   C     C_3   0.983296 0.649403 0.634932 0.185325
C23   C     C_R   0.267447 0.499064 0.971847 0.088036
C24   C     C_3   0.835553 0.659815 0.627369 -0.543326
C25   C     C_R   0.592333 0.498734 0.324210 0.851556
C26   C     C_R   0.352180 0.481136 0.778505 -0.192553
C27   C     C_R   0.650391 0.482481 0.223445 -0.046675
C28   C     C_R   0.162301 0.505573 0.933055 -0.231033
C29   C     C_R   0.202190 0.484994 0.837952 0.436843
C30   C     C_R   0.455995 0.468537 0.818271 -0.319805
C31   C     C_1   0.205273 0.318719 0.394554 0.220968
C32   C     C_R   0.518157 0.448663 0.955298 0.071643
C33   C     C_R   0.477445 0.477757 0.051029 0.067098
C34   C     C_R   0.329337 0.509428 0.106171 -0.210210
C35   C     C_R   0.225728 0.517201 0.067212 -0.214570
C36   C     C_R   0.657626 0.393380 0.904541 -0.226921
C37   C     C_R   0.755237 0.370024 0.946698 -0.184690
H1    H     H_    0.112536 0.537964 0.111941 0.150903
H2    H     H_    0.749467 0.600397 0.676927 0.224475
H3    H     H_    0.801164 0.758404 0.623897 0.206611
H4    H     H_    0.854854 0.392649 0.208537 0.155084
H5    H     H_    0.858360 0.322741 0.906964 0.181589
H6    H     H_    0.048108 0.521737 0.976987 0.167419
H7    H     H_    0.570244 0.461952 0.773131 0.180266
H8    H     H_    0.288170 0.521537 0.180828 0.148884
H9    H     H_    0.690684 0.359966 0.833568 0.165466
H10   H     H_    0.782375 0.798898 0.376203 0.340750
H11   H     H_    0.162646 0.924089 0.445844 0.360518
H12   H     H_    0.920135 0.331702 0.044714 0.146689
H13   H     H_    0.920228 0.593870 0.760697 0.366930
H14   H     H_    0.128881 0.399668 0.756346 0.359558
H15   H     H_    0.748342 0.115035 0.436457 0.183239
H16   H     H_    0.227494 0.106498 0.623154 0.165982
H17   H     H_    0.159044 0.118412 0.527347 0.222896
H18   H     H_    0.223739 0.881026 0.611898 0.120544
H19   H     H_    0.924014 0.335530 0.417634 0.147631
H20   H     H_    0.462166 0.570334 0.217197 0.149849
H21   H     H_    0.028576 0.740070 0.646233 0.154103
N1    N     N_R   0.856900 0.500860 0.500610 -0.106467
N2    N     N_R   0.142540 0.500820 0.500610 -0.118682
N3    N     N_1   0.288448 0.244954 0.347600 -0.208962
O1    O     O_R   0.385310 0.683210 0.499990 -0.598572
O2    O     O_3   0.139631 0.883282 0.506775 -0.766200
O3    O     O_3   0.981059 0.557821 0.698320 -0.707897
O4    O     O_3   0.092390 0.463321 0.807369 -0.752682
O5    O     O_R   0.614650 0.683240 0.500000 -0.593287
O6    O     O_R   0.319830 0.499970 0.632240 -0.568847
O7    O     O_R   0.549170 0.500000 0.632250 -0.615630
O8    O     O_R   0.385350 0.316760 0.500000 -0.606371
O9    O     O_R   0.614690 0.316790 0.500010 -0.628478
O10   O     O_R   0.450830 0.500000 0.367750 -0.615545
O11   O     O_R   0.680170 0.500030 0.367760 -0.628269
O12   O     O_3   0.786883 0.875521 0.411641 -0.748372
Zn1   Zn    Zn3+2 0.346870 0.499980 0.499990 0.996302
Zn2   Zn    Zn3+2 0.653130 0.500020 0.500010 0.949804

loop_
_geom_bond_atom_site_label_1
_geom_bond_atom_site_label_2
_ccdc_geom_bond_type
C19   H19   S    
N1    Zn2   S    
C18   C21   A    
H13   O3    S    
C31   N3    T    
C19   C20   A    
C30   H7    S    
C1    O1    A    
O7    Zn2   S    
C12   C23   A    
C18   C24   S    
C32   C36   A    
C36   C37   A    
C3    C7    A    
C5    C6    A    
C10   O12   S    
C3    C33   A    
C24   H2    S    
C7    C27   A    
C34   C35   A    
H14   O4    S    
C37   H5    S    
C11   H15   S    
C8    C9    A    
C6    H4    S    
C36   H9    S    
C25   O10   A    
C20   N2    A    
C9    C10   A    
C17   H18   S    
C13   C14   A    
C12   C32   A    
C5    H12   S    
O11   Zn2   S    
C1    O5    A    
C15   H17   S    
C35   H1    S    
C16   O9    A    
H10   O12   S    
C21   N2    A    
C25   O11   A    
H11   O2    S    
C19   N1    A    
C4    O6    A    
C6    C27   A    
C33   C34   A    
C1    C9    S    
O8    Zn1   S    
O6    Zn1   S    
C23   C28   A    
C34   H8    S    
C29   O4    S    
C26   C30   A    
C23   C35   A    
C22   C24   S    
C2    C5    A    
C15   H16   S    
C4    O7    A    
C15   C17   S    
C28   C29   A    
C8    C14   A    
C12   C30   A    
C16   O8    A    
C22   H21   S    
O10   Zn1   S    
C4    C26   S    
C25   C27   S    
C28   H6    S    
C8    C17   S    
C32   C33   A    
C2    C3    A    
C17   O2    S    
C11   C13   A    
C2    C37   A    
O5    Zn2   S    
N2    Zn1   S    
C24   H3    S    
C10   C11   A    
C22   O3    S    
C18   N1    A    
C26   C29   A    
C13   C16   S    
O9    Zn2   S    
C14   C15   S    
O1    Zn1   S    
C21   C22   S    
C7    H20   S    
C20   C31   S    
