data_mof_unit_50093.cif
_audit_creation_date              2012-12-11T15:55:42-0500
_audit_creation_method            fapswitch 2.2
_symmetry_space_group_name_H-M    P1
_symmetry_Int_Tables_number       1
_space_group_crystal_system       triclinic
_cell_length_a                    6.931001
_cell_length_b                    14.547536
_cell_length_c                    16.080311
_cell_angle_alpha                 89.958144
_cell_angle_beta                  89.968537
_cell_angle_gamma                 90.033054
_cell_volume                      1621.36051448

loop_
_atom_site_label
_atom_site_type_symbol
_atom_type_description
_atom_site_fract_x
_atom_site_fract_y
_atom_site_fract_z
_atom_type_partial_charge
O1    O     O_R   0.505680 0.583900 0.413320 -0.540374
O2    O     O_R   0.176010 0.594950 0.586080 -0.543404
O3    O     O_R   0.005680 0.416100 0.586680 -0.536489
C1    C     C_R   0.345060 0.617187 0.615041 0.688169
O4    O     O_R   0.175960 0.594930 0.413930 -0.543474
O5    O     O_R   0.005640 0.416080 0.413300 -0.540875
C2    C     C_R   0.345072 0.617176 0.384995 0.689241
O6    O     O_R   0.505720 0.583920 0.586700 -0.541365
O7    O     O_3   0.339190 0.441320 0.500000 -0.369624
V1    V     V_3+5 0.064350 0.510890 0.500000 1.402794
O8    O     O_R   0.675920 0.405050 0.413920 -0.543667
C3    C     C_R   0.844979 0.382815 0.384940 0.687698
O9    O     O_R   0.675960 0.405070 0.586070 -0.543077
C4    C     C_R   0.844595 0.383095 0.614873 0.711073
V2    V     V_3+5 0.564340 0.489110 0.500000 1.400895
O10   O     O_3   0.839370 0.558680 0.500000 -0.371223
C5    C     C_R   0.983565 0.241775 0.682558 0.094661
C6    C     C_R   0.851251 0.314326 0.682671 -0.129473
C7    C     C_R   0.717715 0.317597 0.748755 -0.195568
H1    H     H_    0.610428 0.371681 0.750317 0.143633
C8    C     C_R   0.731448 0.256338 0.816835 0.133803
C9    C     C_R   0.875618 0.186892 0.818138 -0.131078
C10   C     C_R   0.993467 0.179052 0.747622 0.055741
C11   C     C_3   0.207407 0.170876 0.739785 -0.393296
C12   C     C_3   0.196370 0.240245 0.668977 -0.382611
H2    H     H_    0.252252 0.101213 0.719044 0.161735
H3    H     H_    0.284455 0.197173 0.795273 0.213797
H4    H     H_    0.235565 0.210518 0.607606 0.162722
H5    H     H_    0.266418 0.307023 0.683903 0.187238
C13   C     C_R   0.046987 0.224427 0.217726 -0.146434
H6    H     H_    0.187852 0.205553 0.194156 0.122066
C14   C     C_R   0.035867 0.287919 0.282990 -0.148603
H7    H     H_    0.168726 0.316157 0.307506 0.119891
C15   C     C_R   0.856136 0.314581 0.316016 -0.048636
C16   C     C_R   0.687824 0.276066 0.281788 -0.153257
H8    H     H_    0.546958 0.294961 0.305338 0.116467
C17   C     C_R   0.698941 0.212586 0.216511 -0.132471
H9    H     H_    0.566084 0.184390 0.191951 0.123079
C18   C     C_R   0.878693 0.185803 0.183593 -0.042711
C19   C     C_R   0.188052 0.725059 0.717231 -0.151872
H10   H     H_    0.047324 0.706917 0.693065 0.116476
C20   C     C_R   0.199142 0.788644 0.782411 -0.149686
H11   H     H_    0.066407 0.817688 0.806269 0.117232
C21   C     C_R   0.378706 0.814433 0.816136 -0.047149
C22   C     C_R   0.546875 0.774906 0.782753 -0.151869
H12   H     H_    0.687604 0.793051 0.806916 0.116398
C23   C     C_R   0.535787 0.711323 0.717571 -0.147074
H13   H     H_    0.668525 0.682290 0.693705 0.118992
C24   C     C_R   0.356220 0.685516 0.683859 -0.046648
C25   C     C_R   0.188049 0.724583 0.282499 -0.153510
H14   H     H_    0.047248 0.706080 0.306453 0.116735
C26   C     C_R   0.199156 0.788154 0.217266 -0.149147
H15   H     H_    0.066368 0.816839 0.193134 0.117339
C27   C     C_R   0.378826 0.814375 0.183837 -0.044223
C28   C     C_R   0.547085 0.775283 0.217502 -0.153161
H16   H     H_    0.687880 0.793789 0.193545 0.116401
C29   C     C_R   0.535977 0.711708 0.282738 -0.147727
C30   C     C_R   0.356304 0.685496 0.316171 -0.046848
O11   O     O_R   0.229200 0.915950 0.913350 -0.543415
O12   O     O_R   0.559090 0.905000 0.086080 -0.546173
O13   O     O_R   0.729280 0.083880 0.086680 -0.536391
C31   C     C_R   0.390008 0.882714 0.115027 0.678848
O14   O     O_R   0.558920 0.904980 0.913920 -0.545240
O15   O     O_R   0.729110 0.083860 0.913300 -0.526630
C32   C     C_R   0.389867 0.882740 0.884966 0.683748
O16   O     O_R   0.229360 0.915970 0.086730 -0.544356
O17   O     O_3   0.395680 0.058580 0.000030 -0.349613
V3    V     V_3+5 0.670570 0.989070 0.999990 1.432528
O18   O     O_R   0.058820 0.094950 0.913870 -0.534355
C33   C     C_R   0.889398 0.118702 0.886502 0.743243
O19   O     O_R   0.058990 0.094970 0.086020 -0.542544
C34   C     C_R   0.889905 0.117328 0.114886 0.701152
V4    V     V_3+5 0.170560 0.010930 0.999930 1.443101
O20   O     O_3   0.895590 0.941310 0.999960 -0.377797
H17   H     H_    0.668758 0.683019 0.306872 0.119371
I1    I     I_    0.551858 0.284081 0.921081 -0.423129

loop_
_geom_bond_atom_site_label_1
_geom_bond_atom_site_label_2
_ccdc_geom_bond_type
C28   H16   S    
O14   C32   A    
V4    O20   S    
C4    C6    S    
C7    H1    S    
C11   H3    S    
C1    O6    A    
C23   C24   A    
C22   H12   S    
C21   C22   A    
C12   H4    S    
C8    I1    S    
C5    C10   A    
O15   V3    S    
C7    C8    A    
C11   H2    S    
C6    C7    A    
O5    C3    A    
C13   H6    S    
V3    O20   S    
V2    O10   S    
O12   C31   A    
C15   C16   A    
O14   V3    S    
O8    V2    S    
C16   H8    S    
C25   C26   A    
C18   C34   S    
O18   V4    S    
O17   V4    S    
O15   C33   A    
O7    V1    S    
O11   V4    S    
C2    C30   S    
C19   C20   A    
C8    C9    A    
C21   C32   S    
C20   C21   A    
C26   C27   A    
C25   H14   S    
C22   C23   A    
C12   H5    S    
C31   O16   A    
O17   V3    S    
C25   C30   A    
C11   C12   S    
O19   V4    S    
C27   C31   S    
O16   V4    S    
C14   C15   A    
O2    C1    A    
C17   H9    S    
C23   H13   S    
C10   C11   S    
C5    C6    A    
O3    C4    A    
O1    V2    S    
O13   C34   A    
C19   H10   S    
O6    V2    S    
C28   C29   A    
C20   H11   S    
C3    C15   S    
O2    V1    S    
C26   H15   S    
O4    C2    A    
C27   C28   A    
C16   C17   A    
O1    C2    A    
O5    V1    S    
O8    C3    A    
C1    C24   S    
C5    C12   S    
C14   H7    S    
C29   H17   S    
O9    V2    S    
O7    V2    S    
O4    V1    S    
C17   C18   A    
O3    V1    S    
V1    O10   S    
O11   C32   A    
C13   C14   A    
O13   V3    S    
C29   C30   A    
C13   C18   A    
O18   C33   A    
O19   C34   A    
O12   V3    S    
C9    C10   A    
O9    C4    A    
C9    C33   S    
C19   C24   A    
