data_mof_unit_44482.cif
_audit_creation_date              2012-10-26T18:40:07-0400
_audit_creation_method            fapswitch 2.2
_symmetry_space_group_name_H-M    P1
_symmetry_Int_Tables_number       1
_space_group_crystal_system       triclinic
_cell_length_a                    8.73378
_cell_length_b                    15.089644
_cell_length_c                    13.828716
_cell_angle_alpha                 90.205703
_cell_angle_beta                  97.95785
_cell_angle_gamma                 89.972929
_cell_volume                      1804.91958589

loop_
_atom_site_label
_atom_site_type_symbol
_atom_type_description
_atom_site_fract_x
_atom_site_fract_y
_atom_site_fract_z
_atom_type_partial_charge
C1    C     C_R   0.498635 0.329773 0.499652 0.550031
C2    C     C_R   0.390144 0.553047 0.882728 -0.012269
C3    C     C_R   0.497236 0.498557 0.054302 -0.040021
C4    C     C_R   0.497174 0.501291 0.945212 -0.042128
C5    C     C_R   0.203582 0.500042 0.475061 0.554608
C6    C     C_R   0.796422 0.500068 0.524942 0.555602
C7    C     C_2   0.037844 0.500108 0.461257 -0.146963
C8    C     C_2   0.962170 0.500177 0.538759 -0.145034
C9    C     C_R   0.546898 0.092676 0.577313 -0.063190
C10   C     C_R   0.547616 0.907037 0.430517 -0.149514
C11   C     C_R   0.556002 0.184519 0.579049 -0.111397
C12   C     C_R   0.498696 0.670216 0.500098 0.550851
C13   C     C_R   0.557236 0.815239 0.430936 -0.125592
C14   C     C_R   0.490238 0.233274 0.498058 -0.009392
C15   C     C_R   0.490214 0.766686 0.500001 0.012522
C16   C     C_R   0.412834 0.189757 0.415808 -0.081320
C17   C     C_R   0.410670 0.810346 0.567510 -0.147955
C18   C     C_R   0.398453 0.097288 0.414148 0.029101
C19   C     C_R   0.394496 0.902557 0.565547 0.019047
C20   C     C_R   0.467739 0.048594 0.495934 0.039564
C21   C     C_R   0.466303 0.951362 0.496802 0.013253
C22   C     C_2   0.307719 0.053027 0.328559 0.238496
C23   C     C_R   0.603617 0.550482 0.115715 -0.143150
C24   C     C_2   0.298569 0.943578 0.634419 0.225592
C25   C     C_2   0.276523 0.389005 0.038076 0.217329
C26   C     C_2   0.274101 0.609266 0.922679 0.205368
C27   C     C_R   0.604568 0.450086 0.902461 -0.139111
C28   C     C_R   0.602875 0.550550 0.217429 0.043142
C29   C     C_R   0.603801 0.450057 0.800612 0.051368
C30   C     C_R   0.396146 0.448278 0.201115 0.088758
C31   C     C_R   0.395102 0.551001 0.780670 0.082702
C32   C     C_R   0.391292 0.446097 0.098193 -0.011942
Cu1   Cu    Cu3+1 0.500000 0.499990 0.596430 0.962545
Cu2   Cu    Cu3+1 0.500000 0.500010 0.403570 0.956796
H1    H     H_    0.316482 0.408324 0.235696 0.171608
H2    H     H_    0.356364 0.772016 0.619618 0.117606
H3    H     H_    0.283746 0.982568 0.329582 0.121603
H4    H     H_    0.267359 0.904969 0.694850 0.123168
H5    H     H_    0.686225 0.591510 0.084899 0.125275
H6    H     H_    0.687989 0.409579 0.947769 0.136997
H7    H     H_    0.684977 0.591386 0.263451 0.124722
H8    H     H_    0.686628 0.409738 0.768980 0.132810
H9    H     H_    0.273248 0.385577 0.959469 0.127088
H10   H     H_    0.270867 0.612725 0.000716 0.127665
H11   H     H_    0.314658 0.590483 0.732140 0.163221
H12   H     H_    0.977855 0.500056 0.386910 0.133949
H13   H     H_    0.022162 0.500281 0.613110 0.139047
H14   H     H_    0.601468 0.055577 0.639708 0.135106
H15   H     H_    0.604106 0.943940 0.378398 0.130886
H16   H     H_    0.616557 0.217399 0.642924 0.130575
H17   H     H_    0.619446 0.782242 0.378555 0.128673
H18   H     H_    0.360010 0.228379 0.354091 0.176505
N1    N     N_R   0.500000 0.500020 0.258690 -0.244561
N2    N     N_R   0.500000 0.499980 0.741310 -0.244249
O1    O     O_R   0.500010 0.371450 0.581430 -0.498481
O2    O     O_2   0.248848 0.019001 0.623308 -0.489136
O3    O     O_2   0.183749 0.344799 0.075672 -0.488202
O4    O     O_2   0.180179 0.652682 0.868771 -0.514430
O5    O     O_R   0.499990 0.628550 0.418570 -0.505546
O6    O     O_R   0.500010 0.371460 0.418560 -0.503621
O7    O     O_R   0.499990 0.628540 0.581440 -0.501528
O8    O     O_R   0.274840 0.499990 0.562640 -0.508666
O9    O     O_R   0.725160 0.500010 0.437360 -0.503295
O10   O     O_R   0.274840 0.500000 0.399770 -0.503715
O11   O     O_R   0.725160 0.500000 0.600230 -0.495344
O12   O     O_2   0.257359 0.094981 0.255673 -0.473429

loop_
_geom_bond_atom_site_label_1
_geom_bond_atom_site_label_2
_ccdc_geom_bond_type
C6    O9    A    
Cu1   O1    S    
C2    C4    A    
C28   N1    A    
C5    C7    S    
C22   H3    S    
C17   H2    S    
C29   H8    S    
C27   C29   A    
C9    C11   A    
C9    C20   A    
C3    C23   A    
C12   C15   S    
C27   H6    S    
C25   H9    S    
C25   C32   S    
Cu2   O10   S    
C19   C24   S    
C1    O1    A    
C8    H13   S    
Cu1   O11   S    
C7    C8    D    
C2    C26   S    
C11   H16   S    
C18   C22   S    
C23   C28   A    
Cu2   O6    S    
C12   O7    A    
C26   O4    D    
C10   H15   S    
C25   O3    D    
C30   H1    S    
C9    H14   S    
C23   H5    S    
Cu1   O7    S    
Cu2   O9    S    
C17   C19   A    
C5    O8    A    
Cu1   Cu2   S    
C18   C20   A    
C13   C15   A    
C31   N2    A    
C3    C32   A    
C11   C14   A    
C14   C16   A    
Cu2   O5    S    
C24   O2    D    
C29   N2    A    
Cu1   O8    S    
C26   H10   S    
C24   H4    S    
C30   C32   A    
C7    H12   S    
C16   H18   S    
C28   H7    S    
C4    C27   A    
C20   C21   S    
Cu2   N1    S    
C16   C18   A    
C31   H11   S    
C1    O6    A    
Cu1   N2    S    
C15   C17   A    
C22   O12   D    
C6    C8    S    
C1    C14   S    
C19   C21   A    
C13   H17   S    
C12   O5    A    
C10   C21   A    
C6    O11   A    
C3    C4    S    
C5    O10   A    
C2    C31   A    
C30   N1    A    
C10   C13   A    
