data_mof_unit_23517.cif
_audit_creation_date              2012-12-10T17:56:44-0500
_audit_creation_method            fapswitch 2.2
_symmetry_space_group_name_H-M    P1
_symmetry_Int_Tables_number       1
_space_group_crystal_system       triclinic
_cell_length_a                    10.781613
_cell_length_b                    9.714555
_cell_length_c                    10.8494
_cell_angle_alpha                 90.333888
_cell_angle_beta                  93.446205
_cell_angle_gamma                 90.515282
_cell_volume                      1134.22682484

loop_
_atom_site_label
_atom_site_type_symbol
_atom_type_description
_atom_site_fract_x
_atom_site_fract_y
_atom_site_fract_z
_atom_type_partial_charge
C1    C     C_R   0.262989 0.499480 0.500449 0.822726
C2    C     C_R   0.737368 0.500409 0.502714 0.820971
C3    C     C_R   0.942372 0.585104 0.590379 0.114764
C4    C     C_R   0.072542 0.584825 0.589347 0.128624
C5    C     C_R   0.413437 0.072103 0.429317 0.235835
C6    C     C_R   0.586356 0.074664 0.570906 0.236481
C7    C     C_R   0.417351 0.925962 0.423912 0.248942
C8    C     C_R   0.581847 0.928736 0.576499 0.235927
C9    C     C_R   0.507635 0.500484 0.263263 0.780450
C10   C     C_R   0.493531 0.501017 0.736905 0.806203
C11   C     C_R   0.566697 0.753597 0.118601 -0.215936
C12   C     C_R   0.441553 0.755128 0.887434 -0.228136
C13   C     C_R   0.539014 0.878910 0.061805 -0.019664
C14   C     C_R   0.464770 0.879258 0.950741 -0.025084
C15   C     C_R   0.484078 0.629657 0.938504 0.083853
C16   C     C_R   0.523707 0.628771 0.063997 0.081996
C17   C     C_R   0.516719 0.503261 0.129142 -0.109334
C18   C     C_R   0.487391 0.504386 0.871271 -0.107888
C19   C     C_R   0.501928 0.380065 0.062851 -0.187113
C20   C     C_R   0.499983 0.380609 0.935516 -0.186618
C21   C     C_R   0.058502 0.412443 0.424752 -0.244327
C22   C     C_R   0.930213 0.413209 0.425357 -0.228215
C23   C     C_R   0.871914 0.500748 0.506118 -0.037464
C24   C     C_R   0.129371 0.498981 0.505106 -0.028569
Cu1   Cu    Cu3+1 0.500000 0.640660 0.500000 0.938417
Cu2   Cu    Cu3+1 0.500000 0.359340 0.500000 0.939072
H1    H     H_    0.492148 0.283278 0.109083 0.193729
H2    H     H_    0.506720 0.283972 0.887392 0.191936
H3    H     H_    0.623684 0.754613 0.204240 0.177805
H4    H     H_    0.384992 0.757240 0.801676 0.191783
H5    H     H_    0.102373 0.346860 0.359423 0.153674
H6    H     H_    0.876121 0.347278 0.361145 0.170399
N1    N     N_R   0.500000 0.852070 0.500000 -0.240608
N2    N     N_R   0.500000 0.147940 0.500000 -0.222572
O1    O     O_R   0.319640 0.618740 0.499990 -0.564897
O2    O     O_R   0.680360 0.618740 0.500010 -0.568610
O3    O     O_R   0.319620 0.381170 0.499990 -0.597944
O4    O     O_R   0.680380 0.381170 0.500010 -0.599395
O5    O     O_R   0.500000 0.618810 0.319650 -0.614255
O6    O     O_R   0.500000 0.618810 0.680350 -0.607506
O7    O     O_R   0.499970 0.381240 0.319640 -0.584689
O8    O     O_R   0.500030 0.381240 0.680360 -0.587667
C25   C     C_1   0.589281 0.002250 0.120614 0.202245
N3    N     N_1   0.633226 0.098196 0.170109 -0.298374
C26   C     C_1   0.405712 0.001328 0.901863 0.201736
N4    N     N_1   0.354447 0.096367 0.861208 -0.294819
N5    N     N_3   0.881655 0.665797 0.679380 -0.608939
H7    H     H_    0.907946 0.768821 0.669950 0.245414
H8    H     H_    0.911046 0.632982 0.767846 0.214781
N6    N     N_3   0.147815 0.667878 0.675074 -0.594920
H9    H     H_    0.129098 0.639913 0.764987 0.210871
H10   H     H_    0.124775 0.771218 0.661842 0.230660
N7    N     N_3   0.312124 0.136304 0.361308 -0.582187
H11   H     H_    0.342399 0.217637 0.308876 0.255455
H12   H     H_    0.246915 0.167202 0.422745 0.244730
N8    N     N_3   0.687344 0.141290 0.640109 -0.576694
H13   H     H_    0.657087 0.221819 0.693552 0.257037
H14   H     H_    0.754035 0.172938 0.580263 0.250343
N9    N     N_3   0.328166 0.860726 0.338045 -0.552555
H15   H     H_    0.347570 0.892871 0.249374 0.213675
H16   H     H_    0.334855 0.755388 0.335896 0.277327
N10   N     N_3   0.668360 0.866319 0.664294 -0.557492
H17   H     H_    0.645482 0.897444 0.752433 0.214822
H18   H     H_    0.661067 0.761027 0.663602 0.299791

loop_
_geom_bond_atom_site_label_1
_geom_bond_atom_site_label_2
_ccdc_geom_bond_type
C15   C18   A    
N6    H10   S    
C25   N3    T    
Cu2   O3    S    
C8    N10   S    
N10   H17   S    
C13   C14   A    
C10   O8    A    
C19   H1    S    
C11   C16   A    
C2    O4    A    
C3    C23   A    
C19   C20   A    
C12   C15   A    
C1    O3    A    
C6    N2    A    
C5    N2    A    
C13   C25   S    
N7    H12   S    
N6    H9    S    
N9    H15   S    
N5    H8    S    
N7    H11   S    
Cu1   O5    S    
C11   H3    S    
C21   H5    S    
C9    C17   S    
C22   H6    S    
Cu1   O1    S    
C3    N5    S    
C4    C24   A    
C5    N7    S    
C17   C19   A    
C12   C14   A    
C14   C26   S    
C18   C20   A    
C8    N1    A    
N8    H14   S    
Cu1   O6    S    
C10   C18   S    
N9    H16   S    
Cu1   N1    S    
C7    N1    A    
Cu1   O2    S    
C2    O2    A    
C15   C16   A    
N5    H7    S    
C26   N4    T    
C11   C13   A    
N8    H13   S    
Cu2   O8    S    
C1    C24   S    
C10   O6    A    
C21   C24   A    
C6    N8    S    
C2    C23   S    
C5    C7    A    
C1    O1    A    
C22   C23   A    
Cu2   O4    S    
C6    C8    A    
N10   H18   S    
C20   H2    S    
C12   H4    S    
Cu1   Cu2   S    
C21   C22   A    
C9    O7    A    
Cu2   N2    S    
C9    O5    A    
C3    C4    A    
C7    N9    S    
Cu2   O7    S    
C4    N6    S    
C16   C17   A    
