data_mof_unit_49251.cif
_audit_creation_date              2012-10-26T19:34:00-0400
_audit_creation_method            fapswitch 2.2
_symmetry_space_group_name_H-M    P1
_symmetry_Int_Tables_number       1
_space_group_crystal_system       triclinic
_cell_length_a                    8.728203
_cell_length_b                    19.409783
_cell_length_c                    18.124811
_cell_angle_alpha                 90.412635
_cell_angle_beta                  97.940407
_cell_angle_gamma                 90.061653
_cell_volume                      3041.04475767

loop_
_atom_site_label
_atom_site_type_symbol
_atom_type_description
_atom_site_fract_x
_atom_site_fract_y
_atom_site_fract_z
_atom_type_partial_charge
C1    C     C_R   0.499821 0.367375 0.499693 0.548423
C2    C     C_R   0.607574 0.538688 0.287569 0.066688
C3    C     C_R   0.389057 0.458300 0.789987 0.245269
C4    C     C_R   0.612469 0.541086 0.210172 0.245746
C5    C     C_R   0.496250 0.498198 0.838484 -0.000877
C6    C     C_R   0.504118 0.501819 0.161523 -0.005549
C7    C     C_R   0.605389 0.537661 0.806909 -0.180390
C8    C     C_R   0.393686 0.463029 0.192980 -0.185967
C9    C     C_R   0.605036 0.538098 0.729410 0.038393
C10   C     C_R   0.393901 0.462550 0.270466 0.036031
C11   C     C_R   0.626909 0.474550 0.968880 -0.072477
C12   C     C_R   0.500174 0.632625 0.500307 0.548086
C13   C     C_R   0.373371 0.525413 0.031094 -0.083041
C14   C     C_R   0.628423 0.474679 0.046562 -0.046525
C15   C     C_R   0.371781 0.525215 0.953402 -0.046627
C16   C     C_R   0.203487 0.499996 0.480995 0.557355
C17   C     C_R   0.796513 0.500006 0.519004 0.557578
C18   C     C_R   0.502267 0.500696 0.078680 0.065841
C19   C     C_R   0.498068 0.499308 0.921304 0.074940
C20   C     C_2   0.037800 0.500079 0.470428 -0.147877
C21   C     C_2   0.962200 0.499925 0.529569 -0.147836
C22   C     C_R   0.499924 0.745285 0.435362 -0.122991
C23   C     C_R   0.634725 0.965028 0.529187 -0.119035
C24   C     C_R   0.499985 0.254718 0.564637 -0.122398
C25   C     C_R   0.499810 0.816852 0.436714 -0.124428
C26   C     C_R   0.500083 0.183151 0.563289 -0.124315
C27   C     C_R   0.500472 0.852722 0.504040 0.022132
C28   C     C_R   0.499469 0.147279 0.495968 0.022015
C29   C     C_R   0.499248 0.816708 0.571574 0.024827
C30   C     C_R   0.500752 0.183288 0.428436 0.024836
C31   C     C_R   0.499855 0.744211 0.569143 -0.105927
C32   C     C_R   0.500164 0.255786 0.430864 -0.105851
C33   C     C_R   0.500176 0.708408 0.501488 -0.007546
C34   C     C_R   0.365211 0.034973 0.470823 -0.119068
C35   C     C_R   0.499800 0.291592 0.498514 -0.007664
C36   C     C_3   0.495003 0.856838 0.643944 -0.272996
C37   C     C_3   0.478524 0.813788 0.712797 -0.446634
C38   C     C_3   0.505036 0.143155 0.356072 -0.272613
C39   C     C_3   0.521540 0.186199 0.287218 -0.447607
C40   C     C_R   0.634095 0.036765 0.527469 -0.118490
C41   C     C_R   0.365841 0.963236 0.472541 -0.118497
C42   C     C_R   0.499566 0.071828 0.497959 0.018715
C43   C     C_R   0.500370 0.928173 0.502052 0.018753
C44   C     C_R   0.393637 0.460695 0.712564 0.064417
Cu1   Cu    Cu3+1 0.499960 0.500000 0.573360 0.959528
Cu2   Cu    Cu3+1 0.500040 0.500000 0.426640 0.957892
H1    H     H_    0.977809 0.500298 0.413701 0.141328
H2    H     H_    0.272098 0.545673 0.918264 0.146457
H3    H     H_    0.499932 0.718879 0.382513 0.154398
H4    H     H_    0.499937 0.281126 0.617483 0.155789
H5    H     H_    0.499920 0.844579 0.385035 0.129861
H6    H     H_    0.499925 0.155426 0.614966 0.129914
H7    H     H_    0.499865 0.714954 0.619606 0.133976
H8    H     H_    0.500205 0.285041 0.380403 0.134394
H9    H     H_    0.739484 0.938185 0.551551 0.110835
H10   H     H_    0.260454 0.061816 0.448457 0.110809
H11   H     H_    0.738319 0.064983 0.548564 0.117166
H12   H     H_    0.022192 0.499706 0.586295 0.140381
H13   H     H_    0.261618 0.935018 0.451446 0.117130
H14   H     H_    0.312399 0.430493 0.675025 0.162214
H15   H     H_    0.689602 0.568402 0.325215 0.162974
H16   H     H_    0.371022 0.782381 0.703482 0.155196
H17   H     H_    0.580812 0.779954 0.726799 0.150394
H18   H     H_    0.471434 0.848652 0.761052 0.152955
H19   H     H_    0.602763 0.887741 0.656244 0.149690
H20   H     H_    0.395827 0.893171 0.635822 0.157278
H21   H     H_    0.419256 0.220034 0.273207 0.149507
H22   H     H_    0.629044 0.217605 0.296538 0.155466
H23   H     H_    0.689768 0.568569 0.842120 0.126701
H24   H     H_    0.528642 0.151333 0.238967 0.151861
H25   H     H_    0.604215 0.106823 0.364208 0.157354
H26   H     H_    0.397281 0.112248 0.343764 0.149545
H27   H     H_    0.242176 0.344080 0.923113 0.369813
H28   H     H_    0.974360 0.579287 0.140391 0.370779
H29   H     H_    0.308405 0.432642 0.157681 0.123695
H30   H     H_    0.688933 0.569113 0.705855 0.136621
H31   H     H_    0.309038 0.432016 0.293906 0.138236
H32   H     H_    0.725668 0.454219 0.945736 0.135593
H33   H     H_    0.274566 0.545710 0.054233 0.120638
H34   H     H_    0.727910 0.454043 0.081670 0.156058
N1    N     N_R   0.499980 0.500020 0.683620 -0.258590
N2    N     N_R   0.500020 0.499980 0.316380 -0.259251
O1    O     O_R   0.499930 0.400180 0.561970 -0.497333
O2    O     O_2   0.200315 0.348433 0.766645 -0.283031
O3    O     O_3   0.330283 0.366038 0.903224 -0.519656
O4    O     O_2   0.683421 0.629216 0.105963 -0.274638
O5    O     O_2   0.805260 0.649513 0.234359 -0.288301
O6    O     O_3   0.904208 0.546996 0.161486 -0.556094
O7    O     O_R   0.500070 0.599820 0.438030 -0.498208
O8    O     O_R   0.500010 0.400190 0.438070 -0.510030
O9    O     O_R   0.499990 0.599810 0.561930 -0.510759
O10   O     O_R   0.274810 0.500000 0.547650 -0.509228
O11   O     O_R   0.725190 0.500000 0.452350 -0.509123
O12   O     O_R   0.274880 0.500000 0.423750 -0.490893
O13   O     O_R   0.725120 0.500000 0.576250 -0.489847
O14   O     O_2   0.114358 0.445541 0.837397 -0.313608
S1    S     S_3+6 0.252101 0.403492 0.823426 -0.014792
S2    S     S_3+6 0.751647 0.595053 0.177153 -0.015865

loop_
_geom_bond_atom_site_label_1
_geom_bond_atom_site_label_2
_ccdc_geom_bond_type
C13   H33   S    
C34   H10   S    
C1    O8    A    
C4    S2    S    
C16   O12   A    
C27   C29   A    
C39   H22   S    
C14   C18   A    
C12   O9    A    
C34   C42   A    
C37   H16   S    
Cu2   O7    S    
Cu1   Cu2   S    
C15   C19   A    
C29   C36   S    
C11   C19   A    
C13   C18   A    
O2    S1    D    
C36   C37   S    
C24   C26   A    
C38   C39   S    
C11   C14   A    
C36   H20   S    
C23   C40   A    
C23   C43   A    
C30   C38   S    
Cu1   O10   S    
Cu2   N2    S    
C1    O1    A    
C22   C25   A    
C31   C33   A    
C17   O13   A    
C9    H30   S    
C14   H34   S    
C2    H15   S    
O5    S2    D    
C40   C42   A    
C41   C43   A    
Cu1   O1    S    
C34   C41   A    
C15   H2    S    
O4    S2    D    
C32   H8    S    
C37   H17   S    
C10   H31   S    
C24   H4    S    
C6    C18   S    
C38   H26   S    
C3    C44   A    
C24   C35   A    
C32   C35   A    
C12   O7    A    
C41   H13   S    
C4    C6    A    
C44   N1    A    
C5    C7    A    
C36   H19   S    
C6    C8    A    
C10   N2    A    
C8    H29   S    
C17   C21   S    
C2    C4    A    
C25   H5    S    
C11   H32   S    
C26   H6    S    
C3    S1    S    
Cu2   O12   S    
C16   C20   S    
O14   S1    D    
C31   H7    S    
H27   O3    S    
C22   H3    S    
Cu2   O8    S    
C16   O10   A    
C13   C15   A    
C2    N2    A    
C17   O11   A    
Cu1   O13   S    
C37   H18   S    
C1    C35   S    
C7    C9    A    
C22   C33   A    
C38   H25   S    
C40   H11   S    
C39   H21   S    
Cu1   N1    S    
C3    C5    A    
C7    H23   S    
C23   H9    S    
C5    C19   S    
C25   C27   A    
C26   C28   A    
C28   C30   A    
C21   H12   S    
C29   C31   A    
C30   C32   A    
Cu2   O11   S    
C44   H14   S    
C28   C42   S    
C39   H24   S    
Cu1   O9    S    
C20   H1    S    
O3    S1    S    
C27   C43   S    
C20   C21   D    
C8    C10   A    
H28   O6    S    
C12   C33   S    
O6    S2    S    
C9    N1    A    
