data_mof_unit_44047.cif
_audit_creation_date              2012-12-11T17:43:20-0500
_audit_creation_method            fapswitch 2.2
_symmetry_space_group_name_H-M    P1
_symmetry_Int_Tables_number       1
_space_group_crystal_system       triclinic
_cell_length_a                    15.128201
_cell_length_b                    15.295159
_cell_length_c                    16.901728
_cell_angle_alpha                 108.707445
_cell_angle_beta                  106.10223
_cell_angle_gamma                 108.951123
_cell_volume                      3169.86024103

loop_
_atom_site_label
_atom_site_type_symbol
_atom_type_description
_atom_site_fract_x
_atom_site_fract_y
_atom_site_fract_z
_atom_type_partial_charge
C1    C     C_R   0.086708 0.278135 0.053884 0.581399
C2    C     C_R   0.916113 0.708377 0.917308 0.559439
C3    C     C_R   0.030044 0.462116 0.726630 0.063897
C4    C     C_R   0.973864 0.429801 0.260192 0.083440
C5    C     C_R   0.699433 0.201465 0.727903 -0.103513
C6    C     C_R   0.238818 0.800382 0.273827 -0.137295
C7    C     C_R   0.360140 0.567024 0.060779 -0.147462
C8    C     C_R   0.702809 0.528305 0.026925 0.041319
C9    C     C_R   0.917162 0.909184 0.968032 -0.229746
C10   C     C_R   0.072582 0.062397 0.961823 -0.317988
C11   C     C_R   0.995269 0.891703 0.948429 0.131054
C12   C     C_R   0.997911 0.082107 0.987797 0.089126
C13   C     C_R   0.072126 0.966609 0.941580 0.165537
C14   C     C_R   0.917678 0.003864 0.988693 0.168273
C15   C     C_R   0.732429 0.957884 0.945492 -0.385645
C16   C     C_R   0.256286 0.015468 0.970663 -0.386826
C17   C     C_R   0.668353 0.016292 0.058106 0.431817
C18   C     C_R   0.306514 0.910915 0.868180 0.437458
C19   C     C_R   0.525958 0.787384 0.341130 -0.489131
C20   C     C_R   0.483695 0.288411 0.732168 -0.485578
C21   C     C_R   0.528772 0.747447 0.254868 0.551734
C22   C     C_R   0.505196 0.339755 0.825937 0.490754
C23   C     C_R   0.938564 0.454206 0.735035 -0.151938
C24   C     C_R   0.063861 0.486141 0.256209 -0.018137
C25   C     C_R   0.549320 0.661686 0.228892 0.061784
C26   C     C_R   0.511054 0.439168 0.860913 0.064205
C27   C     C_R   0.570734 0.620238 0.290938 -0.342298
C28   C     C_R   0.493531 0.484635 0.801608 -0.262725
C29   C     C_R   0.568832 0.661324 0.376677 -0.085790
C30   C     C_R   0.473818 0.433639 0.709245 -0.179318
C31   C     C_R   0.545600 0.744429 0.402210 0.626112
C32   C     C_R   0.468399 0.335220 0.673633 0.636353
C33   C     C_R   0.628650 0.598773 0.124384 0.471282
C34   C     C_R   0.438024 0.501747 0.967623 0.435223
C35   C     C_R   0.615894 0.539370 0.035731 0.024828
C36   C     C_R   0.451178 0.563681 0.055571 -0.095386
C37   C     C_R   0.522149 0.492246 0.956419 -0.089554
C38   C     C_R   0.544219 0.610733 0.135266 -0.126236
C39   C     C_R   0.650703 0.958811 0.967524 -0.145510
C40   C     C_R   0.332559 0.997773 0.947772 -0.112623
C41   C     C_R   0.964066 0.395730 0.331136 -0.047110
C42   C     C_R   0.038701 0.409774 0.640191 -0.143570
C43   C     C_R   0.136704 0.418496 0.548275 -0.337459
C44   C     C_R   0.862800 0.339988 0.410449 -0.254627
C45   C     C_R   0.739847 0.205163 0.813432 -0.183535
C46   C     C_R   0.221627 0.795242 0.187358 -0.163320
C47   C     C_R   0.134704 0.435202 0.634505 0.525902
C48   C     C_R   0.870879 0.370282 0.342097 0.455204
C49   C     C_R   0.947765 0.348069 0.557373 0.427778
C50   C     C_R   0.048131 0.392207 0.390620 0.435085
C51   C     C_R   0.950988 0.354080 0.478017 0.039311
C52   C     C_R   0.045822 0.385928 0.471332 -0.105727
C53   C     C_R   0.625721 0.112633 0.641649 0.121446
C54   C     C_R   0.295877 0.894545 0.359387 0.142271
C55   C     C_R   0.342082 0.964006 0.522973 -0.212377
C56   C     C_R   0.574787 0.052022 0.478570 -0.224662
C57   C     C_R   0.266854 0.903102 0.432376 -0.169588
C58   C     C_R   0.651494 0.100339 0.566934 -0.133726
C59   C     C_R   0.395338 0.956678 0.375411 -0.242077
C60   C     C_R   0.523933 0.063258 0.628259 -0.277383
C61   C     C_R   0.471857 0.009818 0.464429 0.140839
C62   C     C_R   0.445706 0.012485 0.539217 0.149187
C63   C     C_R   0.771707 0.079826 0.127556 0.213561
C64   C     C_R   0.200934 0.837542 0.811749 0.219180
C65   C     C_R   0.855048 0.078532 0.104818 0.465256
C66   C     C_R   0.123197 0.858079 0.833020 0.460984
C67   C     C_R   0.301848 0.597893 0.008356 0.570351
C68   C     C_R   0.732880 0.457726 0.043571 0.501706
C69   C     C_R   0.834406 0.016529 0.013476 -0.046797
C70   C     C_R   0.151592 0.946566 0.913981 -0.043917
C71   C     C_R   0.742045 0.301510 0.738079 0.484747
C72   C     C_R   0.220999 0.701926 0.265500 0.528861
C73   C     C_R   0.294991 0.500804 0.081162 0.489175
C74   C     C_R   0.744896 0.557314 0.972020 0.341783
C75   C     C_R   0.109844 0.533186 0.813231 0.002198
C76   C     C_R   0.893671 0.399600 0.178163 -0.003902
C77   C     C_R   0.915058 0.195444 0.971506 -0.204493
C78   C     C_R   0.085380 0.796491 0.002723 -0.256068
C79   C     C_R   0.000337 0.181465 0.004945 -0.088031
C80   C     C_R   0.000775 0.800828 0.951077 0.026014
H1    H     H_    0.730968 0.136098 0.578095 0.152128
H2    H     H_    0.188831 0.854536 0.419231 0.148129
H3    H     H_    0.835444 0.138061 0.934710 0.143512
H4    H     H_    0.165406 0.851710 0.030179 0.148598
N1    N     N_R   0.055660 0.348550 0.045620 -0.077394
N2    N     N_R   0.944340 0.651450 0.954380 -0.113338
N3    N     N_R   0.960830 0.507850 0.823700 -0.060071
N4    N     N_R   0.039170 0.492150 0.176300 -0.072839
N5    N     N_R   0.811290 0.303410 0.871650 -0.066575
N6    N     N_R   0.188710 0.696590 0.128350 -0.070829
N7    N     N_R   0.205200 0.552990 0.997670 -0.129433
N8    N     N_R   0.794800 0.447010 0.002330 -0.147835
N9    N     N_R   0.814800 0.361830 0.823700 -0.075594
N10   N     N_R   0.185200 0.638170 0.176300 -0.078834
N11   N     N_R   0.201680 0.494570 0.045620 -0.117103
N12   N     N_R   0.798320 0.505430 0.954380 -0.136232
N13   N     N_R   0.068420 0.560530 0.871650 -0.058743
N14   N     N_R   0.931580 0.439470 0.128350 -0.086174
N15   N     N_R   0.948070 0.295860 0.997670 -0.077249
N16   N     N_R   0.051930 0.704140 0.002330 -0.060892
Ni1   Ni    Ni4+2 0.119340 0.493420 0.109960 0.312408
Ni2   Ni    Ni4+2 0.880660 0.506580 0.890040 0.230633
Ni3   Ni    Ni4+2 0.872590 0.372590 0.000000 0.179864
Ni4   Ni    Ni4+2 0.127410 0.627410 0.000000 0.248218
O1    O     O_3   0.181256 0.302540 0.117554 -0.686187
H5    H     H_    0.179058 0.238766 0.121579 0.322796
O2    O     O_3   0.835758 0.667780 0.832527 -0.717747
H6    H     H_    0.812363 0.591950 0.802726 0.320893
H7    H     H_    0.716163 0.909625 0.875205 0.207039
H8    H     H_    0.279055 0.083191 0.033242 0.195735
O3    O     O_3   0.542828 0.781949 0.486908 -0.735503
H9    H     H_    0.524583 0.839860 0.494206 0.322919
O4    O     O_3   0.446213 0.286112 0.581396 -0.736919
H10   H     H_    0.443682 0.216909 0.566714 0.317256
H11   H     H_    0.508400 0.851571 0.360499 0.140732
H12   H     H_    0.476207 0.211254 0.704271 0.140230
O5    O     O_3   0.512536 0.791071 0.195619 -0.757474
H13   H     H_    0.498180 0.849500 0.223831 0.317151
O6    O     O_3   0.515970 0.292807 0.882984 -0.743053
H14   H     H_    0.511100 0.224195 0.848047 0.318899
H15   H     H_    0.586662 0.554229 0.271819 0.202215
H16   H     H_    0.495100 0.560021 0.827306 0.200543
H17   H     H_    0.584374 0.627602 0.423077 0.163497
H18   H     H_    0.461081 0.470164 0.664801 0.163637
O7    O     O_3   0.724919 0.644863 0.197460 -0.732722
H19   H     H_    0.730217 0.702031 0.250110 0.331448
O8    O     O_3   0.340669 0.450272 0.894434 -0.742298
H20   H     H_    0.333882 0.387907 0.846018 0.338285
O9    O     O_3   0.130875 0.396729 0.369553 -0.749932
H21   H     H_    0.162985 0.359804 0.396393 0.340588
O10   O     O_3   0.855378 0.286177 0.553098 -0.768004
H22   H     H_    0.872478 0.266712 0.603855 0.303136
O11   O     O_3   0.789858 0.378547 0.287794 -0.739152
H23   H     H_    0.731251 0.357977 0.304690 0.326748
O12   O     O_3   0.224764 0.476355 0.712463 -0.750843
H24   H     H_    0.284006 0.488948 0.695756 0.321894
H25   H     H_    0.210709 0.442878 0.545054 0.163730
H26   H     H_    0.790718 0.318264 0.417476 0.184415
H27   H     H_    0.862414 0.414185 0.680580 0.220516
H28   H     H_    0.141267 0.507866 0.301389 0.238795
H29   H     H_    0.572487 0.910841 0.914272 0.220911
H30   H     H_    0.412909 0.053075 0.991697 0.205208
H31   H     H_    0.505719 0.070710 0.687041 0.132904
H32   H     H_    0.416321 0.949601 0.318012 0.123057
H33   H     H_    0.320577 0.966607 0.579430 0.146604
H34   H     H_    0.595831 0.047597 0.421591 0.154412
O13   O     O_3   0.582955 0.005855 0.076120 -0.729360
H35   H     H_    0.600930 0.015489 0.140298 0.329816
O14   O     O_3   0.385915 0.902040 0.847053 -0.749148
H36   H     H_    0.358401 0.859823 0.779593 0.322061
O15   O     O_3   0.793446 0.142445 0.217002 -0.772472
H37   H     H_    0.736006 0.160081 0.216745 0.335512
O16   O     O_3   0.171717 0.745531 0.737416 -0.762785
H38   H     H_    0.227419 0.724403 0.749861 0.340759
O17   O     O_3   0.956848 0.135406 0.169797 -0.737486
H39   H     H_    0.960469 0.175218 0.230710 0.370530
O18   O     O_3   0.019165 0.793257 0.776873 -0.717822
H40   H     H_    0.010074 0.735446 0.722304 0.374790
H41   H     H_    0.713784 0.143148 0.831737 0.135291
H42   H     H_    0.234726 0.859289 0.170581 0.143400
O19   O     O_3   0.337857 0.676698 0.985232 -0.742779
H43   H     H_    0.413280 0.701533 0.005380 0.357818
O20   O     O_3   0.684564 0.390122 0.072773 -0.689939
H44   H     H_    0.689568 0.325719 0.042962 0.311379
O21   O     O_3   0.701685 0.339613 0.681304 -0.773201
H45   H     H_    0.640068 0.281103 0.626255 0.341026
O22   O     O_3   0.254154 0.675646 0.334784 -0.770952
H46   H     H_    0.293030 0.738863 0.394522 0.328289
O23   O     O_3   0.323629 0.466762 0.145231 -0.671933
H47   H     H_    0.389856 0.465611 0.150191 0.325164
O24   O     O_3   0.717813 0.611784 0.927868 -0.738644
H48   H     H_    0.702139 0.571055 0.862802 0.341626
H49   H     H_    0.191232 0.560497 0.833316 0.217724
H50   H     H_    0.817775 0.336539 0.149981 0.157976
H51   H     H_    0.858621 0.850724 0.973653 0.175293
H52   H     H_    0.130416 0.121428 0.956259 0.162547

loop_
_geom_bond_atom_site_label_1
_geom_bond_atom_site_label_2
_ccdc_geom_bond_type
N15   Ni3   S    
O24   H48   S    
C63   C65   A    
C3    C42   S    
O21   H45   S    
N6    N10   A    
N12   Ni2   S    
C75   H49   S    
C34   C37   A    
C7    C36   S    
C15   H7    S    
C3    C23   A    
O20   H44   S    
C45   H41   S    
C75   N13   A    
N7    Ni4   S    
C19   C31   A    
N4    Ni1   S    
C27   H15   S    
C16   H8    S    
O12   H24   S    
C7    C73   A    
C66   C70   A    
C13   C70   S    
C24   H28   S    
C6    C72   A    
C49   O10   S    
C8    C74   A    
O18   H40   S    
C5    C53   S    
C17   O13   S    
C78   N16   A    
O9    H21   S    
C40   H30   S    
C60   H31   S    
C17   C39   A    
C4    C24   A    
C28   H16   S    
C43   C52   A    
C55   H33   S    
C27   C29   A    
C4    C41   S    
C77   H3    S    
C76   N14   A    
N14   Ni3   S    
C12   C79   S    
C2    O2    S    
N8    N12   A    
C60   C62   A    
O23   H47   S    
C2    N2    A    
C18   C40   A    
C21   O5    S    
N8    Ni3   S    
C33   C35   A    
N16   Ni4   S    
O13   H35   S    
N10   Ni1   S    
C34   O8    S    
C49   C51   A    
N11   Ni1   S    
C50   C52   A    
O15   H37   S    
C43   H25   S    
C32   O4    S    
C18   O14   S    
C3    C75   A    
N6    Ni4   S    
C34   C36   A    
C53   C58   A    
C42   C47   A    
C72   N10   A    
C23   N3    A    
N5    Ni3   S    
C1    N1    A    
C72   O22   S    
C6    C54   S    
C33   O7    S    
C53   C60   A    
O19   H43   S    
C54   C59   A    
C77   C79   A    
C10   H52   S    
C22   O6    S    
C15   C69   A    
C59   C61   A    
C51   C52   A    
C39   H29   S    
C48   O11   S    
C16   C70   A    
C58   H1    S    
O22   H46   S    
C20   H12   S    
C5    C45   A    
C64   O16   S    
C8    C35   S    
C64   C66   A    
C77   N15   A    
C9    C14   A    
C56   H34   S    
N1    N15   A    
C50   O9    S    
C74   N12   A    
C25   C38   S    
N3    Ni2   S    
C9    C11   A    
C67   O19   S    
C19   H11   S    
O2    H6    S    
C46   H42   S    
C67   N7    A    
C47   O12   S    
C24   N4    A    
C15   C39   A    
C63   O15   S    
C74   O24   S    
C10   C12   A    
C16   C40   A    
C71   N9    A    
C44   C51   A    
C30   H18   S    
C59   H32   S    
C8    C68   A    
C55   C57   A    
C71   O21   S    
O11   H23   S    
C1    C79   A    
C14   C69   S    
C73   N11   A    
C73   O23   S    
O10   H22   S    
N2    Ni2   S    
C41   C50   A    
N1    Ni1   S    
C35   C37   A    
O4    H10   S    
C20   C32   A    
C68   O20   S    
C23   H27   S    
C21   C25   A    
C44   H26   S    
C45   N5    A    
C6    C46   A    
O3    H9    S    
C19   C21   A    
C57   H2    S    
C65   O17   S    
C20   C22   A    
C10   C13   A    
N9    Ni2   S    
O6    H14   S    
C26   C37   S    
C46   N6    A    
C25   C27   A    
O1    H5    S    
C26   C28   A    
C33   C38   A    
C28   C30   A    
C12   C14   A    
C5    C71   A    
C44   C48   A    
O14   H36   S    
C17   C63   A    
C30   C32   A    
N2    N16   A    
C11   C13   A    
C18   C64   A    
O7    H19   S    
C65   C69   A    
C29   H17   S    
C36   C38   A    
C68   N8    A    
C41   C48   A    
C56   C58   A    
C9    H51   S    
C78   C80   A    
C76   H50   S    
N5    N9    A    
C61   C62   A    
C4    C76   A    
N13   Ni4   S    
C2    C80   A    
C11   C80   S    
C42   C49   A    
C7    C67   A    
C78   H4    S    
C55   C62   A    
N7    N11   A    
C29   C31   A    
C22   C26   A    
O17   H39   S    
C31   O3    S    
C56   C61   A    
O16   H38   S    
O5    H13   S    
C43   C47   A    
C66   O18   S    
N4    N14   A    
O8    H20   S    
C1    O1    S    
N3    N13   A    
C54   C57   A    
