data_mof_unit_47360.cif
_audit_creation_date              2012-12-11T15:57:51-0500
_audit_creation_method            fapswitch 2.2
_symmetry_space_group_name_H-M    P1
_symmetry_Int_Tables_number       1
_space_group_crystal_system       triclinic
_cell_length_a                    10.723421
_cell_length_b                    10.742159
_cell_length_c                    16.992901
_cell_angle_alpha                 99.573531
_cell_angle_beta                  99.551501
_cell_angle_gamma                 61.60429
_cell_volume                      1689.43263555

loop_
_atom_site_label
_atom_site_type_symbol
_atom_type_description
_atom_site_fract_x
_atom_site_fract_y
_atom_site_fract_z
_atom_type_partial_charge
C1    C     C_R   0.357019 0.772648 0.400327 0.556668
C2    C     C_2   0.334785 0.353485 0.833732 -0.111705
C3    C     C_2   0.455499 0.280006 0.799472 -0.163002
C4    C     C_R   0.369898 0.346511 0.357181 0.540264
C5    C     C_2   0.462287 0.299999 0.718643 -0.151099
C6    C     C_1   0.816837 0.342257 0.708798 -0.042566
C7    C     C_1   0.843503 0.313723 0.776488 -0.040031
C8    C     C_1   0.358561 0.763522 0.713629 -0.034132
C9    C     C_1   0.325769 0.810858 0.780522 -0.034996
C10   C     C_R   0.889648 0.309636 0.085160 0.545570
C11   C     C_R   0.319090 0.299795 0.119621 0.544743
C12   C     C_2   0.816192 0.337280 0.156028 -0.113263
C13   C     C_R   0.295576 0.887593 0.082224 0.554056
C14   C     C_R   0.885044 0.297145 0.858737 0.547451
C15   C     C_R   0.308397 0.295526 0.895911 0.554505
C16   C     C_R   0.776609 0.375937 0.404193 0.547554
C17   C     C_R   0.280397 0.880869 0.857235 0.548496
C18   C     C_R   0.381242 0.714026 0.631391 0.556667
C19   C     C_R   0.371400 0.348678 0.584189 0.541298
C20   C     C_R   0.773061 0.381099 0.629702 0.540633
C21   C     C_1   0.343623 0.336496 0.273806 -0.051341
C22   C     C_1   0.332000 0.326818 0.202896 -0.037255
C23   C     C_2   0.811995 0.230966 0.186612 -0.006876
C24   C     C_2   0.842100 0.328654 0.328617 -0.119128
C25   C     C_3   0.785936 0.117518 0.130805 -0.344159
C26   C     C_3   0.829647 0.097236 0.304166 -0.354422
C27   C     C_3   0.675533 0.835444 0.243632 -0.303204
C28   C     C_3   0.218751 0.084144 0.304312 -0.291619
C29   C     C_2   0.826898 0.225407 0.275341 -0.005181
C30   C     C_2   0.345467 0.835816 0.328048 0.114023
C31   C     C_2   0.348966 0.806893 0.151683 -0.075039
C32   C     C_2   0.457677 0.805503 0.204551 0.110293
C33   C     C_2   0.461556 0.774659 0.286267 -0.097379
C34   C     C_2   0.348770 0.336637 0.663028 -0.090423
Cr1   Cr    Cr6+3 0.608020 0.610770 0.522990 1.029646
Cr2   Cr    Cr6+3 0.289390 0.599570 0.488050 1.022273
Cr3   Cr    Cr6+3 0.602610 0.289690 0.489020 1.005309
Cr4   Cr    Cr6+3 0.053780 0.052210 0.965970 1.020028
Cr5   Cr    Cr6+3 0.060060 0.372530 0.992430 1.025816
Cr6   Cr    Cr6+3 0.372600 0.061970 0.991430 1.023510
H1    H     H_    0.567306 0.272243 0.702957 0.157760
H2    H     H_    0.741097 0.150890 0.069652 0.145065
H3    H     H_    0.886570 0.016429 0.127146 0.150136
H4    H     H_    0.892972 0.998420 0.266555 0.105830
H5    H     H_    0.883633 0.077897 0.365805 0.144713
H6    H     H_    0.719597 0.111387 0.301257 0.163250
H7    H     H_    0.601283 0.783267 0.127695 0.260115
H8    H     H_    0.743027 0.868435 0.218375 0.132002
H9    H     H_    0.744105 0.727720 0.263663 0.133833
H10   H     H_    0.627668 0.913255 0.295456 0.166264
H11   H     H_    0.128205 0.962803 0.326360 0.257843
H12   H     H_    0.246855 0.446400 0.808500 0.113143
H13   H     H_    0.118649 0.162122 0.273757 0.151329
H14   H     H_    0.308069 0.071090 0.273263 0.180360
H15   H     H_    0.230579 0.126921 0.367769 0.140966
H16   H     H_    0.242433 0.365014 0.676473 0.099126
H17   H     H_    0.797181 0.436954 0.191519 0.084912
H18   H     H_    0.871863 0.402085 0.310673 0.075740
H19   H     H_    0.561636 0.691350 0.310241 0.120909
H20   H     H_    0.279417 0.769525 0.168055 0.110446
H21   H     H_    0.547192 0.192913 0.827161 0.159708
H22   H     H_    0.704933 0.099094 0.152917 0.136583
N1    N     N_2   0.564986 0.833096 0.182590 -0.485514
N2    N     N_2   0.214402 0.950595 0.300826 -0.534076
O1    O     O_R   0.749250 0.499990 0.439200 -0.518663
O2    O     O_R   0.411120 0.181190 0.091480 -0.513286
O3    O     O_R   0.364220 0.944920 0.062310 -0.479722
O4    O     O_R   0.477870 0.725740 0.440280 -0.507080
O5    O     O_R   0.158740 0.906940 0.874970 -0.505941
O6    O     O_R   0.930920 0.176940 0.885610 -0.498074
O7    O     O_R   0.910730 0.394510 0.895320 -0.508847
O8    O     O_R   0.185840 0.361180 0.920280 -0.497770
O9    O     O_R   0.399210 0.173040 0.915160 -0.513260
O10   O     O_R   0.353170 0.937370 0.898860 -0.495848
O11   O     O_3   0.162150 0.162240 0.983280 -0.248982
O12   O     O_R   0.299400 0.468710 0.556310 -0.508381
O13   O     O_R   0.260770 0.742210 0.412610 -0.513527
O14   O     O_R   0.297990 0.466320 0.394220 -0.494668
O15   O     O_R   0.487720 0.253870 0.385870 -0.524106
O16   O     O_R   0.721940 0.304340 0.422320 -0.494420
O17   O     O_R   0.750770 0.502570 0.614050 -0.506913
O18   O     O_R   0.479280 0.728140 0.602370 -0.483998
O19   O     O_R   0.262290 0.744790 0.587460 -0.501204
O20   O     O_R   0.489240 0.256450 0.560730 -0.508008
O21   O     O_R   0.723350 0.306730 0.584410 -0.506053
O22   O     O_3   0.500010 0.500010 0.500020 -0.272066
O23   O     O_R   0.170650 0.915100 0.051290 -0.521738
O24   O     O_R   0.941960 0.184500 0.049060 -0.493601
O25   O     O_R   0.922640 0.402670 0.071640 -0.516888
O26   O     O_R   0.196880 0.368740 0.083740 -0.499383

loop_
_geom_bond_atom_site_label_1
_geom_bond_atom_site_label_2
_ccdc_geom_bond_type
C27   H8    S    
Cr4   O6    S    
C34   H16   S    
C30   N2    S    
C1    O13   A    
C14   O7    A    
C25   H3    S    
Cr1   O17   S    
C26   H4    S    
C17   O5    A    
C15   O8    A    
Cr3   O15   S    
C12   C23   D    
C10   O24   A    
C23   C29   S    
Cr3   O21   S    
C19   O12   A    
Cr2   O13   S    
H7    N1    S    
Cr1   O22   S    
Cr1   O1    S    
Cr2   O19   S    
C1    O4    A    
Cr6   O9    S    
C24   C29   D    
Cr2   O12   S    
C26   H5    S    
C28   H15   S    
C7    C14   S    
C10   O25   A    
C8    C9    T    
Cr6   O3    S    
Cr5   O8    S    
Cr3   O20   S    
Cr5   O11   S    
Cr5   O26   S    
C11   O2    A    
Cr4   O5    S    
C16   C24   S    
Cr6   O2    S    
C21   C22   T    
C5    C34   D    
C14   O6    A    
C10   C12   S    
Cr1   O18   S    
Cr4   O11   S    
C3    H21   S    
Cr3   O16   S    
C24   H18   S    
Cr3   O22   S    
C4    O15   A    
C28   H14   S    
Cr2   O22   S    
C8    C18   S    
Cr4   O24   S    
C16   O16   A    
C31   H20   S    
C4    O14   A    
C31   C32   D    
C20   O21   A    
C13   O23   A    
C18   O19   A    
C2    C15   S    
C2    H12   S    
C12   H17   S    
C28   N2    S    
C9    C17   S    
C15   O9    A    
C17   O10   A    
C19   O20   A    
C13   O3    A    
C5    H1    S    
C30   C33   D    
C13   C31   S    
H11   N2    S    
C32   N1    S    
C3    C5    S    
C19   C34   S    
C25   H2    S    
C28   H13   S    
C27   H10   S    
C6    C7    T    
C6    C20   S    
C11   C22   S    
Cr6   O11   S    
Cr4   O23   S    
C32   C33   S    
C2    C3    D    
Cr2   O14   S    
C4    C21   S    
C11   O26   A    
Cr1   O4    S    
C1    C30   S    
C18   O18   A    
Cr6   O10   S    
C25   H22   S    
C23   C25   S    
C26   H6    S    
C26   C29   S    
C33   H19   S    
Cr5   O7    S    
C27   N1    S    
C16   O1    A    
C20   O17   A    
Cr5   O25   S    
C27   H9    S    
