data_mof_unit_62705.cif
_audit_creation_date              2013-03-05T16:03:13-0500
_audit_creation_method            fapswitch 2.2
_symmetry_space_group_name_H-M    P1
_symmetry_Int_Tables_number       1
_space_group_crystal_system       triclinic
_cell_length_a                    8.480942
_cell_length_b                    14.438516
_cell_length_c                    18.92795
_cell_angle_alpha                 95.953881
_cell_angle_beta                  93.482182
_cell_angle_gamma                 90.987706
_cell_volume                      2300.36374685

loop_
_atom_site_label
_atom_site_type_symbol
_atom_site_description
_atom_site_fract_x
_atom_site_fract_y
_atom_site_fract_z
_atom_type_partial_charge
P1    P     P_3+3 0.053470 0.419720 0.342720 0.738595
O1    O     O_2   0.878750 0.447310 0.330740 -0.332994
O2    O     O_3   0.131030 0.448880 0.418060 -0.306178
O3    O     O_3   0.627390 0.618170 0.367170 -0.390130
O4    O     O_2   0.730784 0.542665 0.248105 -0.250437
O5    O     O_3   0.072481 0.302543 0.309096 -0.528941
O6    O     O_3   0.608487 0.700135 0.234688 -0.475118
C1    C     C_3   0.481778 0.845570 0.216426 1.268110
P2    P     P_3+3 0.625250 0.715650 0.546950 0.583489
P3    P     P_3+3 0.065441 0.784738 0.394626 0.660964
O7    O     O_2   0.796630 0.729270 0.525320 -0.296729
O8    O     O_3   0.039210 0.666640 0.400620 -0.406275
O9    O     O_2   0.942815 0.833738 0.442079 -0.261099
O10   O     O_3   0.633836 0.758147 0.637992 -0.602485
O11   O     O_3   0.010185 0.810476 0.307337 -0.459362
C2    C     C_3   0.009383 0.728472 0.259526 0.716272
H1    H     H_    0.937238 0.673200 0.279427 0.044432
C3    C     C_3   0.935544 0.744394 0.185251 1.449286
C4    C     C_3   0.200266 0.753163 0.627940 1.509525
C5    C     C_3   0.262175 0.846259 0.666963 -0.007879
H2    H     H_    0.370669 0.835991 0.700678 0.065225
H3    H     H_    0.171968 0.876104 0.702530 0.209745
Ba1   Ba    Ba6+2 0.841340 0.543980 0.464170 1.851456
C6    C     C_3   0.986172 0.237267 0.340945 1.174996
C7    C     C_3   0.966422 0.147833 0.289375 0.144283
H4    H     H_    0.877445 0.100014 0.307960 0.169882
H5    H     H_    0.080965 0.111642 0.286390 0.179902
C8    C     C_3   0.684514 0.694050 0.685178 0.597064
H6    H     H_    0.700593 0.621575 0.659165 0.034961
C9    C     C_3   0.567970 0.694249 0.743661 0.435676
H7    H     H_    0.569954 0.763433 0.776020 0.127632
H8    H     H_    0.447310 0.682540 0.720510 0.080072
P4    P     P_3+3 0.136230 0.580350 0.657290 0.675214
O12   O     O_2   0.310950 0.552720 0.669300 -0.337041
O13   O     O_3   0.058670 0.551200 0.581940 -0.288216
O14   O     O_3   0.562310 0.381900 0.632830 -0.351921
O15   O     O_3   0.148443 0.701028 0.680252 -0.631820
P5    P     P_3+3 0.123643 0.212616 0.602526 0.680585
O16   O     O_3   0.636050 0.386930 0.468580 -0.270830
O17   O     O_3   0.150490 0.333430 0.599380 -0.250213
O18   O     O_2   0.257860 0.165845 0.560806 -0.326737
O19   O     O_3   0.172528 0.189576 0.690358 -0.545495
Ba2   Ba    Ba6+2 0.348470 0.456100 0.535830 1.874928
P6    P     P_3+3 0.588271 0.597190 0.275393 0.607935
C10   C     C_3   0.527339 0.773890 0.269494 0.463529
H9    H     H_    0.419732 0.748829 0.292660 0.010910
O20   O     O_3   0.553640 0.613150 0.531430 -0.355978
C11   C     C_3   0.522084 0.318226 0.315168 0.791978
H10   H     H_    0.629598 0.362375 0.326668 0.054258
C12   C     C_3   0.508186 0.279801 0.235443 1.055849
P7    P     P_3+3 0.564393 0.270035 0.445895 0.701398
O21   O     O_2   0.393070 0.270760 0.474720 -0.280732
O22   O     O_3   0.527168 0.241686 0.354254 -0.481933
C13   C     C_3   0.103079 0.256848 0.737594 0.843590
H11   H     H_    0.975727 0.264967 0.722207 -0.046915
C14   C     C_3   0.115538 0.227659 0.813050 0.887539
H12   H     H_    0.049919 0.277879 0.848395 -0.050336
P8    P     P_3+3 0.591279 0.393567 0.726089 0.718114
C15   C     C_3   0.569015 0.214003 0.701864 1.073475
O23   O     O_2   0.458404 0.455304 0.755828 -0.198644
O24   O     O_3   0.556523 0.285408 0.757641 -0.482479
H13   H     H_    0.475974 0.220123 0.658922 0.049981
H14   H     H_    0.640774 0.111480 0.772847 0.271941
C16   C     C_3   0.548111 0.119830 0.729937 -0.659861
H15   H     H_    0.558874 0.063232 0.686040 0.223427
H16   H     H_    0.429726 0.113684 0.751441 0.270748
N1    N     N_R   0.151751 0.568025 0.962834 0.037747
N2    N     N_R   0.199406 0.569393 0.031501 0.047514
C17   C     C_2   0.277085 0.533861 0.296900 -0.412605
C18   C     C_3   0.407199 0.525475 0.246088 0.037520
C19   C     C_2   0.344221 0.536204 0.170974 0.761943
C20   C     C_2   0.191440 0.511398 0.150991 -0.398740
C21   C     C_2   0.089321 0.480741 0.207979 0.669019
C22   C     C_1   0.145286 0.486102 0.276517 0.157594
N3    N     N_R   0.009522 0.455233 0.045393 0.048825
N4    N     N_R   0.962575 0.453651 0.976476 0.028506
C23   C     C_R   0.032787 0.509664 0.933005 0.335917
C24   C     C_R   0.130272 0.512754 0.074533 0.376782
C25   C     C_R   0.074835 0.541838 0.802126 0.374810
C26   C     C_R   0.030100 0.524200 0.727836 0.152575
C27   C     C_R   0.789117 0.445347 0.757008 -0.006169
C28   C     C_R   0.835246 0.459923 0.829835 0.671968
C29   C     C_R   0.981878 0.504435 0.854132 -0.339036
C30   C     C_R   0.891990 0.471145 0.706842 -0.018744
H17   H     H_    0.294836 0.571680 0.349526 0.175869
C31   C     C_R   0.691104 0.936443 0.537317 0.072377
C32   C     C_R   0.512962 0.798694 0.495210 0.345975
C33   C     C_R   0.371348 0.765757 0.457825 -0.408521
C34   C     C_R   0.266332 0.826866 0.428260 0.158307
C35   C     C_R   0.311504 0.920203 0.427631 0.452414
C36   C     C_R   0.461455 0.953213 0.457544 -0.134692
C37   C     C_R   0.556671 0.895362 0.497455 -0.076235
H18   H     H_    0.336488 0.693198 0.456705 0.183368
C38   C     C_R   0.645402 0.085893 0.489272 -0.283298
C39   C     C_R   0.734978 0.031516 0.535058 -0.118160
C40   C     C_R   0.688307 0.181906 0.488183 0.039970
C41   C     C_R   0.832111 0.215794 0.522320 0.542051
C42   C     C_R   0.927017 0.161838 0.564073 0.050874
C43   C     C_R   0.871911 0.071660 0.574649 0.384203
C44   C     C_R   0.521127 0.040910 0.444705 0.624847
H19   H     H_    0.762164 0.894592 0.570128 0.210165
Cl1   Cl    Cl    0.654502 0.828818 0.339933 -0.549510
Cl2   Cl    Cl    0.305809 0.930162 0.608694 -0.593155
F1    F     F_    0.840786 0.268920 0.358322 -0.730705
Cl3   Cl    Cl    0.095881 0.210599 0.417359 -0.547701
Cl4   Cl    Cl    0.908977 0.171528 0.200823 -0.225615
Cl5   Cl    Cl    0.862209 0.740438 0.730602 -0.544751
F2    F     F_    0.597352 0.914256 0.216793 -0.505062
F3    F     F_    0.605551 0.626748 0.788427 -0.622029
Cl6   Cl    Cl    0.305468 0.902912 0.239495 -0.444579
F4    F     F_    0.394840 0.370625 0.333543 -0.744374
Cl7   Cl    Cl    0.307669 0.259522 0.202008 -0.431263
Cl8   Cl    Cl    0.601026 0.355197 0.180906 -0.422957
F5    F     F_    0.582409 0.194860 0.226469 -0.532216
Cl9   Cl    Cl    0.453940 0.791539 0.127241 -0.292244
Cl10  Cl    Cl    0.074885 0.771985 0.124003 -0.404726
F6    F     F_    0.181705 0.342142 0.738728 -0.700214
F7    F     F_    0.272838 0.229331 0.838473 -0.588356
Cl11  Cl    Cl    0.031757 0.113513 0.816025 -0.444454
F8    F     F_    0.715724 0.217332 0.674253 -0.789628
F9    F     F_    0.447180 0.557775 0.122402 -0.555539
F10   F     F_    0.950104 0.435172 0.187429 -0.562398
Cl12  Cl    Cl    0.244629 0.612221 0.828261 -0.426994
F11   F     F_    0.734660 0.431304 0.876857 -0.575948
Cl13  Cl    Cl    0.845794 0.436970 0.615762 -0.463024
Cl14  Cl    Cl    0.170896 0.997697 0.397608 -0.508478
Cl15  Cl    Cl    0.967425 0.012177 0.640803 -0.490698
F12   F     F_    0.161129 0.697972 0.253108 -0.820617
F13   F     F_    0.886853 0.301060 0.510077 -0.601161
Cl16  Cl    Cl    0.509473 0.057972 0.354181 -0.404377
F14   F     F_    0.855493 0.664374 0.155016 -0.645585
F15   F     F_    0.831874 0.816476 0.190835 -0.574608
F16   F     F_    0.317167 0.708345 0.592321 -0.767258
F17   F     F_    0.076069 0.768470 0.580505 -0.654902

loop_
_geom_bond_atom_site_label_1
_geom_bond_atom_site_label_2
_geom_bond_distance
_ccdc_geom_bond_type
P5    O17   1.762870 S    
C32   C33   1.405912 A    
C15   F8    1.380470 S    
C21   C22   1.348068 D    
C3    F15   1.373821 S    
C4    C5    1.533166 S    
N1    C23   1.359980 A    
C26   C30   1.402155 A    
C41   C42   1.396925 A    
C6    F1    1.369267 S    
C5    Cl2   1.769819 S    
C10   H9    1.107327 S    
C4    F17   1.377956 S    
O8    Ba1   2.825640 S    
O2    Ba2   2.797579 S    
C15   C16   1.521729 S    
P1    C22   1.853973 S    
O6    C10   1.405890 S    
C8    H6    1.123497 S    
P5    O19   1.755624 S    
O14   P8    1.757520 S    
P3    O11   1.768285 S    
C9    H7    1.115576 S    
C44   Cl16  1.753325 S    
Ba2   O21   2.843951 S    
C23   C29   1.522522 S    
C8    Cl5   1.774056 S    
P8    O23   1.545623 D    
O11   C2    1.413349 S    
Ba1   Ba2   4.667450 S    
C14   H12   1.114254 S    
P1    O1    1.550511 D    
C1    C10   1.552970 S    
C20   C24   1.509604 S    
C4    O15   1.391508 S    
C1    Cl9   1.784948 S    
O16   P7    1.784635 S    
C13   H11   1.112805 S    
O2    Ba1   2.968397 S    
O17   Ba2   2.826301 S    
P3    C34   1.852079 S    
C2    H1    1.107552 S    
P6    C18   1.860285 S    
C18   C19   1.512263 S    
C36   C44   1.405403 A    
C9    H8    1.091775 S    
O13   Ba2   2.969193 S    
P5    C42   1.883559 S    
P7    C40   1.876009 S    
P8    O24   1.755370 S    
C11   C12   1.549611 S    
C32   C37   1.433624 A    
C3    F14   1.382713 S    
C38   C39   1.423501 A    
N1    N2    1.335514 A    
C1    F2    1.381490 S    
C28   F11   1.359041 S    
C19   F9    1.360978 S    
C7    Cl4   1.785854 S    
C27   C28   1.403196 A    
N2    C24   1.362222 A    
C11   O22   1.392074 S    
C13   C14   1.528616 S    
C15   O24   1.407234 S    
Ba1   O20   2.961286 S    
C9    F3    1.385147 S    
P7    O21   1.582585 D    
P4    Ba2   3.391475 S    
N4    C23   1.366246 A    
P5    O18   1.549312 D    
C31   C39   1.421659 A    
P8    C27   1.861005 S    
C3    Cl10  1.773465 S    
C36   C37   1.414399 A    
O3    Ba1   2.807334 S    
P2    Ba1   3.414251 S    
O16   Ba2   2.960331 S    
O3    P6    1.742660 S    
C7    H4    1.111102 S    
H14   C16   1.112571 S    
C25   Cl12  1.763460 S    
C28   C29   1.418691 A    
P4    O15   1.751243 S    
P1    O5    1.758384 S    
P1    O2    1.547728 S    
C16   H16   1.111595 S    
N3    N4    1.338302 A    
C1    Cl6   1.777338 S    
C2    F12   1.375628 S    
C38   C44   1.413859 A    
O5    C6    1.391098 S    
C40   C41   1.400874 A    
C5    H2    1.108545 S    
C12   Cl7   1.786577 S    
P4    O12   1.550742 D    
C35   Cl14  1.758543 S    
P2    O10   1.764995 S    
C17   C22   1.318949 D    
O6    P6    1.754178 S    
C6    C7    1.536066 S    
C38   C40   1.429709 A    
P2    O7    1.548543 D    
P3    O8    1.732069 S    
C11   H10   1.101001 S    
O4    P6    1.540026 D    
C5    H3    1.112626 S    
P1    Ba1   3.390879 S    
Ba1   O13   2.797010 S    
C14   Cl11  1.791096 S    
C7    H5    1.112642 S    
C27   C30   1.401559 A    
C17   H17   1.085896 S    
C30   Cl13  1.761774 S    
C33   H18   1.081370 S    
C15   H13   1.109276 S    
C14   F7    1.389366 S    
C21   F10   1.357415 S    
O12   Ba2   2.794903 S    
C20   C21   1.519488 S    
P3    O9    1.547858 D    
C43   Cl15  1.756572 S    
P4    C26   1.896269 S    
P2    O20   1.581937 S    
C4    F16   1.367129 S    
C12   Cl8   1.781271 S    
O10   C8    1.406215 S    
C16   H15   1.112391 S    
C8    C9    1.527968 S    
C41   F13   1.355513 S    
C19   C20   1.358903 D    
C31   C37   1.414323 A    
O19   C13   1.411836 S    
C25   C29   1.439457 A    
C35   C36   1.414452 A    
Ba1   O16   2.846210 S    
O7    Ba1   2.843702 S    
P4    O13   1.547864 S    
C39   C43   1.423784 A    
C17   C18   1.505552 S    
N3    C24   1.360052 A    
C10   Cl1   1.773739 S    
P7    O22   1.748622 S    
C25   C26   1.429565 A    
C11   F4    1.370057 S    
C33   C34   1.397808 A    
C2    C3    1.544842 S    
C42   C43   1.413596 A    
C13   F6    1.387877 S    
O1    Ba1   2.794385 S    
O14   Ba2   2.806827 S    
C6    Cl3   1.752245 S    
C12   F5    1.387652 S    
C34   C35   1.396118 A    
C31   H19   1.076545 S    
Ba2   O20   2.845573 S    
P2    C32   1.863688 S    
