data_mof_unit_67003.cif
_audit_creation_date              2013-03-05T15:58:13-0500
_audit_creation_method            fapswitch 2.2
_symmetry_space_group_name_H-M    P1
_symmetry_Int_Tables_number       1
_space_group_crystal_system       triclinic
_cell_length_a                    8.56035
_cell_length_b                    13.480396
_cell_length_c                    14.620694
_cell_angle_alpha                 95.404963
_cell_angle_beta                  91.70509
_cell_angle_gamma                 98.613145
_cell_volume                      1659.08836251

loop_
_atom_site_label
_atom_site_type_symbol
_atom_site_description
_atom_site_fract_x
_atom_site_fract_y
_atom_site_fract_z
_atom_type_partial_charge
P1    P     P_3+3 0.054400 0.427280 0.286870 0.511201
O1    O     O_2   0.887370 0.460630 0.272300 -0.365179
O2    O     O_3   0.129410 0.451380 0.388510 -0.359257
O3    O     O_3   0.670210 0.653170 0.329170 -0.421474
O4    O     O_2   0.777918 0.585257 0.169114 -0.316126
O5    O     O_3   0.981840 0.301892 0.247984 -0.546326
O6    O     O_3   0.662629 0.756290 0.177121 -0.478800
H1    H     H_    0.816659 0.811216 0.291493 0.186722
C1    C     C_3   0.742369 0.935966 0.230404 -0.870423
H2    H     H_    0.837601 0.980169 0.277562 0.233488
H3    H     H_    0.780263 0.937600 0.158836 0.325576
P2    P     P_3+3 0.668300 0.742890 0.573060 0.495825
P3    P     P_3+3 0.162155 0.837877 0.381337 0.447198
O7    O     O_2   0.845380 0.761330 0.544970 -0.356244
O8    O     O_3   0.088930 0.704860 0.376040 -0.349482
O9    O     O_2   0.027114 0.893414 0.417935 -0.432310
O10   O     O_3   0.665766 0.757969 0.696398 -0.496845
O11   O     O_3   0.192985 0.882367 0.271019 -0.499232
C2    C     C_3   0.251139 0.814126 0.204222 0.702322
C3    C     C_3   0.340908 0.867145 0.125132 0.175134
H4    H     H_    0.321271 0.820979 0.057561 0.175364
C4    C     C_3   0.249172 0.743942 0.658274 0.524991
H5    H     H_    0.338181 0.698498 0.629106 0.070145
H6    H     H_    0.157557 0.748975 0.603802 0.065830
C5    C     C_3   0.334132 0.848508 0.693081 -0.880515
H7    H     H_    0.447816 0.842620 0.728365 0.310679
H8    H     H_    0.362672 0.895128 0.636029 0.200463
H9    H     H_    0.259903 0.887906 0.741916 0.306091
Ba1   Ba    Ba6+2 0.855630 0.555280 0.454520 1.639808
C6    C     C_3   0.071960 0.230824 0.276108 0.389313
H10   H     H_    0.999791 0.182667 0.321468 0.171502
H11   H     H_    0.186226 0.263465 0.310713 0.114880
C7    C     C_3   0.089441 0.158739 0.194889 -0.894123
H12   H     H_    0.977150 0.140628 0.152701 0.260147
H13   H     H_    0.111390 0.089470 0.224466 0.316087
H14   H     H_    0.185688 0.189799 0.151953 0.256710
C8    C     C_3   0.740330 0.689024 0.744715 0.176613
H15   H     H_    0.866930 0.694194 0.729356 0.137726
C9    C     C_3   0.732524 0.712658 0.853165 0.646077
P4    P     P_3+3 0.135310 0.572810 0.713130 0.515827
O12   O     O_2   0.302330 0.539400 0.727760 -0.391430
O13   O     O_3   0.060300 0.548700 0.611500 -0.393825
O14   O     O_3   0.519500 0.346920 0.670840 -0.382193
O15   O     O_3   0.176047 0.703224 0.733432 -0.469345
P5    P     P_3+3 0.078472 0.169659 0.628342 0.648678
O16   O     O_3   0.614310 0.373510 0.452640 -0.387904
O17   O     O_3   0.100780 0.295230 0.623970 -0.307102
O18   O     O_2   0.215296 0.139125 0.571036 -0.327926
O19   O     O_3   0.140903 0.160307 0.743517 -0.470399
Ba2   Ba    Ba6+2 0.334200 0.444810 0.545490 1.627029
P6    P     P_3+3 0.639568 0.632273 0.210292 0.499855
C10   C     C_3   0.708143 0.827335 0.255971 0.548055
H16   H     H_    0.617017 0.824732 0.308147 0.005173
H17   H     H_    0.636043 0.974036 0.238967 0.239168
O20   O     O_3   0.575400 0.626570 0.547370 -0.446832
C11   C     C_3   0.519818 0.299669 0.265864 0.573599
H18   H     H_    0.406903 0.329566 0.270315 -0.044215
H19   H     H_    0.613992 0.360606 0.293489 0.103347
C12   C     C_3   0.554629 0.278022 0.164836 -0.942056
H20   H     H_    0.461556 0.220078 0.129848 0.287167
H21   H     H_    0.558392 0.347702 0.129437 0.183814
H22   H     H_    0.670885 0.251139 0.159035 0.282542
P7    P     P_3+3 0.524023 0.239059 0.432125 0.543460
O21   O     O_2   0.344320 0.238700 0.455090 -0.346411
O22   O     O_3   0.514049 0.210683 0.311548 -0.498735
H23   H     H_    0.470794 0.878048 0.137401 0.095573
C13   C     C_3   0.074259 0.227173 0.807051 0.498553
H24   H     H_    0.121895 0.306527 0.796605 0.075920
C14   C     C_3   0.120060 0.210864 0.908001 -0.348746
H25   H     H_    0.042274 0.247940 0.956224 0.123315
P8    P     P_3+3 0.557298 0.355161 0.788454 0.422486
C15   C     C_3   0.526011 0.163022 0.745082 0.421348
H26   H     H_    0.628345 0.186231 0.703297 0.015576
O23   O     O_2   0.430751 0.412642 0.831916 -0.433240
O24   O     O_3   0.510405 0.233135 0.820483 -0.511458
H27   H     H_    0.418644 0.151280 0.699453 0.174742
H28   H     H_    0.644750 0.075215 0.833739 0.292828
C16   C     C_3   0.546267 0.064067 0.780849 -0.812847
H29   H     H_    0.574495 0.010957 0.723392 0.229087
H30   H     H_    0.435075 0.032705 0.811901 0.258487
C17   C     C_R   0.989979 0.440405 0.056052 -0.168697
C18   C     C_R   0.185835 0.476087 0.193275 0.292656
C19   C     C_R   0.341851 0.514307 0.223902 -0.529938
C20   C     C_R   0.454591 0.551174 0.163745 0.209163
C21   C     C_R   0.415339 0.545933 0.069915 -0.239548
C22   C     C_R   0.259770 0.513244 0.035020 0.062368
C23   C     C_R   0.143175 0.474621 0.095679 0.040787
H31   H     H_    0.375107 0.519765 0.296459 0.158231
C24   C     C_R   0.065915 0.493439 0.901375 -0.039179
C25   C     C_R   0.951852 0.448129 0.961365 0.026966
C26   C     C_R   0.019384 0.501112 0.805058 0.254847
C27   C     C_R   0.870833 0.449581 0.773355 -0.536455
C28   C     C_R   0.758234 0.410537 0.832990 0.268161
C29   C     C_R   0.797978 0.411084 0.926240 -0.314718
C30   C     C_R   0.220168 0.523819 0.940946 -0.032931
H32   H     H_    0.505186 0.573476 0.024738 0.175122
H33   H     H_    0.709303 0.379016 0.971060 0.160071
H34   H     H_    0.840158 0.441160 0.701000 0.197852
H35   H     H_    0.898586 0.407669 0.098559 0.176465
H36   H     H_    0.311468 0.555588 0.899251 0.215815
C31   C     C_R   0.790386 0.166256 0.518954 0.121379
C32   C     C_R   0.442646 0.820730 0.477565 -0.530273
C33   C     C_R   0.414621 0.991543 0.451685 -0.063740
C34   C     C_R   0.352192 0.888392 0.446153 0.176657
C35   C     C_R   0.589099 0.851820 0.524356 0.325643
C36   C     C_R   0.658393 0.960052 0.533891 -0.224847
C37   C     C_R   0.566712 0.030227 0.492262 -0.153084
C38   C     C_R   0.629994 0.136619 0.488849 0.089832
C39   C     C_R   0.875576 0.107166 0.570962 -0.000866
C40   C     C_R   0.811829 0.004196 0.579128 0.328302
H37   H     H_    0.344796 0.041039 0.420636 0.181126
H38   H     H_    0.393956 0.741379 0.468177 0.146727
N1    N     N_3   0.669772 0.585455 0.716377 -0.247640
H39   H     H_    0.722927 0.560402 0.657041 0.146386
H40   H     H_    0.552026 0.584273 0.699528 0.227615
S1    S     S_3+6 0.890945 0.806443 0.900519 0.032301
O25   O     O_2   0.880610 0.902814 0.861576 -0.203761
O26   O     O_2   0.867611 0.825261 0.000849 -0.193251
O27   O     O_3   0.069402 0.772900 0.884346 -0.500511
H41   H     H_    0.146273 0.834244 0.904632 0.390332
N2    N     N_3   0.742609 0.621122 0.897632 -0.262391
H42   H     H_    0.753632 0.637301 0.969148 0.167597
H43   H     H_    0.634437 0.573557 0.885434 0.094281
S2    S     S_3+6 0.557384 0.760721 0.890454 -0.014433
O28   O     O_2   0.416694 0.704386 0.836448 -0.315147
O29   O     O_2   0.537980 0.746968 0.990376 -0.325483
O30   O     O_3   0.568861 0.884058 0.879308 -0.474200
H44   H     H_    0.470637 0.902316 0.905878 0.379473
N3    N     N_3   0.901842 0.210483 0.793849 -0.192598
H45   H     H_    0.871987 0.254635 0.743267 0.058644
H46   H     H_    0.847294 0.232565 0.853479 0.088938
N4    N     N_3   0.283340 0.256045 0.933200 -0.106843
H47   H     H_    0.322830 0.222677 0.989376 0.180788
H48   H     H_    0.283299 0.331664 0.957196 0.129006
N5    N     N_3   0.098441 0.103848 0.922193 -0.158166
H49   H     H_    0.154730 0.063363 0.871825 0.248381
H50   H     H_    0.976889 0.078158 0.919994 0.197397
S3    S     S_3+6 0.087069 0.730929 0.153204 0.012287
O31   O     O_2   0.055386 0.644278 0.209099 -0.285545
O32   O     O_2   0.953643 0.787818 0.157759 -0.184891
O33   O     O_3   0.108873 0.689393 0.044003 -0.545339
H51   H     H_    0.003374 0.652769 0.023681 0.389858
S4    S     S_3+6 0.934397 0.955097 0.660065 0.020215
O34   O     O_2   0.922183 0.021099 0.746176 -0.280229
O35   O     O_2   0.918553 0.853650 0.689647 -0.225030
O36   O     O_3   0.119621 0.970454 0.624627 -0.523646
H52   H     H_    0.119121 0.913489 0.576398 0.347771
S5    S     S_3+6 0.892591 0.274588 0.478244 -0.015746
O37   O     O_2   0.877428 0.365058 0.543870 -0.293851
O38   O     O_2   0.062544 0.269119 0.462834 -0.261908
O39   O     O_3   0.816294 0.285744 0.376202 -0.559492
H53   H     H_    0.825379 0.358918 0.379118 0.414499
N6    N     N_3   0.360538 0.757303 0.244550 -0.261522
H54   H     H_    0.386358 0.713175 0.187606 0.083862
H55   H     H_    0.310521 0.705535 0.287736 0.126570
S6    S     S_3+6 0.288817 0.984086 0.107369 -0.052349
O40   O     O_2   0.359725 0.055906 0.187918 -0.293891
O41   O     O_2   0.353056 0.020189 0.019652 -0.354715
O42   O     O_3   0.090569 0.966427 0.101529 -0.478295
H56   H     H_    0.060146 0.002983 0.050631 0.376251

loop_
_geom_bond_atom_site_label_1
_geom_bond_atom_site_label_2
_geom_bond_distance
_ccdc_geom_bond_type
S4    O36   1.672175 S    
C6    H11   1.098211 S    
P7    O22   1.765143 S    
C31   S5    1.750545 S    
C28   C29   1.394400 A    
P2    Ba1   3.539191 S    
Ba2   O21   2.976788 S    
C32   H38   1.082674 S    
C2    C3    1.575610 S    
S5    O39   1.639740 S    
C15   H27   1.102232 S    
C27   H34   1.073714 S    
N5    H49   1.047150 S    
C21   C22   1.403357 A    
C11   H18   1.102926 S    
C5    H9    1.119052 S    
N3    H46   1.041009 S    
P3    O11   1.786342 S    
O1    Ba1   2.882047 S    
C3    H23   1.106464 S    
S6    O40   1.503124 D    
S5    O38   1.490407 D    
O6    C10   1.432326 S    
N3    H45   1.041030 S    
C2    S3    1.759281 S    
C6    H10   1.108282 S    
Ba1   O13   2.861971 S    
C21   H32   1.075446 S    
C16   H30   1.110050 S    
C8    N1    1.452337 S    
C36   C37   1.477728 A    
C31   C39   1.414075 A    
C18   C23   1.459914 A    
S4    O35   1.461171 D    
C7    H14   1.106875 S    
S1    O25   1.480042 D    
C32   C35   1.397489 A    
C33   H37   1.081156 S    
P1    O1    1.576191 D    
O2    Ba1   3.041219 S    
C15   C16   1.509392 S    
N1    H39   1.043090 S    
C4    O15   1.397241 S    
N6    H54   1.026106 S    
O42   H56   0.980019 S    
C11   H19   1.098904 S    
N4    H47   1.043943 S    
C4    C5    1.520086 S    
P2    O10   1.796728 S    
O39   H53   0.974574 S    
C25   C29   1.400921 A    
C24   C26   1.469295 A    
C3    S6    1.741299 S    
C1    H2    1.112966 S    
H1    C10   1.110351 S    
O3    Ba1   2.920512 S    
C31   C38   1.416024 A    
P4    O13   1.586056 S    
C19   H31   1.083002 S    
C12   H20   1.104843 S    
C14   N5    1.461893 S    
C13   N3    1.463463 S    
C1    C10   1.533335 S    
C15   O24   1.405977 S    
O2    Ba2   2.862554 S    
O8    Ba1   2.955848 S    
O17   Ba2   2.956450 S    
Ba1   Ba2   4.758786 S    
P5    O17   1.682327 S    
C12   H21   1.111189 S    
O3    P6    1.739999 S    
C13   H24   1.112542 S    
S5    O37   1.503057 D    
C30   H36   1.069181 S    
S3    O31   1.484589 D    
C26   C27   1.397919 A    
C16   H29   1.107821 S    
O11   C2    1.429936 S    
C17   H35   1.081787 S    
C29   H33   1.084985 S    
P1    C18   1.900239 S    
H28   C16   1.110243 S    
C9    S2    1.799405 S    
P1    O5    1.746298 S    
P1    O2    1.586181 S    
C24   C30   1.412087 A    
C8    H15   1.106610 S    
C19   C20   1.393263 A    
P5    O19   1.773057 S    
C37   C38   1.461264 A    
P1    Ba1   3.494504 S    
C7    H12   1.109111 S    
P7    C38   1.990950 S    
O10   C8    1.429958 S    
C20   C21   1.395376 A    
P3    C34   1.860932 S    
C32   C34   1.382651 A    
C1    H3    1.105897 S    
N2    H42   1.046324 S    
C17   C23   1.411201 A    
S3    O32   1.467768 D    
O13   Ba2   3.042019 S    
S2    O30   1.674403 S    
C17   C25   1.429808 A    
P4    O12   1.576579 D    
O5    C6    1.399553 S    
P2    O7    1.572175 D    
C9    S1    1.783954 S    
P3    O8    1.802357 S    
C2    N6    1.441707 S    
C4    H6    1.114850 S    
N6    H55   1.038561 S    
O7    Ba1   2.976528 S    
O30   H44   0.990910 S    
O12   Ba2   2.882603 S    
C10   H16   1.106322 S    
S2    O29   1.500850 D    
O36   H52   0.991840 S    
C36   C40   1.468612 A    
P5    O18   1.543089 D    
N5    H50   1.044815 S    
C12   H22   1.111837 S    
O14   P8    1.730375 S    
O19   C13   1.424310 S    
C6    C7    1.487790 S    
C22   C23   1.427532 A    
S6    O42   1.676476 S    
C15   H26   1.106473 S    
S3    O33   1.666755 S    
P8    O23   1.541862 D    
O27   H41   0.991970 S    
C11   C12   1.525380 S    
O14   Ba2   2.919903 S    
P8    C28   1.843128 S    
C5    H8    1.102418 S    
Ba1   O20   3.026474 S    
C35   C36   1.482418 A    
O16   Ba2   3.025650 S    
Ba2   O20   2.955683 S    
C9    N2    1.460279 S    
S1    O27   1.674026 S    
Ba1   O16   2.956369 S    
C40   S4    1.794698 S    
S6    O41   1.504458 D    
S4    O34   1.487382 D    
C5    H7    1.104751 S    
O6    P6    1.768808 S    
C8    C9    1.593005 S    
C39   C40   1.430740 A    
P8    O24   1.744937 S    
P2    C35   1.894580 S    
O16   P7    1.853787 S    
C14   N4    1.460298 S    
P4    Ba2   3.495004 S    
C27   C28   1.396727 A    
C7    H13   1.103639 S    
S1    O26   1.489466 D    
P5    C39   1.942186 S    
P4    C26   1.939654 S    
C14   H25   1.118712 S    
N2    H43   1.044596 S    
P2    O20   1.652279 S    
C22   C30   1.432030 A    
P7    O21   1.583669 D    
P4    O15   1.735605 S    
C3    H4    1.111098 S    
N4    H48   1.046394 S    
C18   C19   1.401613 A    
P3    O9    1.550386 D    
C33   C34   1.406883 A    
C4    H5    1.116987 S    
O4    P6    1.536927 D    
C33   C37   1.418232 A    
C1    H17   1.114488 S    
C13   C14   1.559813 S    
C24   C25   1.438405 A    
O33   H51   0.985128 S    
P6    C20   1.855499 S    
C11   O22   1.422207 S    
S2    O28   1.485644 D    
N1    H40   1.027897 S    
