data_mof_unit_46447.cif
_audit_creation_date              2012-12-10T19:03:38-0500
_audit_creation_method            fapswitch 2.2
_symmetry_space_group_name_H-M    P1
_symmetry_Int_Tables_number       1
_space_group_crystal_system       triclinic
_cell_length_a                    15.939436
_cell_length_b                    10.792829
_cell_length_c                    9.644075
_cell_angle_alpha                 89.73389
_cell_angle_beta                  87.342584
_cell_angle_gamma                 92.599232
_cell_volume                      1655.5586452

loop_
_atom_site_label
_atom_site_type_symbol
_atom_type_description
_atom_site_fract_x
_atom_site_fract_y
_atom_site_fract_z
_atom_type_partial_charge
C1    C     C_R   0.496019 0.262741 0.500863 0.825789
C2    C     C_3   0.944767 0.372569 0.573325 0.217271
C3    C     C_3   0.918244 0.488356 0.487435 -0.241484
C4    C     C_3   0.954273 0.609748 0.558106 0.158246
C5    C     C_3   0.052234 0.613869 0.549011 0.233421
C6    C     C_1   0.825396 0.492398 0.488032 0.230260
C7    C     C_1   0.175773 0.485215 0.514264 0.224217
C8    C     C_1   0.251180 0.490626 0.511550 -0.002895
C9    C     C_R   0.530390 0.067448 0.606356 -0.038747
C10   C     C_R   0.487886 0.128997 0.506007 -0.095637
C11   C     C_R   0.434432 0.059951 0.419584 0.420574
C12   C     C_R   0.340568 0.497549 0.503282 0.799626
C13   C     C_R   0.435772 0.929329 0.422534 -0.187771
C14   C     C_R   0.492235 0.870449 0.505728 -0.090234
C15   C     C_R   0.533392 0.940262 0.605848 0.039155
C16   C     C_3   0.623718 0.947968 0.645419 0.244914
C17   C     C_3   0.618790 0.088364 0.647765 -0.379496
C18   C     C_R   0.565945 0.554167 0.065974 0.043615
C19   C     C_R   0.437517 0.438812 0.076743 0.516314
C20   C     C_R   0.436931 0.442582 0.929560 -0.014396
C21   C     C_R   0.567915 0.545881 0.919714 0.192855
C22   C     C_3   0.608794 0.668400 0.892286 0.052681
C23   C     C_R   0.499432 0.737439 0.500548 0.881915
C24   C     C_3   0.599666 0.688818 0.049173 0.552794
C25   C     C_R   0.659787 0.499266 0.497267 0.836676
C26   C     C_3   0.039112 0.385879 0.605264 -0.442729
C27   C     C_3   0.060342 0.455103 0.348186 0.483965
C28   C     C_3   0.960613 0.479157 0.332861 0.379871
C29   C     C_1   0.749758 0.496057 0.491436 0.024444
C30   C     C_3   0.083991 0.483676 0.505047 -0.168296
Cu1   Cu    Cu3+1 0.500000 0.499980 0.640670 1.013996
Cu2   Cu    Cu3+1 0.500000 0.500020 0.359330 1.083561
H1    H     H_    0.939340 0.291387 0.506782 0.216335
H2    H     H_    0.045443 0.413679 0.714536 0.280809
H3    H     H_    0.934597 0.694112 0.503833 0.173546
H4    H     H_    0.396058 0.874534 0.355909 0.174376
H5    H     H_    0.634143 0.908766 0.749056 0.170511
H6    H     H_    0.621878 0.127707 0.753823 0.226459
H7    H     H_    0.659266 0.138688 0.566865 0.215406
H8    H     H_    0.068789 0.295015 0.596796 0.241495
H9    H     H_    0.385363 0.397121 0.877638 0.177257
H10   H     H_    0.571217 0.726069 0.826219 0.155910
H11   H     H_    0.074465 0.679847 0.466378 0.181325
N1    N     N_R   0.500530 0.500930 0.147930 -0.231906
N2    N     N_R   0.500530 0.500890 0.852020 -0.252213
O1    O     O_R   0.500000 0.319640 0.618810 -0.585129
O2    O     O_R   0.500010 0.319680 0.381230 -0.584748
O3    O     O_R   0.379430 0.499990 0.618840 -0.585844
O4    O     O_R   0.379440 0.500030 0.381260 -0.545124
O5    O     O_R   0.499990 0.680320 0.618770 -0.602324
O6    O     O_R   0.500000 0.680360 0.381190 -0.490546
O7    O     O_R   0.620560 0.499970 0.618740 -0.539064
O8    O     O_R   0.620570 0.500010 0.381160 -0.530292
S1    S     S_3+6 0.877986 0.320772 0.721710 0.087631
O9    O     O_2   0.809294 0.235465 0.670114 -0.261820
O10   O     O_2   0.928495 0.247868 0.818581 -0.196427
O11   O     O_3   0.832125 0.435772 0.809487 -0.439242
H12   H     H_    0.868876 0.455390 0.887024 0.434499
O12   O     O_3   0.383132 0.120691 0.332984 -0.704699
H13   H     H_    0.350635 0.058393 0.279436 0.353104
O13   O     O_3   0.680131 0.905675 0.541647 -0.695490
H14   H     H_    0.668822 0.947453 0.452838 0.366390
O14   O     O_3   0.371794 0.373002 0.143416 -0.656089
H15   H     H_    0.393354 0.336128 0.227039 0.396165
O15   O     O_3   0.691229 0.655162 0.838674 -0.632654
H16   H     H_    0.713123 0.739400 0.810603 0.358948
S2    S     S_3+6 0.698137 0.718404 0.126847 0.134379
O16   O     O_2   0.754031 0.613483 0.092969 -0.157733
O17   O     O_2   0.738581 0.837450 0.069065 -0.231131
O18   O     O_3   0.683093 0.730486 0.299483 -0.510285
H17   H     H_    0.731252 0.783238 0.329033 0.403556
S3    S     S_3+6 0.525815 0.807770 0.088062 0.010281
O19   O     O_2   0.556041 0.885166 0.206107 -0.249534
O20   O     O_2   0.519576 0.892530 0.965111 -0.348456
O21   O     O_3   0.429792 0.743174 0.129300 -0.544015
H18   H     H_    0.389888 0.807507 0.107733 0.375634
O22   O     O_3   0.109502 0.539225 0.262618 -0.660126
H19   H     H_    0.099425 0.518082 0.164558 0.404389
S4    S     S_3+6 0.096585 0.299890 0.297157 0.063787
O23   O     O_2   0.089487 0.281050 0.143923 -0.181386
O24   O     O_2   0.188110 0.292346 0.325488 -0.260102
O25   O     O_3   0.045145 0.180637 0.381568 -0.521272
H20   H     H_    0.070674 0.105307 0.343371 0.400611
S5    S     S_3+6 0.903633 0.360975 0.230131 0.101805
O26   O     O_2   0.944578 0.353934 0.087315 -0.178256
O27   O     O_2   0.898163 0.233135 0.292537 -0.239095
O28   O     O_3   0.804583 0.402906 0.211098 -0.487630
H21   H     H_    0.781194 0.344336 0.142519 0.393348
S6    S     S_3+6 0.946696 0.625267 0.235503 0.067667
O29   O     O_2   0.946255 0.601350 0.082098 -0.150168
O30   O     O_2   0.864416 0.677337 0.280483 -0.270775
O31   O     O_3   0.021479 0.737219 0.258697 -0.542372
H22   H     H_    0.003603 0.809929 0.206405 0.403577
S7    S     S_3+6 0.097942 0.684806 0.700768 0.075878
O32   O     O_2   0.089526 0.600118 0.825215 -0.213234
O33   O     O_2   0.189344 0.719137 0.669644 -0.303940
O34   O     O_3   0.047827 0.815326 0.737709 -0.443278
H23   H     H_    0.073255 0.847819 0.822797 0.397430
O35   O     O_3   0.924267 0.616265 0.696999 -0.582376
H24   H     H_    0.870194 0.658620 0.698006 0.371787

loop_
_geom_bond_atom_site_label_1
_geom_bond_atom_site_label_2
_ccdc_geom_bond_type
O28   H21   S    
C28   S5    S    
C18   C21   A    
C19   C20   A    
S5    O28   S    
Cu1   O7    S    
C12   O3    A    
C3    C6    S    
C12   O4    A    
C7    C8    T    
C22   O15   S    
O22   H19   S    
C18   C24   S    
C3    C28   S    
C25   O8    A    
C27   S4    S    
C1    O1    A    
C15   C16   S    
O34   H23   S    
C17   H7    S    
C24   S2    S    
C26   H2    S    
O35   H24   S    
C19   O14   S    
C16   C17   S    
Cu1   O1    S    
C28   S6    S    
S6    O30   D    
C9    C10   A    
C20   N2    A    
C16   H5    S    
C5    H11   S    
C4    H3    S    
O12   H13   S    
C7    C30   S    
C21   C22   S    
C27   C30   S    
S7    O32   D    
S3    O21   S    
C11   O12   S    
C5    S7    S    
C21   N2    A    
C25   C29   S    
S1    O10   D    
S2    O16   D    
S5    O26   D    
C13   H4    S    
S3    O20   D    
C2    S1    S    
S4    O24   D    
S3    O19   D    
C23   O5    A    
S7    O34   S    
S4    O23   D    
S2    O17   D    
C14   C23   S    
O21   H18   S    
Cu2   O6    S    
C18   N1    A    
C23   O6    A    
Cu1   Cu2   S    
C8    C12   S    
Cu2   N1    S    
C2    C26   S    
S6    O31   S    
S7    O33   D    
O18   H17   S    
C2    H1    S    
C9    C17   S    
C26   C30   S    
Cu1   O3    S    
Cu2   O2    S    
C22   C24   S    
C16   O13   S    
Cu1   O5    S    
C3    C4    S    
Cu2   O8    S    
C19   N1    A    
C24   S3    S    
C5    C30   S    
S1    O9    D    
C1    O2    A    
C1    C10   S    
S5    O27   D    
C4    C5    S    
C27   O22   S    
S4    O25   S    
S2    O18   S    
C2    C3    S    
C9    C15   A    
C25   O7    A    
C11   C13   A    
C26   H8    S    
O11   H12   S    
C22   H10   S    
O31   H22   S    
C17   H6    S    
O15   H16   S    
O13   H14   S    
Cu2   O4    S    
C10   C11   A    
O14   H15   S    
C6    C29   T    
O25   H20   S    
Cu1   N2    S    
C4    O35   S    
C27   C28   S    
C14   C15   A    
S6    O29   D    
C13   C14   A    
C20   H9    S    
S1    O11   S    
