data_mof_unit_6238.cif
_audit_creation_date              2012-12-11T14:25:02-0500
_audit_creation_method            fapswitch 2.2
_symmetry_space_group_name_H-M    P1
_symmetry_Int_Tables_number       1
_space_group_crystal_system       triclinic
_cell_length_a                    19.218906
_cell_length_b                    11.220186
_cell_length_c                    18.655524
_cell_angle_alpha                 90.323322
_cell_angle_beta                  91.003375
_cell_angle_gamma                 90.681022
_cell_volume                      4021.90174841

loop_
_atom_site_label
_atom_site_type_symbol
_atom_type_description
_atom_site_fract_x
_atom_site_fract_y
_atom_site_fract_z
_atom_type_partial_charge
C1    C     C_R   0.732120 0.379478 0.149146 0.554292
C2    C     C_R   0.270372 0.378427 0.852222 0.546645
C3    C     C_R   0.232120 0.879478 0.149146 0.554292
C4    C     C_R   0.770372 0.878427 0.852222 0.546645
C5    C     C_3   0.458686 0.081275 0.032466 -0.122459
C6    C     C_3   0.512596 0.057868 0.974037 -0.110072
C7    C     C_3   0.958686 0.581275 0.032466 -0.122460
C8    C     C_3   0.012596 0.557868 0.974037 -0.110072
C9    C     C_R   0.750511 0.934590 0.919235 0.014211
C10   C     C_R   0.261026 0.935113 0.084767 0.011948
C11   C     C_R   0.250511 0.434590 0.919235 0.014211
C12   C     C_R   0.761026 0.435113 0.084767 0.011948
C13   C     C_R   0.685128 0.910323 0.948586 -0.011934
C14   C     C_R   0.312797 0.879883 0.045783 -0.009002
C15   C     C_R   0.185128 0.410323 0.948586 -0.011934
C16   C     C_R   0.812797 0.379883 0.045783 -0.009002
C17   C     C_R   0.677020 0.921955 0.023608 0.015197
C18   C     C_R   0.313474 0.893079 0.970234 0.013031
C19   C     C_R   0.177020 0.421955 0.023608 0.015197
C20   C     C_R   0.813474 0.393079 0.970234 0.013031
C21   C     C_R   0.788395 0.028881 0.029443 -0.128906
C22   C     C_R   0.232743 0.057288 0.983037 -0.151269
C23   C     C_R   0.288395 0.528881 0.029443 -0.128906
C24   C     C_R   0.732743 0.557288 0.983037 -0.151269
C25   C     C_R   0.803162 0.991113 0.961877 0.072545
C26   C     C_R   0.231410 0.036759 0.056936 0.065959
C27   C     C_R   0.303162 0.491113 0.961877 0.072545
C28   C     C_R   0.731410 0.536759 0.056936 0.065959
C29   C     C_R   0.631945 0.854504 0.907106 -0.105447
C30   C     C_R   0.367077 0.819833 0.081503 -0.111575
C31   C     C_R   0.131945 0.354504 0.907106 -0.105447
C32   C     C_R   0.867077 0.319833 0.081503 -0.111575
C33   C     C_R   0.090397 0.269956 0.938911 -0.143113
C34   C     C_R   0.918842 0.267242 0.043628 -0.133980
C35   C     C_R   0.590397 0.769956 0.938911 -0.143113
C36   C     C_R   0.418841 0.767241 0.043628 -0.133980
C37   C     C_R   0.586351 0.769324 0.012838 -0.134196
C38   C     C_R   0.417715 0.773166 0.969630 -0.112803
C39   C     C_R   0.086351 0.269324 0.012838 -0.134196
C40   C     C_R   0.917715 0.273166 0.969630 -0.112803
C41   C     C_R   0.620236 0.858103 0.053445 -0.069602
C42   C     C_R   0.362980 0.825249 0.933143 -0.065287
C43   C     C_R   0.120236 0.358103 0.053445 -0.069602
C44   C     C_R   0.862979 0.325249 0.933143 -0.065287
C45   C     C_R   0.532843 0.155054 0.144954 0.545448
C46   C     C_R   0.465229 0.155889 0.856598 0.550690
C47   C     C_R   0.032843 0.655054 0.144954 0.545449
C48   C     C_R   0.965229 0.655889 0.856598 0.550690
C49   C     C_R   0.729220 0.988083 0.063926 -0.023052
C50   C     C_R   0.268051 0.978565 0.937253 -0.030343
C51   C     C_R   0.229220 0.488083 0.063926 -0.023052
C52   C     C_R   0.768051 0.478565 0.937253 -0.030343
C53   C     C_R   0.495684 0.166387 0.574206 0.003299
C54   C     C_R   0.499960 0.167119 0.423503 0.006431
C55   C     C_R   0.995684 0.666388 0.574206 0.003299
C56   C     C_R   0.999960 0.667119 0.423503 0.006431
C57   C     C_R   0.504279 0.060951 0.534747 0.035626
C58   C     C_R   0.487816 0.061731 0.461440 0.034923
C59   C     C_R   0.004279 0.560951 0.534747 0.035626
C60   C     C_R   0.987817 0.561730 0.461440 0.034923
C61   C     C_R   0.504172 0.274598 0.462565 -0.149561
C62   C     C_R   0.492658 0.274213 0.536289 -0.152002
C63   C     C_R   0.004172 0.774598 0.462565 -0.149561
C64   C     C_R   0.992657 0.774213 0.536289 -0.152002
C65   C     C_R   0.525024 0.953599 0.565937 -0.080894
C66   C     C_R   0.467847 0.954518 0.427780 -0.079077
C67   C     C_R   0.025025 0.453600 0.565938 -0.080893
C68   C     C_R   0.967848 0.454518 0.427780 -0.079077
C69   C     C_R   0.014710 0.348058 0.528671 -0.151406
C70   C     C_R   0.981700 0.347944 0.461385 -0.144261
C71   C     C_R   0.514709 0.848058 0.528671 -0.151406
C72   C     C_R   0.481699 0.847944 0.461384 -0.144260
C73   C     C_R   0.745502 0.930325 0.578085 -0.005238
C74   C     C_R   0.252059 0.924731 0.424724 -0.005587
C75   C     C_R   0.245502 0.430326 0.578085 -0.005238
C76   C     C_R   0.752059 0.424732 0.424724 -0.005587
C77   C     C_R   0.794840 0.997534 0.540742 0.015814
C78   C     C_R   0.201728 0.986401 0.463398 0.016249
C79   C     C_R   0.294839 0.497537 0.540743 0.015814
C80   C     C_R   0.701728 0.486402 0.463397 0.016249
C81   C     C_R   0.807619 0.962675 0.470090 0.008831
C82   C     C_R   0.189429 0.948712 0.533371 0.008029
C83   C     C_R   0.307619 0.462678 0.470090 0.008831
C84   C     C_R   0.689429 0.448713 0.533371 0.008029
C85   C     C_R   0.691542 0.878243 0.464489 -0.141792
C86   C     C_R   0.306111 0.872105 0.537304 -0.141333
C87   C     C_R   0.191542 0.378243 0.464489 -0.141793
C88   C     C_R   0.806111 0.372105 0.537304 -0.141333
C89   C     C_R   0.727843 0.016456 0.140929 0.567312
C90   C     C_R   0.270060 0.010106 0.859823 0.550783
C91   C     C_R   0.227843 0.516456 0.140929 0.567312
C92   C     C_R   0.770060 0.510106 0.859823 0.550783
C93   C     C_R   0.692331 0.871873 0.538953 -0.152275
C94   C     C_R   0.304929 0.866599 0.462886 -0.151317
C95   C     C_R   0.192330 0.371873 0.538953 -0.152275
C96   C     C_R   0.804929 0.366599 0.462886 -0.151317
C97   C     C_R   0.837911 0.085017 0.573559 0.024150
C98   C     C_R   0.160141 0.076603 0.433955 0.022996
C99   C     C_R   0.337910 0.585019 0.573560 0.024150
C100  C     C_R   0.660141 0.576603 0.433955 0.022996
C101  C     C_R   0.900175 0.114738 0.541651 -0.157632
C102  C     C_R   0.100407 0.108871 0.469215 -0.164230
C103  C     C_R   0.400174 0.614740 0.541653 -0.157630
C104  C     C_R   0.600407 0.608872 0.469214 -0.164229
C105  C     C_R   0.919416 0.059212 0.477801 -0.166789
C106  C     C_R   0.080928 0.051144 0.532254 -0.161710
C107  C     C_R   0.419415 0.559214 0.477803 -0.166790
C108  C     C_R   0.580928 0.551145 0.532253 -0.161710
C109  C     C_R   0.874192 0.981948 0.442028 0.019028
C110  C     C_R   0.124097 0.968128 0.563667 0.021174
C111  C     C_R   0.374192 0.481952 0.442030 0.019028
C112  C     C_R   0.624097 0.468129 0.563667 0.021174
C113  C     C_R   0.750522 0.922139 0.428852 0.002495
C114  C     C_R   0.247479 0.913894 0.573630 0.001033
C115  C     C_R   0.250522 0.422141 0.428853 0.002495
C116  C     C_R   0.747479 0.413894 0.573630 0.001034
C117  C     C_R   0.731648 0.380586 0.353565 0.551680
C118  C     C_R   0.267797 0.381829 0.647258 0.548410
C119  C     C_R   0.231648 0.880586 0.353566 0.551680
C120  C     C_R   0.767797 0.881829 0.647257 0.548409
C121  C     C_R   0.531640 0.157640 0.352300 0.556644
C122  C     C_R   0.467371 0.157657 0.646964 0.557448
C123  C     C_R   0.031640 0.657640 0.352300 0.556645
C124  C     C_R   0.967371 0.657657 0.646964 0.557448
C125  C     C_R   0.742152 0.970399 0.356511 0.589427
C126  C     C_R   0.257362 0.968992 0.644308 0.579888
C127  C     C_R   0.242152 0.470399 0.356511 0.589426
C128  C     C_R   0.757362 0.468992 0.644308 0.579888
C129  C     C_3   0.537719 0.249641 0.970402 -0.107400
C130  C     C_3   0.484114 0.272083 0.030111 -0.082091
C131  C     C_3   0.037719 0.749641 0.970402 -0.107400
C132  C     C_3   0.984114 0.772083 0.030111 -0.082091
C133  C     C_3   0.565496 0.141812 0.012328 -0.120505
C134  C     C_3   0.430876 0.189008 0.990620 -0.096068
C135  C     C_3   0.065496 0.641812 0.012328 -0.120505
C136  C     C_3   0.930876 0.689008 0.990620 -0.096068
C137  C     C_3   0.511130 0.163654 0.070139 0.042085
C138  C     C_3   0.485400 0.165315 0.932603 0.052440
C139  C     C_3   0.011130 0.663654 0.070139 0.042086
C140  C     C_3   0.985400 0.665315 0.932603 0.052440
Cr1   Cr    Cr6+3 0.772820 0.169820 0.252640 1.016961
Cr2   Cr    Cr6+3 0.227180 0.169820 0.747360 1.019371
Cr3   Cr    Cr6+3 0.272820 0.669820 0.252640 1.016961
Cr4   Cr    Cr6+3 0.727180 0.669820 0.747360 1.019370
Cr5   Cr    Cr6+3 0.615040 0.323610 0.249150 1.061835
Cr6   Cr    Cr6+3 0.384960 0.323610 0.750850 1.075242
Cr7   Cr    Cr6+3 0.115040 0.823610 0.249150 1.061835
Cr8   Cr    Cr6+3 0.884960 0.823610 0.750850 1.075242
Cr9   Cr    Cr6+3 0.616720 0.011130 0.250660 1.029857
Cr10  Cr    Cr6+3 0.383280 0.011130 0.749340 1.021873
Cr11  Cr    Cr6+3 0.116720 0.511130 0.250660 1.029858
Cr12  Cr    Cr6+3 0.883280 0.511130 0.749340 1.021874
H1    H     H_    0.621637 0.130448 0.023261 0.111151
H2    H     H_    0.375099 0.208351 0.980025 0.139061
H3    H     H_    0.121637 0.630448 0.023261 0.111152
H4    H     H_    0.875099 0.708351 0.980025 0.139061
H5    H     H_    0.516165 0.358020 0.436586 0.153769
H6    H     H_    0.482858 0.357518 0.563426 0.152063
H7    H     H_    0.016164 0.858020 0.436586 0.153768
H8    H     H_    0.982857 0.857518 0.563426 0.152063
H9    H     H_    0.549054 0.950870 0.618848 0.132852
H10   H     H_    0.444786 0.952791 0.374358 0.132743
H11   H     H_    0.049055 0.450871 0.618848 0.132852
H12   H     H_    0.944786 0.452791 0.374358 0.132743
H13   H     H_    0.031527 0.267844 0.553834 0.101801
H14   H     H_    0.969032 0.267270 0.432740 0.105839
H15   H     H_    0.531526 0.767843 0.553833 0.101801
H16   H     H_    0.469031 0.767270 0.432738 0.105839
H17   H     H_    0.645246 0.849721 0.435174 0.154367
H18   H     H_    0.352953 0.846828 0.565924 0.155907
H19   H     H_    0.145247 0.349720 0.435174 0.154367
H20   H     H_    0.852953 0.346828 0.565923 0.155907
H21   H     H_    0.653049 0.819807 0.565710 0.142037
H22   H     H_    0.344170 0.816676 0.435422 0.146360
H23   H     H_    0.153049 0.319806 0.565710 0.142038
H24   H     H_    0.844170 0.316676 0.435422 0.146360
H25   H     H_    0.934041 0.177145 0.568823 0.108634
H26   H     H_    0.068834 0.176495 0.445774 0.105815
H27   H     H_    0.434040 0.677146 0.568826 0.108634
H28   H     H_    0.568834 0.676495 0.445773 0.105815
H29   H     H_    0.968450 0.077130 0.454013 0.108269
H30   H     H_    0.033876 0.072833 0.559115 0.107285
H31   H     H_    0.468450 0.577132 0.454016 0.108269
H32   H     H_    0.533876 0.572834 0.559114 0.107285
H33   H     H_    0.570104 0.318229 0.943654 0.148184
H34   H     H_    0.473709 0.356662 0.058813 0.163535
H35   H     H_    0.070104 0.818228 0.943654 0.148184
H36   H     H_    0.973709 0.856662 0.058813 0.163535
H37   H     H_    0.427246 0.018229 0.063217 0.143732
H38   H     H_    0.521019 0.970429 0.948915 0.156387
H39   H     H_    0.927246 0.518230 0.063217 0.143732
H40   H     H_    0.021019 0.470429 0.948915 0.156387
H41   H     H_    0.828926 0.077320 0.058391 0.179683
H42   H     H_    0.210367 0.138044 0.962005 0.160626
H43   H     H_    0.328926 0.577319 0.058391 0.179683
H44   H     H_    0.710367 0.638044 0.962005 0.160626
H45   H     H_    0.627867 0.863819 0.849565 0.143258
H46   H     H_    0.374845 0.822904 0.138939 0.147073
H47   H     H_    0.127867 0.363819 0.849565 0.143258
H48   H     H_    0.874846 0.322904 0.138939 0.147073
H49   H     H_    0.062636 0.204930 0.906019 0.135776
H50   H     H_    0.957669 0.218877 0.073054 0.123511
H51   H     H_    0.562636 0.704931 0.906019 0.135776
H52   H     H_    0.457669 0.718877 0.073054 0.123511
H53   H     H_    0.058645 0.198431 0.038698 0.137953
H54   H     H_    0.957001 0.230912 0.939149 0.143656
H55   H     H_    0.558644 0.698431 0.038698 0.137953
H56   H     H_    0.457001 0.730912 0.939149 0.143655
H57   H     H_    0.606628 0.859436 0.108812 0.188593
H58   H     H_    0.361959 0.806617 0.876755 0.177240
H59   H     H_    0.106628 0.359436 0.108812 0.188593
H60   H     H_    0.861959 0.306617 0.876755 0.177240
O1    O     O_R   0.788190 0.043000 0.172520 -0.498897
O2    O     O_R   0.211810 0.043000 0.827480 -0.495008
O3    O     O_R   0.288190 0.543000 0.172520 -0.498897
O4    O     O_R   0.711810 0.543000 0.827480 -0.495008
O5    O     O_R   0.556550 0.253260 0.323480 -0.484186
O6    O     O_R   0.443450 0.253260 0.676520 -0.483867
O7    O     O_R   0.056550 0.753260 0.323480 -0.484186
O8    O     O_R   0.943450 0.753260 0.676520 -0.483867
O9    O     O_R   0.545830 0.051610 0.330160 -0.528364
O10   O     O_R   0.454170 0.051610 0.669840 -0.529175
O11   O     O_R   0.045830 0.551610 0.330160 -0.528364
O12   O     O_R   0.954170 0.551610 0.669840 -0.529175
O13   O     O_R   0.681920 0.959720 0.327070 -0.483303
O14   O     O_R   0.318080 0.959720 0.672930 -0.488525
O15   O     O_R   0.181920 0.459720 0.327070 -0.483302
O16   O     O_R   0.818080 0.459720 0.672930 -0.488524
O17   O     O_3   0.668190 0.168190 0.250820 -0.294902
O18   O     O_3   0.331810 0.168190 0.749180 -0.288310
O19   O     O_3   0.168190 0.668190 0.250820 -0.294902
O20   O     O_3   0.831810 0.668190 0.749180 -0.288310
O21   O     O_R   0.766240 0.292300 0.176860 -0.545495
O22   O     O_R   0.233760 0.292300 0.823140 -0.539014
O23   O     O_R   0.266240 0.792300 0.176860 -0.545495
O24   O     O_R   0.733760 0.792300 0.823140 -0.539014
O25   O     O_R   0.670310 0.409160 0.168720 -0.477242
O26   O     O_R   0.329690 0.409160 0.831280 -0.468582
O27   O     O_R   0.170310 0.909160 0.168720 -0.477242
O28   O     O_R   0.829690 0.909160 0.831280 -0.468582
O29   O     O_R   0.556160 0.251900 0.173380 -0.496634
O30   O     O_R   0.443840 0.251900 0.826620 -0.471011
O31   O     O_R   0.056160 0.751900 0.173380 -0.496634
O32   O     O_R   0.943840 0.751900 0.826620 -0.471011
O33   O     O_R   0.545410 0.050140 0.168240 -0.546589
O34   O     O_R   0.454590 0.050140 0.831760 -0.540723
O35   O     O_R   0.045410 0.550140 0.168240 -0.546589
O36   O     O_R   0.954590 0.550140 0.831760 -0.540723
O37   O     O_R   0.681530 0.958350 0.176970 -0.490184
O38   O     O_R   0.318470 0.958350 0.823030 -0.511552
O39   O     O_R   0.181530 0.458350 0.176970 -0.490184
O40   O     O_R   0.818470 0.458350 0.823030 -0.511552
O41   O     O_R   0.788610 0.044480 0.334450 -0.504534
O42   O     O_R   0.211390 0.044480 0.665550 -0.503759
O43   O     O_R   0.288610 0.544480 0.334450 -0.504534
O44   O     O_R   0.711390 0.544480 0.665550 -0.503759
O45   O     O_R   0.766630 0.293670 0.326970 -0.514567
O46   O     O_R   0.233370 0.293670 0.673030 -0.513081
O47   O     O_R   0.266630 0.793670 0.326970 -0.514567
O48   O     O_R   0.733370 0.793670 0.673030 -0.513081
O49   O     O_R   0.670730 0.410640 0.330640 -0.500839
O50   O     O_R   0.329270 0.410640 0.669360 -0.505617
O51   O     O_R   0.170730 0.910640 0.330640 -0.500839
O52   O     O_R   0.829270 0.910640 0.669360 -0.505617
C141  C     C_1   0.819108 0.144444 0.639521 0.199359
N1    N     N_1   0.804098 0.191061 0.692446 -0.280936
C142  C     C_1   0.179781 0.140786 0.370221 0.202789
N2    N     N_1   0.195569 0.191470 0.319091 -0.244773
C143  C     C_1   0.319106 0.644445 0.639522 0.199359
N3    N     N_1   0.304095 0.691061 0.692448 -0.280936
C144  C     C_1   0.679782 0.640786 0.370221 0.202789
N4    N     N_1   0.695569 0.691470 0.319090 -0.244772
C145  C     C_1   0.897084 0.922633 0.377475 0.206283
N5    N     N_1   0.914726 0.875944 0.325494 -0.272618
C146  C     C_1   0.102773 0.909106 0.628829 0.203810
N6    N     N_1   0.086506 0.862709 0.681292 -0.277407
C147  C     C_1   0.397084 0.422637 0.377477 0.206282
N7    N     N_1   0.414728 0.375948 0.325496 -0.272619
C148  C     C_1   0.602773 0.409107 0.628828 0.203809
N8    N     N_1   0.586506 0.362710 0.681292 -0.277407
I1    I     I_    0.913235 0.994609 0.943231 -0.460354
I2    I     I_    0.216591 0.172016 0.133522 -0.336445
I3    I     I_    0.413235 0.494609 0.943231 -0.460354
I4    I     I_    0.716591 0.672016 0.133522 -0.336445

loop_
_geom_bond_atom_site_label_1
_geom_bond_atom_site_label_2
_ccdc_geom_bond_type
C99   C103  A    
C124  O8    A    
C133  C137  S    
C129  H33   S    
C4    O24   A    
Cr11  O15   S    
C73   C93   A    
C136  C140  S    
C132  H36   S    
C47   O35   A    
C75   C95   A    
C135  C139  S    
C90   O38   A    
C84   C112  A    
C79   C99   A    
C55   C59   A    
C5    C6    S    
C144  N4    T    
C100  C104  A    
Cr2   O46   S    
C9    C13   A    
C91   O3    A    
C131  C140  S    
C3    O23   A    
Cr7   O19   S    
C50   C90   S    
C66   C72   A    
C12   C16   A    
C1    O21   A    
C43   H59   S    
C87   C115  A    
C80   C84   A    
C59   C60   A    
C8    C135  S    
C126  O14   A    
C68   H12   S    
C108  H32   S    
C56   C123  S    
C98   C102  A    
C123  O11   A    
C85   H17   S    
C32   C34   A    
C78   C82   A    
C11   C27   A    
C16   C20   A    
C87   H19   S    
C129  C133  S    
C97   C141  S    
Cr7   O51   S    
C90   O2    A    
Cr3   O3    S    
C28   I4    S    
Cr8   O28   S    
C5    C137  S    
C118  O46   A    
C54   C61   A    
C29   C35   A    
Cr10  O18   S    
C30   C36   A    
C8    C140  S    
C5    H37   S    
C48   O36   A    
C76   C96   A    
C8    H40   S    
C93   H21   S    
C69   C70   A    
C22   C26   A    
Cr6   O6    S    
Cr1   O21   S    
C122  O10   A    
C65   H9    S    
C73   C77   A    
C103  C107  A    
C44   H60   S    
C75   C79   A    
C100  C144  S    
C131  H35   S    
C79   C83   A    
C88   C116  A    
C63   H7    S    
C21   C49   A    
C7    C8    S    
C132  C139  S    
C21   C25   A    
C127  O43   A    
C111  C147  S    
C53   C122  S    
C18   C42   A    
C114  C126  S    
Cr2   O18   S    
C95   H23   S    
C59   C67   A    
C85   C93   A    
Cr11  O19   S    
C124  O12   A    
C87   C95   A    
C77   C97   A    
C132  C136  S    
C84   C116  A    
Cr3   O43   S    
C147  N7    T    
C72   H16   S    
C1    C12   S    
C11   C15   A    
C2    C11   S    
C20   C44   A    
Cr10  O38   S    
C92   O40   A    
C48   C140  S    
C83   C115  A    
Cr3   O47   S    
C46   O34   A    
C10   C14   A    
C17   C49   A    
Cr4   O4    S    
C1    O25   A    
C128  O16   A    
Cr6   O30   S    
C54   C58   A    
C126  O42   A    
Cr8   O52   S    
C30   H46   S    
C54   C121  S    
Cr5   O49   S    
C102  H26   S    
C47   C139  S    
Cr12  O40   S    
C129  C130  S    
Cr10  O34   S    
Cr5   O17   S    
C133  H1    S    
C86   H18   S    
C107  C111  A    
C76   C80   A    
C142  N2    T    
C15   C31   A    
Cr7   O27   S    
C16   C32   A    
Cr2   O42   S    
C13   C17   A    
Cr9   O17   S    
C85   C113  A    
C71   C72   A    
C57   C58   A    
C34   H50   S    
C128  O44   A    
Cr11  O11   S    
C37   C41   A    
C61   C62   A    
C130  C134  S    
C69   H13   S    
C26   I2    S    
C63   C64   A    
C67   H11   S    
C40   C44   A    
C23   H43   S    
Cr8   O32   S    
Cr1   O45   S    
C21   H41   S    
C4    C9    S    
Cr12  O20   S    
C24   C52   A    
C119  O47   A    
C88   C96   A    
Cr10  O14   S    
C37   H55   S    
C74   C94   A    
C146  N6    T    
C48   O32   A    
C31   H47   S    
C9    C25   A    
C91   O39   A    
C15   C19   A    
Cr4   O44   S    
C89   O37   A    
C12   C28   A    
C13   C29   A    
C6    C133  S    
Cr11  O35   S    
C24   H44   S    
Cr1   O17   S    
C66   H10   S    
C123  O7    A    
C105  H29   S    
C51   C91   S    
C2    O22   A    
C148  N8    T    
C62   H6    S    
Cr8   O20   S    
C92   O4    A    
C42   H58   S    
C22   C50   A    
C117  O49   A    
C73   C120  S    
C143  N3    T    
C127  O15   A    
Cr10  O10   S    
C7    H39   S    
C75   C118  S    
C121  O5    A    
C125  O13   A    
C19   C43   A    
Cr9   O37   S    
Cr4   O24   S    
C24   C28   A    
Cr2   O2    S    
C45   O33   A    
C53   C57   A    
Cr11  O39   S    
C99   C143  S    
C108  C112  A    
C61   H5    S    
C77   C81   A    
C64   H8    S    
C4    O28   A    
Cr8   O8    S    
C81   C109  A    
Cr12  O12   S    
C83   C111  A    
C52   C92   S    
C46   O30   A    
C131  C132  S    
C104  C108  A    
C18   C50   A    
C89   O1    A    
C55   C124  S    
Cr9   O33   S    
C96   H24   S    
Cr4   O20   S    
C57   C65   A    
C76   C117  S    
Cr1   O41   S    
C36   C38   A    
C32   H48   S    
C120  O48   A    
C47   O31   A    
C134  H2    S    
C105  C109  A    
Cr6   O50   S    
C103  H27   S    
Cr12  O36   S    
C101  H25   S    
C56   C60   A    
C7    C136  S    
Cr5   O5    S    
C60   C68   A    
C74   C78   A    
C81   C113  A    
C121  O9    A    
C130  C137  S    
C109  C145  S    
C3    O27   A    
C88   H20   S    
Cr9   O13   S    
C14   C18   A    
C135  H3    S    
C74   C119  S    
C33   C39   A    
C38   H56   S    
C34   C40   A    
C82   C110  A    
C35   C37   A    
C38   C42   A    
C131  C135  S    
C70   H14   S    
C27   I3    S    
C136  H4    S    
C113  C125  S    
C115  C127  S    
Cr3   O23   S    
C106  H30   S    
C86   C94   A    
Cr12  O16   S    
C58   C66   A    
C119  O51   A    
C129  C138  S    
C120  O52   A    
Cr5   O25   S    
C78   C98   A    
C31   C33   A    
C23   C27   A    
C141  N1    T    
C46   C138  S    
C41   H57   S    
C10   C26   A    
C80   C100  A    
Cr9   O9    S    
C14   C30   A    
C101  C105  A    
C5    C134  S    
C40   H54   S    
Cr6   O26   S    
C82   C114  A    
Cr1   O1    S    
C2    O26   A    
C39   C43   A    
C65   C71   A    
C110  C146  S    
C107  H31   S    
C67   C69   A    
C6    C138  S    
C117  O45   A    
C53   C62   A    
C23   C51   A    
C118  O50   A    
C98   C142  S    
C55   C64   A    
C6    H38   S    
C45   C137  S    
C145  N5    T    
C56   C63   A    
Cr5   O29   S    
C125  O41   A    
C94   H22   S    
C68   C70   A    
Cr7   O31   S    
C29   H45   S    
C45   O29   A    
Cr6   O18   S    
C122  O6    A    
C49   C89   S    
C134  C138  S    
C130  H34   S    
C86   C114  A    
Cr3   O19   S    
C112  C148  S    
C20   C52   A    
C3    C10   S    
C7    C139  S    
C35   H51   S    
C104  H28   S    
C39   H53   S    
C33   H49   S    
C102  C106  A    
Cr4   O48   S    
C17   C41   A    
Cr7   O7    S    
C19   C51   A    
Cr2   O22   S    
C106  C110  A    
C116  C128  S    
C22   H42   S    
C71   H15   S    
C36   H52   S    
C25   I1    S    
C97   C101  A    
