data_mof_unit_40129.cif
_audit_creation_date              2012-12-10T21:25:14-0500
_audit_creation_method            fapswitch 2.2
_symmetry_space_group_name_H-M    P1
_symmetry_Int_Tables_number       1
_space_group_crystal_system       triclinic
_cell_length_a                    10.848077
_cell_length_b                    17.514862
_cell_length_c                    16.774939
_cell_angle_alpha                 88.540826
_cell_angle_beta                  90.934389
_cell_angle_gamma                 91.282875
_cell_volume                      3185.05440336

loop_
_atom_site_label
_atom_site_type_symbol
_atom_type_description
_atom_site_fract_x
_atom_site_fract_y
_atom_site_fract_z
_atom_type_partial_charge
C1    C     C_R   0.505440 0.353310 0.500695 0.922769
C2    C     C_R   0.497214 0.646680 0.499531 0.934998
C3    C     C_R   0.873359 0.506444 0.504422 -0.129728
C4    C     C_R   0.126422 0.493787 0.495821 -0.190694
C5    C     C_R   0.937745 0.467475 0.566336 0.089426
C6    C     C_R   0.061489 0.531528 0.433285 0.077693
C7    C     C_R   0.457392 0.849069 0.562879 0.492984
C8    C     C_R   0.603182 0.155848 0.445459 0.495501
C9    C     C_R   0.435537 0.770054 0.557459 0.079707
C10   C     C_R   0.592704 0.235688 0.441902 0.046058
C11   C     C_R   0.501054 0.729488 0.500330 -0.203575
C12   C     C_R   0.525702 0.271313 0.502293 -0.205523
C13   C     C_R   0.580460 0.767790 0.447637 -0.364767
C14   C     C_R   0.482384 0.228560 0.567918 -0.328997
C15   C     C_R   0.596804 0.846518 0.450009 0.514496
C16   C     C_R   0.501650 0.150640 0.574432 0.495476
C17   C     C_R   0.537491 0.886218 0.508893 -0.168489
C18   C     C_R   0.558362 0.114591 0.511937 -0.163282
C19   C     C_1   0.553004 0.966370 0.511336 0.107913
C20   C     C_1   0.559687 0.034014 0.512521 0.120122
C21   C     C_R   0.456527 0.437555 0.835788 0.278605
C22   C     C_R   0.573477 0.548811 0.164542 0.276043
C23   C     C_R   0.259425 0.497881 0.498839 0.887130
C24   C     C_R   0.740495 0.502657 0.501191 0.882886
C25   C     C_R   0.454598 0.437307 0.749946 0.539948
C26   C     C_R   0.569635 0.553249 0.250338 0.528499
C27   C     C_R   0.540106 0.563627 0.746204 -0.274485
C28   C     C_R   0.430859 0.445968 0.254158 -0.274134
C29   C     C_R   0.533577 0.568363 0.830743 0.409392
C30   C     C_R   0.426990 0.443238 0.169911 0.424090
C31   C     C_R   0.493566 0.503844 0.875711 -0.126508
C32   C     C_R   0.494087 0.497737 0.124519 -0.128828
C33   C     C_1   0.490326 0.503647 0.963604 0.148801
C34   C     C_1   0.489123 0.500166 0.036560 0.154194
C35   C     C_R   0.208013 0.650769 0.265329 0.413327
C36   C     C_R   0.796048 0.354874 0.740424 0.457665
C37   C     C_R   0.172863 0.627375 0.342696 -0.018571
C38   C     C_R   0.828753 0.374990 0.661345 -0.027413
C39   C     C_R   0.118381 0.554037 0.355475 -0.060221
C40   C     C_R   0.881141 0.448111 0.644817 -0.061730
C41   C     C_R   0.098520 0.504989 0.290515 0.439322
C42   C     C_R   0.889725 0.502871 0.704964 0.472293
C43   C     C_R   0.129534 0.529925 0.212689 -0.051288
C44   C     C_R   0.848214 0.484399 0.782326 -0.085573
C45   C     C_R   0.183798 0.603062 0.200200 0.366233
C46   C     C_R   0.809254 0.408716 0.801148 0.375888
C47   C     C_R   0.936403 0.543709 0.441689 0.136877
C48   C     C_R   0.063645 0.456630 0.558943 0.113491
H1    H     H_    0.577820 0.610946 0.711325 0.194073
H2    H     H_    0.378147 0.404551 0.289036 0.173445
H3    H     H_    0.633310 0.736011 0.406739 0.194252
H4    H     H_    0.432241 0.255421 0.614098 0.220940
N1    N     N_R   0.500030 0.500030 0.707230 -0.162525
N2    N     N_R   0.499970 0.499970 0.292770 -0.157945
O1    O     O_R   0.500000 0.389130 0.566570 -0.545013
O2    O     O_R   0.500000 0.610870 0.433430 -0.581148
O3    O     O_R   0.499990 0.389100 0.433480 -0.632487
O4    O     O_R   0.500010 0.610900 0.566520 -0.622294
O5    O     O_R   0.316760 0.500020 0.566540 -0.603066
O6    O     O_R   0.683240 0.499980 0.433460 -0.577694
O7    O     O_R   0.316760 0.499990 0.433460 -0.630919
O8    O     O_R   0.683240 0.500010 0.566540 -0.608937
Zn1   Zn    Zn3+2 0.500010 0.500020 0.588860 0.985163
Zn2   Zn    Zn3+2 0.499990 0.499980 0.411140 0.968250
O9    O     O_3   0.215101 0.627995 0.124110 -0.589309
C49   C     C_3   0.118099 0.671888 0.091776 -0.268336
H5    H     H_    0.106814 0.725233 0.125198 0.198697
H6    H     H_    0.029718 0.638530 0.090234 0.136504
H7    H     H_    0.140722 0.688607 0.029403 0.183137
O10   O     O_3   0.777618 0.386930 0.878100 -0.611119
C50   C     C_3   0.885567 0.379114 0.925755 -0.339526
H8    H     H_    0.912769 0.434317 0.952633 0.177863
H9    H     H_    0.965065 0.356616 0.892939 0.148995
H10   H     H_    0.865139 0.338118 0.975532 0.185788
O11   O     O_3   0.678648 0.884102 0.399341 -0.576357
C51   C     C_3   0.622832 0.891101 0.323101 -0.294605
H11   H     H_    0.533355 0.920883 0.325357 0.150433
H12   H     H_    0.609385 0.834477 0.295539 0.136760
H13   H     H_    0.684881 0.925914 0.284034 0.195885
O12   O     O_3   0.453863 0.108276 0.637931 -0.584280
C52   C     C_3   0.530311 0.120012 0.705494 -0.308715
H14   H     H_    0.527769 0.180195 0.725019 0.198635
H15   H     H_    0.626966 0.103601 0.694201 0.157385
H16   H     H_    0.495707 0.083018 0.755288 0.176770
O13   O     O_3   0.412037 0.375982 0.881105 -0.626787
C53   C     C_3   0.510781 0.329201 0.904753 -0.236365
H17   H     H_    0.572766 0.358221 0.948350 0.198985
H18   H     H_    0.562982 0.310377 0.852576 0.231647
H19   H     H_    0.472543 0.277105 0.935101 0.156522
O14   O     O_3   0.653946 0.593149 0.118825 -0.592980
C54   C     C_3   0.759848 0.550196 0.105150 -0.342192
H20   H     H_    0.806441 0.533258 0.162294 0.165121
H21   H     H_    0.737760 0.498657 0.069783 0.167971
H22   H     H_    0.825509 0.586210 0.070006 0.190605
O15   O     O_3   0.418495 0.373410 0.706687 -0.584606
C55   C     C_3   0.323078 0.328006 0.741247 -0.284274
H23   H     H_    0.254015 0.362163 0.772298 0.173726
H24   H     H_    0.362172 0.282602 0.780633 0.205882
H25   H     H_    0.273078 0.296988 0.693571 0.160413
O16   O     O_3   0.634569 0.607406 0.295334 -0.603618
C56   C     C_3   0.686927 0.670052 0.251971 -0.323556
H26   H     H_    0.620365 0.697214 0.209885 0.185792
H27   H     H_    0.772695 0.653740 0.222470 0.209863
H28   H     H_    0.717625 0.714373 0.293860 0.166429
O17   O     O_3   0.574595 0.632441 0.871619 -0.579062
C57   C     C_3   0.532554 0.700469 0.834503 -0.311207
H29   H     H_    0.434496 0.695454 0.814081 0.147819
H30   H     H_    0.593246 0.718351 0.784405 0.157249
H31   H     H_    0.538034 0.746490 0.878717 0.196793
O18   O     O_3   0.355976 0.388300 0.131909 -0.597496
C58   C     C_3   0.417321 0.318237 0.137899 -0.334376
H32   H     H_    0.422163 0.296471 0.200727 0.148762
H33   H     H_    0.511400 0.323143 0.112352 0.156252
H34   H     H_    0.364207 0.275454 0.102899 0.195877
O19   O     O_3   0.250460 0.724936 0.251886 -0.592379
C59   C     C_3   0.379256 0.724328 0.244104 -0.274013
H35   H     H_    0.424743 0.700956 0.299118 0.187974
H36   H     H_    0.413289 0.784007 0.234961 0.169462
H37   H     H_    0.405865 0.691811 0.191232 0.199244
O20   O     O_3   0.744430 0.283666 0.758193 -0.596440
C60   C     C_3   0.839781 0.232032 0.775344 -0.353590
H38   H     H_    0.885404 0.244493 0.833372 0.182232
H39   H     H_    0.909429 0.231751 0.727317 0.163302
H40   H     H_    0.798699 0.173596 0.780407 0.181414
C61   C     C_3   0.186720 0.683978 0.408851 -0.757413
H41   H     H_    0.157387 0.660276 0.467495 0.208200
H42   H     H_    0.284334 0.702945 0.414523 0.243399
H43   H     H_    0.130096 0.734670 0.394482 0.253980
C62   C     C_3   0.811525 0.318596 0.595143 -0.780156
H44   H     H_    0.902429 0.301049 0.573469 0.221317
H45   H     H_    0.758646 0.266514 0.614070 0.268905
H46   H     H_    0.760139 0.345521 0.544741 0.221629
O21   O     O_3   0.029373 0.438108 0.301135 -0.593352
C63   C     C_3   0.108533 0.378010 0.322749 -0.291787
H47   H     H_    0.051218 0.326536 0.337614 0.189939
H48   H     H_    0.165998 0.390894 0.376290 0.162164
H49   H     H_    0.168261 0.363486 0.272520 0.169802
O22   O     O_3   0.928350 0.576971 0.685868 -0.586614
C64   C     C_3   0.054116 0.587428 0.707215 -0.304700
H50   H     H_    0.087108 0.548601 0.756432 0.136790
H51   H     H_    0.068647 0.646855 0.727279 0.189829
H52   H     H_    0.112040 0.580620 0.654119 0.187408
C65   C     C_3   0.095952 0.480176 0.142993 -0.725378
H53   H     H_    0.129181 0.504409 0.085320 0.260727
H54   H     H_    0.136086 0.423054 0.151329 0.275242
H55   H     H_    0.994451 0.472639 0.138553 0.207234
C66   C     C_3   0.845203 0.545986 0.843529 -0.731111
H56   H     H_    0.785455 0.529394 0.894446 0.261293
H57   H     H_    0.939868 0.558420 0.866428 0.207066
H58   H     H_    0.807271 0.599070 0.816264 0.276930
C67   C     C_3   0.873526 0.600029 0.385652 -0.785301
H59   H     H_    0.932651 0.651494 0.374784 0.217538
H60   H     H_    0.854236 0.571877 0.328215 0.272979
H61   H     H_    0.788591 0.622525 0.411341 0.260376
C68   C     C_3   0.130727 0.404747 0.617832 -0.879892
H62   H     H_    0.069977 0.360240 0.645307 0.216056
H63   H     H_    0.202607 0.373068 0.586873 0.249417
H64   H     H_    0.172376 0.439401 0.666080 0.253424
O23   O     O_3   0.395592 0.890940 0.617977 -0.581132
C69   C     C_3   0.468438 0.894600 0.688252 -0.282474
H65   H     H_    0.418542 0.927562 0.732658 0.197848
H66   H     H_    0.558138 0.924809 0.677273 0.159914
H67   H     H_    0.484210 0.836690 0.714756 0.139609
O24   O     O_3   0.660804 0.117862 0.385490 -0.583920
C70   C     C_3   0.572964 0.102336 0.324736 -0.318935
H68   H     H_    0.535704 0.155813 0.297525 0.155738
H69   H     H_    0.496151 0.064997 0.347303 0.155923
H70   H     H_    0.618788 0.071507 0.276896 0.187815
C71   C     C_3   0.344131 0.730073 0.612511 -0.839573
H71   H     H_    0.280419 0.770539 0.639324 0.268598
H72   H     H_    0.286278 0.688240 0.579358 0.221735
H73   H     H_    0.394158 0.699843 0.661632 0.229753
C72   C     C_3   0.655365 0.281336 0.375513 -0.792507
H74   H     H_    0.720270 0.246741 0.341902 0.261625
H75   H     H_    0.585358 0.303554 0.332412 0.232227
H76   H     H_    0.710568 0.329477 0.400509 0.238703

loop_
_geom_bond_atom_site_label_1
_geom_bond_atom_site_label_2
_ccdc_geom_bond_type
C65   H55   S    
C15   O11   S    
C70   H68   S    
C27   C29   A    
C11   C13   A    
C71   H71   S    
C9    C71   S    
O15   C55   S    
C51   H13   S    
C63   H49   S    
C41   O21   S    
C52   H14   S    
C39   C41   A    
O13   C53   S    
C23   O5    A    
C21   C31   A    
C56   H26   S    
C22   C32   A    
C30   O18   S    
O24   C70   S    
C35   C37   A    
C51   H12   S    
C62   H44   S    
C64   H52   S    
C53   H18   S    
C49   H7    S    
C7    O23   S    
C57   H29   S    
O19   C59   S    
C55   H25   S    
C44   C66   S    
C59   H35   S    
C65   H54   S    
C67   H61   S    
C56   H27   S    
O18   C58   S    
C60   H40   S    
C66   H56   S    
C13   H3    S    
C28   H2    S    
C14   H4    S    
C58   H32   S    
C7    C17   A    
O1    Zn1   S    
C61   H43   S    
C67   H59   S    
O2    Zn2   S    
C36   C46   A    
O10   C50   S    
C41   C43   A    
C62   H46   S    
C10   C72   S    
C40   C42   A    
C49   H5    S    
C70   H69   S    
C38   C40   A    
C68   H64   S    
C29   C31   A    
C71   H72   S    
C29   O17   S    
C3    C24   S    
C1    C12   S    
C42   C44   A    
C2    C11   S    
C26   N2    A    
C52   H15   S    
C44   C46   A    
C37   C61   S    
C72   H75   S    
C5    C48   A    
C21   O13   S    
C60   H39   S    
C6    C47   A    
C38   C62   S    
C66   H58   S    
C51   H11   S    
C4    C6    A    
C8    O24   S    
C54   H20   S    
C50   H9    S    
C4    C23   S    
C28   N2    A    
C53   H17   S    
C63   H48   S    
C72   H74   S    
C8    C18   A    
C55   H24   S    
C16   O12   S    
C32   C34   S    
O7    Zn2   S    
O11   C51   S    
C69   H67   S    
O8    Zn1   S    
C1    O3    A    
C54   H21   S    
C43   C45   A    
O23   C69   S    
C24   O6    A    
C55   H23   S    
C31   C33   S    
C33   C34   T    
C22   O14   S    
C58   H33   S    
C64   H51   S    
C35   O19   S    
C68   H63   S    
C9    C11   A    
C60   H38   S    
C10   C12   A    
C16   C18   A    
C48   C68   S    
C47   C67   S    
C25   O15   S    
C70   H70   S    
C13   C15   A    
C45   O9    S    
O21   C63   S    
C71   H73   S    
C14   C16   A    
C36   C38   A    
C35   C45   A    
C52   H16   S    
O20   C60   S    
O3    Zn2   S    
C43   C65   S    
C4    C48   A    
C72   H76   S    
O4    Zn1   S    
C7    C9    A    
C21   C25   A    
C24   O8    A    
C66   H57   S    
C25   N1    A    
O12   C52   S    
C3    C5    A    
C53   H19   S    
C50   H10   S    
C64   H50   S    
C27   N1    A    
C15   C17   A    
C63   H47   S    
C49   H6    S    
C56   H28   S    
O17   C57   S    
O5    Zn1   S    
C59   H37   S    
O6    Zn2   S    
C69   H65   S    
C19   C20   T    
C28   C30   A    
C65   H53   S    
C12   C14   A    
C50   H8    S    
C37   C39   A    
C2    O2    A    
C54   H22   S    
C30   C32   A    
N1    Zn1   S    
O14   C54   S    
C61   H41   S    
C57   H30   S    
C3    C47   A    
O16   C56   S    
C17   C19   S    
C59   H36   S    
C58   H34   S    
C18   C20   S    
C67   H60   S    
C1    O1    A    
C2    O4    A    
C36   O20   S    
C46   O10   S    
O22   C64   S    
C23   O7    A    
N2    Zn2   S    
C8    C10   A    
O9    C49   S    
C22   C26   A    
C5    C40   S    
C26   O16   S    
C68   H62   S    
C61   H42   S    
C6    C39   S    
C42   O22   S    
C27   H1    S    
C69   H66   S    
C62   H45   S    
C57   H31   S    
