data_mof_unit_23306.cif
_audit_creation_date              2012-10-26T20:33:43-0400
_audit_creation_method            fapswitch 2.2
_symmetry_space_group_name_H-M    P1
_symmetry_Int_Tables_number       1
_space_group_crystal_system       triclinic
_cell_length_a                    10.825387
_cell_length_b                    9.128336
_cell_length_c                    7.826236
_cell_angle_alpha                 90.296554
_cell_angle_beta                  90.249616
_cell_angle_gamma                 90.658835
_cell_volume                      773.302159494

loop_
_atom_site_label
_atom_site_type_symbol
_atom_type_description
_atom_site_fract_x
_atom_site_fract_y
_atom_site_fract_z
_atom_type_partial_charge
C1    C     C_R   0.498475 0.220120 0.499664 0.555582
C2    C     C_1   0.496283 0.934603 0.500142 -0.081724
C3    C     C_3   0.070747 0.660753 0.439945 0.453474
C4    C     C_3   0.927711 0.665230 0.486232 0.455714
C5    C     C_3   0.122017 0.505849 0.502261 -0.017314
C6    C     C_3   0.878954 0.499903 0.504986 -0.000959
C7    C     C_3   0.145419 0.341789 0.924221 -0.071884
C8    C     C_3   0.164361 0.157412 0.322786 -0.102792
C9    C     C_3   0.798352 0.236220 0.755780 -0.066635
C10   C     C_3   0.820686 0.232035 0.186990 -0.143890
C11   C     C_3   0.172977 0.805622 0.672412 -0.130029
C12   C     C_R   0.259629 0.503531 0.500064 0.598904
C13   C     C_3   0.169527 0.746134 0.181511 -0.064573
C14   C     C_3   0.795201 0.787756 0.687815 -0.096969
C15   C     C_3   0.881853 0.885940 0.337021 -0.014334
C16   C     C_R   0.740637 0.496357 0.501069 0.599717
C17   C     C_R   0.495995 0.779760 0.500134 0.531227
C18   C     C_1   0.497190 0.065283 0.499455 -0.078499
C19   C     C_3   0.071745 0.465138 0.685162 0.185988
C20   C     C_3   0.071195 0.383908 0.376262 0.193008
C21   C     C_3   0.930383 0.433943 0.676716 0.171526
C22   C     C_3   0.929138 0.403575 0.354304 0.178406
Cu1   Cu    Cu3+1 0.500000 0.500010 0.669080 0.966796
Cu2   Cu    Cu3+1 0.500000 0.500010 0.330920 0.984845
H1    H     H_    0.087518 0.559787 0.771890 0.057793
H2    H     H_    0.104740 0.126788 0.212268 0.083977
H3    H     H_    0.732397 0.208710 0.651832 0.167343
H4    H     H_    0.757851 0.317431 0.844378 0.099253
H5    H     H_    0.812859 0.135271 0.830274 0.092310
H6    H     H_    0.897513 0.204822 0.099763 0.103230
H7    H     H_    0.764016 0.322399 0.135452 0.137144
H8    H     H_    0.757914 0.135864 0.194462 0.122082
H9    H     H_    0.097858 0.801074 0.766677 0.168196
H10   H     H_    0.213747 0.916941 0.687982 0.153299
H11   H     H_    0.247831 0.731420 0.706290 0.129736
H12   H     H_    0.113568 0.402553 0.249556 0.082489
H13   H     H_    0.258636 0.741804 0.251437 0.181560
H14   H     H_    0.138775 0.861108 0.171486 0.118823
H15   H     H_    0.186101 0.705050 0.050202 0.090554
H16   H     H_    0.762891 0.727101 0.801909 0.152303
H17   H     H_    0.727096 0.776154 0.583868 0.167169
H18   H     H_    0.799672 0.905048 0.722567 0.121847
H19   H     H_    0.954396 0.931710 0.423081 0.229124
H20   H     H_    0.794605 0.942709 0.366644 0.115664
H21   H     H_    0.907563 0.911812 0.203420 0.122822
H22   H     H_    0.889786 0.490053 0.789894 0.095617
H23   H     H_    0.913901 0.466845 0.234178 0.120595
H24   H     H_    0.188088 0.237883 0.964869 0.121675
H25   H     H_    0.052907 0.349893 0.983600 0.097632
H26   H     H_    0.207045 0.433162 0.967251 0.124641
H27   H     H_    0.193576 0.055438 0.386497 0.175217
H28   H     H_    0.249792 0.215034 0.280300 0.114085
N1    N     N_1   0.500000 0.499970 0.076820 -0.112899
N2    N     N_1   0.500000 0.499970 0.923180 -0.113313
O1    O     O_R   0.500000 0.288400 0.642760 -0.500068
O2    O     O_3   0.097474 0.241868 0.440756 -0.438883
O3    O     O_3   0.912158 0.279057 0.683894 -0.456469
O4    O     O_3   0.867460 0.264842 0.351189 -0.515937
O5    O     O_3   0.134718 0.791690 0.499959 -0.587762
O6    O     O_3   0.075242 0.659328 0.256157 -0.600912
O7    O     O_3   0.915158 0.741830 0.645088 -0.631086
O8    O     O_3   0.860542 0.733086 0.350365 -0.561498
O9    O     O_R   0.500000 0.288400 0.357240 -0.507582
O10   O     O_R   0.317700 0.499990 0.642790 -0.485150
O11   O     O_R   0.317700 0.499990 0.357210 -0.533390
O12   O     O_R   0.682300 0.499990 0.642790 -0.553374
O13   O     O_R   0.682300 0.499990 0.357210 -0.472479
O14   O     O_R   0.500000 0.711620 0.642810 -0.526886
O15   O     O_R   0.500000 0.711620 0.357190 -0.498264
O16   O     O_3   0.134772 0.339335 0.745642 -0.455813

loop_
_geom_bond_atom_site_label_1
_geom_bond_atom_site_label_2
_ccdc_geom_bond_type
Cu1   O14   S    
C22   O4    S    
Cu1   Cu2   S    
Cu1   O1    S    
C5    C19   S    
C4    O8    S    
C2    C18   T    
C8    H2    S    
C12   O11   A    
C8    H28   S    
C13   H13   S    
C9    H5    S    
C20   O2    S    
C7    H24   S    
C8    O2    S    
C7    O16   S    
C11   H11   S    
C22   H23   S    
C1    C18   S    
C3    C5    S    
C15   H19   S    
C16   O13   A    
N1    N2    T    
C3    O6    S    
C2    C17   S    
C21   O3    S    
C14   O7    S    
C8    H27   S    
C7    H25   S    
C13   H14   S    
Cu2   O11   S    
C5    C12   S    
C14   H17   S    
C11   O5    S    
C14   H18   S    
C1    O9    A    
Cu1   O12   S    
Cu1   O10   S    
C10   O4    S    
C15   O8    S    
C20   C22   S    
Cu2   O15   S    
C10   H7    S    
Cu2   O9    S    
C9    O3    S    
C1    O1    A    
C15   H20   S    
C19   H1    S    
C13   H15   S    
C16   O12   A    
C15   H21   S    
C6    C16   S    
C3    C4    S    
C20   H12   S    
C10   H8    S    
C11   H9    S    
C9    H3    S    
Cu1   N2    S    
C4    C6    S    
C21   H22   S    
C9    H4    S    
C5    C20   S    
C12   O10   A    
C10   H6    S    
C17   O15   A    
C17   O14   A    
C6    C22   S    
Cu2   O13   S    
C19   C21   S    
Cu2   N1    S    
C6    C21   S    
C14   H16   S    
C4    O7    S    
C11   H10   S    
C7    H26   S    
C13   O6    S    
C19   O16   S    
C3    O5    S    
