data_mof_unit_66711.cif
_audit_creation_date              2012-12-11T14:04:16-0500
_audit_creation_method            fapswitch 2.2
_symmetry_space_group_name_H-M    P1
_symmetry_Int_Tables_number       1
_space_group_crystal_system       triclinic
_cell_length_a                    20.465121
_cell_length_b                    22.599496
_cell_length_c                    8.521455
_cell_angle_alpha                 91.463323
_cell_angle_beta                  104.516857
_cell_angle_gamma                 89.596503
_cell_volume                      3814.11339309

loop_
_atom_site_label
_atom_site_type_symbol
_atom_type_description
_atom_site_fract_x
_atom_site_fract_y
_atom_site_fract_z
_atom_type_partial_charge
Ba1   Ba    Ba6+2 0.999900 0.456810 0.844860 1.933864
Ba2   Ba    Ba6+2 0.999900 0.543190 0.344860 1.943592
Ba3   Ba    Ba6+2 0.499900 0.956810 0.844860 1.930020
Ba4   Ba    Ba6+2 0.499900 0.043190 0.344860 1.948605
C1    C     C_3   0.003792 0.142184 0.637970 0.627875
C2    C     C_R   0.198036 0.278379 0.380304 0.225048
C3    C     C_R   0.675414 0.234967 0.909126 0.220935
C4    C     C_R   0.697977 0.778317 0.380284 0.225832
C5    C     C_R   0.223311 0.726731 0.059658 -0.033024
C6    C     C_R   0.229038 0.277815 0.549181 0.045854
C7    C     C_R   0.723636 0.226503 0.060312 -0.032428
C8    C     C_R   0.729000 0.777778 0.549171 0.045948
C9    C     C_R   0.206976 0.678629 0.154583 0.368360
C10   C     C_R   0.216908 0.329436 0.639450 0.328005
C11   C     C_R   0.707078 0.178830 0.156275 0.352984
C12   C     C_3   0.984892 0.855900 0.143468 0.615186
C13   C     C_R   0.716890 0.829421 0.639408 0.328073
C14   C     C_R   0.154184 0.636827 0.087357 0.076128
C15   C     C_R   0.156714 0.363227 0.585921 0.096439
C16   C     C_R   0.653765 0.137463 0.090145 0.104690
C17   C     C_R   0.656742 0.863267 0.585790 0.093816
C18   C     C_R   0.837025 0.256723 0.260020 0.329871
C19   C     C_R   0.810627 0.729159 0.792805 0.353989
C20   C     C_R   0.336780 0.756792 0.259863 0.329367
C21   C     C_R   0.310667 0.229208 0.792770 0.353613
C22   C     C_R   0.880178 0.302360 0.342826 -0.022642
C23   C     C_3   0.504042 0.642334 0.637713 0.627289
C24   C     C_R   0.871377 0.697032 0.851372 -0.062053
C25   C     C_R   0.380011 0.802395 0.342695 -0.023083
C26   C     C_R   0.371390 0.197056 0.851351 -0.061540
C27   C     C_R   0.849531 0.362304 0.099605 0.046301
C28   C     C_R   0.849369 0.640442 0.595452 0.069746
C29   C     C_R   0.349476 0.862316 0.099457 0.046281
C30   C     C_R   0.349358 0.140451 0.595424 0.069908
C31   C     C_R   0.801517 0.318198 0.025280 0.268635
C32   C     C_R   0.790511 0.675068 0.536990 0.374633
C33   C     C_R   0.301368 0.818288 0.025100 0.269461
C34   C     C_3   0.484530 0.355995 0.144125 0.614951
C35   C     C_R   0.290539 0.175112 0.536922 0.374710
C36   C     C_R   0.786703 0.268437 0.116202 -0.032237
C37   C     C_R   0.778667 0.728053 0.624409 -0.034304
C38   C     C_R   0.286470 0.768555 0.115953 -0.032664
C39   C     C_R   0.278712 0.228099 0.624370 -0.033462
C40   C     C_3   0.999572 0.229460 0.097416 0.919792
C41   C     C_3   0.989183 0.771750 0.605896 0.902273
C42   C     C_3   0.499478 0.729442 0.097082 0.919817
C43   C     C_3   0.489949 0.271454 0.607634 0.905831
C44   C     C_R   0.887046 0.353905 0.259061 -0.247007
C45   C     C_R   0.130633 0.690370 0.835126 0.003643
C46   C     C_R   0.893948 0.658257 0.742965 -0.238065
C47   C     C_R   0.386983 0.853894 0.258894 -0.247213
C48   C     C_R   0.393906 0.158236 0.742971 -0.239035
C49   C     C_3   0.986311 0.161733 0.104457 0.566247
C50   C     C_3   0.970868 0.838939 0.610020 0.578808
C51   C     C_3   0.486224 0.661709 0.104101 0.565944
C52   C     C_3   0.471830 0.338677 0.612294 0.577442
C53   C     C_3   0.204833 0.464171 0.237972 0.543681
C54   C     C_3   0.207964 0.536088 0.745445 0.545016
C55   C     C_3   0.705269 0.964374 0.237716 0.540218
C56   C     C_R   0.139688 0.313715 0.321779 -0.124184
C57   C     C_3   0.707708 0.035945 0.741454 0.562344
C58   C     C_3   0.262636 0.435327 0.178346 0.301739
C59   C     C_3   0.262181 0.561266 0.669668 0.323712
C60   C     C_3   0.762964 0.935954 0.176795 0.303968
C61   C     C_3   0.763712 0.060762 0.670937 0.317573
C62   C     C_3   0.785597 0.521155 0.852438 0.475615
C63   C     C_3   0.780431 0.478208 0.354672 0.622508
C64   C     C_3   0.285579 0.021119 0.852319 0.475808
C65   C     C_3   0.280438 0.978222 0.354658 0.622790
C66   C     C_3   0.721607 0.559940 0.834564 0.992888
C67   C     C_R   0.631204 0.189445 0.835899 -0.029050
C68   C     C_3   0.706213 0.462263 0.274654 1.005039
C69   C     C_3   0.221521 0.059838 0.834125 0.992591
C70   C     C_3   0.206227 0.962242 0.274684 1.005021
C71   C     C_3   0.999666 0.208254 0.600547 0.590979
C72   C     C_3   0.982008 0.789529 0.104736 0.608916
C73   C     C_3   0.499633 0.708386 0.600190 0.590978
C74   C     C_3   0.481962 0.289621 0.105499 0.609576
C75   C     C_R   0.117658 0.643227 0.925636 0.117251
C76   C     C_R   0.115972 0.351173 0.430254 0.176654
C77   C     C_R   0.616998 0.143503 0.929484 0.126825
C78   C     C_R   0.639669 0.813694 0.321704 -0.122678
C79   C     C_R   0.616027 0.851255 0.430075 0.176231
C80   C     C_R   0.174743 0.735769 0.909290 0.208905
Cl1   Cl    Cl    0.080790 0.241251 0.675280 -0.694364
Cl2   Cl    Cl    0.816546 0.420868 0.482191 -0.715440
Cl3   Cl    Cl    0.357208 0.065505 0.925672 -0.734384
Cl4   Cl    Cl    0.316605 0.920907 0.482205 -0.715807
Cl5   Cl    Cl    0.054245 0.104322 0.523569 -0.553876
Cl6   Cl    Cl    0.039857 0.891088 0.040085 -0.596660
Cl7   Cl    Cl    0.554707 0.604686 0.523451 -0.555138
Cl8   Cl    Cl    0.539487 0.391378 0.041069 -0.597441
Cl9   Cl    Cl    0.240319 0.675358 0.365564 -0.586105
Cl10  Cl    Cl    0.285964 0.363590 0.779102 -0.568185
Cl11  Cl    Cl    0.740809 0.175489 0.367097 -0.587454
Cl12  Cl    Cl    0.064786 0.758496 0.170911 -0.684315
Cl13  Cl    Cl    0.785922 0.863514 0.779269 -0.569165
Cl14  Cl    Cl    0.921479 0.134143 0.939248 -0.532803
Cl15  Cl    Cl    0.903692 0.860104 0.444453 -0.543505
Cl16  Cl    Cl    0.421466 0.634075 0.938754 -0.531241
Cl17  Cl    Cl    0.404373 0.360024 0.447574 -0.541478
Cl18  Cl    Cl    0.060708 0.118066 0.119381 -0.474921
Cl19  Cl    Cl    0.041610 0.886516 0.622801 -0.438562
Cl20  Cl    Cl    0.560652 0.618066 0.119212 -0.475023
Cl21  Cl    Cl    0.542580 0.386162 0.624190 -0.438593
Cl22  Cl    Cl    0.580641 0.741605 0.674801 -0.694873
Cl23  Cl    Cl    0.564820 0.258841 0.172659 -0.682341
Cl24  Cl    Cl    0.339862 0.475151 0.256694 -0.444701
Cl25  Cl    Cl    0.340201 0.521878 0.731548 -0.426223
Cl26  Cl    Cl    0.840098 0.975988 0.254439 -0.445050
Cl27  Cl    Cl    0.841075 0.020740 0.737710 -0.426558
Cl28  Cl    Cl    0.857299 0.565480 0.925608 -0.735833
H1    H     H_    0.268987 0.388288 0.214007 0.098353
H2    H     H_    0.808468 0.484407 0.260960 -0.080401
H3    H     H_    0.286129 0.000953 0.733005 0.074773
H4    H     H_    0.308457 0.984430 0.260910 -0.080062
H5    H     H_    0.983074 0.210033 0.469265 -0.029578
H6    H     H_    0.961278 0.786923 0.973352 -0.008784
H7    H     H_    0.482949 0.710105 0.468909 -0.029044
H8    H     H_    0.461513 0.286958 0.974011 -0.010344
H9    H     H_    0.027181 0.136379 0.769118 0.145735
H10   H     H_    0.004853 0.863963 0.275638 0.136951
H11   H     H_    0.527408 0.636580 0.768896 0.145644
H12   H     H_    0.270592 0.608970 0.702884 0.089752
H13   H     H_    0.504363 0.364111 0.276305 0.137807
H14   H     H_    0.968190 0.152759 0.213834 0.104068
H15   H     H_    0.951955 0.848987 0.719143 0.096458
H16   H     H_    0.468052 0.652737 0.213410 0.103730
H17   H     H_    0.453236 0.348726 0.721855 0.096059
H18   H     H_    0.920798 0.388590 0.320217 0.124399
H19   H     H_    0.939643 0.633096 0.787271 0.166664
H20   H     H_    0.420801 0.888539 0.320032 0.124287
H21   H     H_    0.439524 0.133015 0.787280 0.166737
H22   H     H_    0.156522 0.449718 0.155061 -0.015031
H23   H     H_    0.769605 0.888855 0.211739 0.100175
H24   H     H_    0.158038 0.550758 0.672523 -0.029800
H25   H     H_    0.656887 0.949886 0.155155 -0.015370
H26   H     H_    0.658733 0.049913 0.662808 -0.042596
H27   H     H_    0.658493 0.500981 0.713617 0.369252
H28   H     H_    0.629344 0.498115 0.125392 0.405591
H29   H     H_    0.158512 0.000775 0.713324 0.369341
H30   H     H_    0.129270 0.998085 0.125709 0.405580
H31   H     H_    0.684338 0.627865 0.705849 0.376167
H32   H     H_    0.711801 0.377258 0.229789 0.314813
H33   H     H_    0.184084 0.127598 0.704905 0.376240
H34   H     H_    0.772307 0.108368 0.705219 0.091663
H35   H     H_    0.211892 0.877236 0.229976 0.314240
H36   H     H_    0.742612 0.574850 0.069593 0.357404
H37   H     H_    0.626458 0.436509 0.340841 0.366559
H38   H     H_    0.242361 0.074884 0.069076 0.357538
H39   H     H_    0.126564 0.936256 0.340919 0.366114
H40   H     H_    0.875017 0.195175 0.406978 0.352347
H41   H     H_    0.807247 0.765032 0.001260 0.355635
H42   H     H_    0.374782 0.695231 0.406842 0.352294
H43   H     H_    0.307307 0.265093 0.001233 0.355420
H44   H     H_    0.168183 0.820182 0.935804 0.384711
H45   H     H_    0.251278 0.436659 0.044731 0.098404
H46   H     H_    0.198263 0.241184 0.170829 0.369684
H47   H     H_    0.668240 0.319402 0.933976 0.382965
H48   H     H_    0.698091 0.740967 0.170939 0.369550
H49   H     H_    0.777458 0.278820 0.816982 0.348861
H50   H     H_    0.696999 0.664208 0.422240 0.356081
H51   H     H_    0.276783 0.779039 0.816601 0.348089
H52   H     H_    0.197033 0.164282 0.422094 0.355786
H53   H     H_    0.088172 0.566471 0.840725 0.303878
H54   H     H_    0.068309 0.415702 0.317029 0.295797
H55   H     H_    0.579458 0.079959 0.784894 0.297847
H56   H     H_    0.245735 0.557170 0.536566 0.091934
H57   H     H_    0.568561 0.915861 0.316852 0.294360
H58   H     H_    0.944676 0.075255 0.625613 0.413212
H59   H     H_    0.925384 0.923309 0.097892 0.410733
H60   H     H_    0.445268 0.575167 0.624886 0.413816
H61   H     H_    0.424725 0.423199 0.097597 0.410082
H62   H     H_    0.904856 0.249317 0.022826 0.280540
H63   H     H_    0.895602 0.747530 0.530937 0.278041
H64   H     H_    0.404759 0.749317 0.022524 0.280654
H65   H     H_    0.396357 0.247287 0.531941 0.277838
H66   H     H_    0.046481 0.237407 0.322590 0.262569
H67   H     H_    0.751260 0.937533 0.043216 0.098324
H68   H     H_    0.035153 0.771629 0.832340 0.299192
H69   H     H_    0.546377 0.737411 0.322247 0.262610
H70   H     H_    0.535743 0.270817 0.834200 0.298844
H71   H     H_    0.252124 0.453205 0.463707 0.364399
H72   H     H_    0.263010 0.544719 0.967155 0.372412
H73   H     H_    0.753006 0.953236 0.463114 0.364063
H74   H     H_    0.759045 0.046613 0.965681 0.364335
H75   H     H_    0.748780 0.057063 0.537495 0.092333
H76   H     H_    0.786046 0.501003 0.733043 0.074708
O1    O     O_2   0.866180 0.413660 0.823810 -0.365884
O2    O     O_3   0.049785 0.763489 0.556755 -0.496215
O3    O     O_3   0.559428 0.738871 0.047180 -0.539769
O4    O     O_3   0.550664 0.263164 0.559034 -0.490497
O5    O     O_3   0.077880 0.530130 0.092320 -0.493539
O6    O     O_3   0.077880 0.469870 0.592320 -0.494641
O7    O     O_3   0.577880 0.030130 0.092320 -0.465973
O8    O     O_3   0.577880 0.969870 0.592320 -0.498029
O9    O     O_3   0.922050 0.469730 0.097400 -0.463421
O10   O     O_3   0.922050 0.530270 0.597400 -0.472139
O11   O     O_3   0.422050 0.969730 0.097400 -0.463742
O12   O     O_2   0.866180 0.586340 0.323810 -0.421317
O13   O     O_3   0.422050 0.030270 0.597400 -0.475577
O14   O     O_3   0.976760 0.360270 0.628090 -0.403190
O15   O     O_3   0.976760 0.639730 0.128090 -0.398596
O16   O     O_3   0.476760 0.860270 0.628090 -0.402896
O17   O     O_3   0.476760 0.139730 0.128090 -0.394794
O18   O     O_2   0.863088 0.316632 0.650482 -0.346974
O19   O     O_2   0.856485 0.673418 0.154793 -0.349930
O20   O     O_2   0.363036 0.816651 0.650565 -0.347271
O21   O     O_2   0.356444 0.173336 0.154527 -0.350419
O22   O     O_3   0.785597 0.476703 0.962686 -0.621481
O23   O     O_2   0.366180 0.913660 0.823810 -0.365710
O24   O     O_3   0.781936 0.528713 0.452671 -0.578846
O25   O     O_3   0.285583 0.976690 0.962628 -0.621484
O26   O     O_3   0.281928 0.028729 0.452627 -0.578357
O27   O     O_3   0.952542 0.236676 0.671582 -0.542077
O28   O     O_3   0.938137 0.760594 0.180197 -0.547089
O29   O     O_3   0.452426 0.736666 0.671216 -0.542050
O30   O     O_3   0.437998 0.260572 0.180476 -0.547247
O31   O     O_2   0.133470 0.412980 0.865660 -0.484780
O32   O     O_2   0.133470 0.587020 0.365660 -0.464286
O33   O     O_2   0.633470 0.912980 0.865660 -0.480544
O34   O     O_2   0.366180 0.086340 0.323810 -0.420877
O35   O     O_2   0.633470 0.087020 0.365660 -0.470883
O36   O     O_3   0.022720 0.360150 0.061220 -0.430006
O37   O     O_3   0.022720 0.639850 0.561220 -0.424529
O38   O     O_3   0.522720 0.860150 0.061220 -0.429802
O39   O     O_3   0.522720 0.139850 0.561220 -0.452803
O40   O     O_2   0.137779 0.320202 0.992524 -0.414296
O41   O     O_2   0.134826 0.683580 0.511610 -0.387481
O42   O     O_2   0.637770 0.820194 0.992497 -0.414365
O43   O     O_2   0.635075 0.183127 0.512297 -0.384031
O44   O     O_3   0.664263 0.524022 0.817006 -0.592897
O45   O     O_3   0.215076 0.474481 0.751068 -0.566661
O46   O     O_3   0.674583 0.511238 0.189398 -0.626781
O47   O     O_3   0.164228 0.023859 0.816626 -0.592589
O48   O     O_3   0.174566 0.011185 0.189330 -0.626745
O49   O     O_3   0.714226 0.593982 0.695765 -0.725318
O50   O     O_3   0.703512 0.413817 0.165595 -0.725251
O51   O     O_3   0.214135 0.093799 0.695173 -0.725198
O52   O     O_3   0.203556 0.913779 0.165708 -0.725724
O53   O     O_3   0.727059 0.598301 0.970602 -0.615364
O54   O     O_3   0.673167 0.448720 0.396055 -0.650427
O55   O     O_3   0.226865 0.098276 0.969963 -0.615362
O56   O     O_3   0.214513 0.525509 0.243347 -0.574864
O57   O     O_3   0.173187 0.948712 0.396113 -0.650928
O58   O     O_3   0.855268 0.198646 0.289776 -0.666882
O59   O     O_3   0.775426 0.753341 0.897688 -0.632707
O60   O     O_3   0.354983 0.698706 0.289647 -0.666560
O61   O     O_3   0.275483 0.253424 0.897646 -0.632760
O62   O     O_3   0.160633 0.790928 0.844337 -0.635516
O63   O     O_3   0.230507 0.250016 0.275753 -0.650898
O64   O     O_3   0.661248 0.289945 0.843042 -0.634296
O65   O     O_3   0.730407 0.749909 0.275723 -0.650667
O66   O     O_3   0.779140 0.320195 0.859535 -0.609064
O67   O     O_3   0.715041 0.974463 0.751041 -0.566304
O68   O     O_3   0.741772 0.651160 0.409482 -0.601404
O69   O     O_3   0.278808 0.820397 0.859387 -0.609409
O70   O     O_3   0.241807 0.151233 0.409350 -0.601430
O71   O     O_3   0.066538 0.604729 0.855597 -0.717778
O72   O     O_3   0.056944 0.382003 0.377728 -0.707714
O73   O     O_3   0.564928 0.105097 0.866488 -0.711912
O74   O     O_3   0.557075 0.882178 0.377427 -0.708010
O75   O     O_3   0.938998 0.117478 0.596058 -0.636348
O76   O     O_3   0.919923 0.879723 0.091673 -0.625098
O77   O     O_3   0.439365 0.617412 0.595675 -0.634716
O78   O     O_3   0.714688 0.025764 0.243905 -0.580670
O79   O     O_3   0.419461 0.379595 0.092043 -0.626092
O80   O     O_3   0.946246 0.256945 0.987066 -0.641386
O81   O     O_3   0.937817 0.739940 0.497188 -0.654927
O82   O     O_3   0.446149 0.756918 0.986714 -0.641280
O83   O     O_3   0.438604 0.239873 0.498176 -0.653123
O84   O     O_3   0.004738 0.254342 0.252269 -0.810721
O85   O     O_3   0.996136 0.750253 0.761640 -0.841768
O86   O     O_3   0.504622 0.754325 0.251920 -0.810811
O87   O     O_3   0.496609 0.249725 0.763053 -0.841389
O88   O     O_3   0.206317 0.445328 0.393642 -0.836104
O89   O     O_3   0.059505 0.238879 0.047454 -0.539417
O90   O     O_3   0.218294 0.558733 0.903981 -0.832263
O91   O     O_3   0.707206 0.945112 0.393292 -0.836450
O92   O     O_3   0.714733 0.059644 0.897826 -0.832155
P1    P     P_3+3 0.859590 0.433890 0.993820 1.161283
P2    P     P_3+3 0.085267 0.693945 0.617704 1.227842
P3    P     P_3+3 0.591019 0.810381 0.105734 1.134330
P4    P     P_3+3 0.585678 0.193367 0.618819 1.207032
P5    P     P_3+3 0.912340 0.693252 0.074944 1.170990
P6    P     P_3+3 0.920107 0.301317 0.567220 1.170959
P7    P     P_3+3 0.412339 0.193256 0.074926 1.172928
P8    P     P_3+3 0.420008 0.801361 0.567118 1.170763
P9    P     P_3+3 0.859590 0.566110 0.493820 1.133423
P10   P     P_3+3 0.359590 0.933890 0.993820 1.161589
P11   P     P_3+3 0.359590 0.066110 0.493820 1.131259
P12   P     P_3+3 0.140130 0.433190 0.695710 1.106223
P13   P     P_3+3 0.140130 0.566810 0.195710 1.114757
P14   P     P_3+3 0.640130 0.933190 0.695710 1.114373
P15   P     P_3+3 0.640130 0.066810 0.195710 1.132851
P16   P     P_3+3 0.091047 0.310410 0.105819 1.134020

loop_
_geom_bond_atom_site_label_1
_geom_bond_atom_site_label_2
_ccdc_geom_bond_type
C26   P7    S    
Ba4   O7    S    
H28   O46   S    
C61   H75   S    
C65   H4    S    
C12   Cl6   S    
C15   P12   S    
O21   P7    D    
O11   P10   S    
C55   O91   S    
Ba2   O9    S    
C20   C38   A    
C5    C80   A    
C45   P2    S    
C74   H8    S    
Ba1   O10   S    
C71   H5    S    
Ba4   P15   S    
C42   O3    S    
C54   O45   S    
O39   P4    S    
C21   C39   A    
C64   Cl3   S    
C59   H12   S    
H43   O61   S    
H64   O82   S    
C53   C58   S    
C40   O80   S    
C23   O77   S    
H35   O52   S    
C41   O81   S    
Ba3   P10   S    
C55   C60   S    
C42   O86   S    
C2    O63   S    
O17   P7    S    
Ba1   O36   S    
C4    C78   A    
C67   P4    S    
C28   C32   A    
Ba2   P9    S    
C73   Cl22  S    
C27   P1    S    
O23   P10   D    
C33   O69   S    
H47   O64   S    
Ba1   Ba2   S    
C53   O56   S    
H52   O70   S    
C66   O53   S    
C11   Cl11  S    
H44   O62   S    
O56   P13   S    
O20   P8    D    
C58   Cl24  S    
C55   H25   S    
H72   O90   S    
O10   P9    S    
C34   Cl8   S    
C4    O65   S    
C21   C26   A    
Ba4   O8    S    
C63   C68   S    
H55   O73   S    
Ba4   O39   S    
C43   O83   S    
C43   O4    S    
C12   H10   S    
C20   C25   A    
C61   Cl27  S    
C5    C9    A    
C29   P10   S    
O38   P3    S    
C21   O61   S    
O32   P13   D    
C71   Cl1   S    
Ba4   O11   S    
C56   C76   A    
C54   O90   S    
C63   O24   S    
H74   O92   S    
H37   O54   S    
C63   Cl2   S    
O1    P1    D    
C42   C51   S    
C31   O66   S    
O12   P9    D    
O36   P16   S    
Ba3   O7    S    
C23   Cl7   S    
H27   O44   S    
C76   O72   S    
C66   O49   S    
C56   P16   S    
C1    C71   S    
C62   O22   S    
C62   H76   S    
H63   O81   S    
H40   O58   S    
C52   H17   S    
C22   C44   A    
C40   O84   S    
C28   P9    S    
O15   P5    S    
H30   O48   S    
C72   Cl12  S    
C60   H23   S    
C42   O82   S    
O9    P1    S    
C16   C77   A    
Ba2   O32   S    
C48   H21   S    
Ba2   P13   S    
C44   H18   S    
C32   C37   A    
C15   C76   A    
C7    C11   A    
O67   P14   S    
C70   O52   S    
Ba1   O14   S    
C40   C49   S    
H49   O66   S    
H66   O84   S    
C3    C7    A    
C50   Cl19  S    
Ba3   O23   S    
C11   C16   A    
C52   Cl21  S    
C78   P3    S    
C58   H45   S    
H73   O91   S    
Ba2   O15   S    
C80   O62   S    
C30   C35   A    
O78   P15   S    
C68   O54   S    
O43   P4    D    
Ba4   O17   S    
C57   H26   S    
H46   O63   S    
C58   H1    S    
H50   O68   S    
C6    C10   A    
H59   O76   S    
C18   O58   S    
C70   O57   S    
C23   H11   S    
C77   O73   S    
C14   C75   A    
C35   C39   A    
O26   P11   S    
C34   C74   S    
C54   H24   S    
C64   C69   S    
C19   C24   A    
O34   P11   D    
C57   O67   S    
C13   C17   A    
C41   O2    S    
O2    P2    S    
Ba1   P12   S    
C9    Cl9   S    
H58   O75   S    
Ba2   O6    S    
H54   O72   S    
H48   O65   S    
C8    C13   A    
Ba1   O5    S    
C34   O79   S    
O42   P3    D    
O19   P5    D    
H68   O85   S    
O30   P7    S    
C35   O70   S    
C2    C56   A    
C72   O28   S    
C43   O87   S    
C60   Cl26  S    
C40   O89   S    
C69   O55   S    
C49   Cl18  S    
H29   O47   S    
C18   C36   A    
C33   C38   A    
C5    C38   S    
O45   P12   S    
H32   O50   S    
C65   C70   S    
Ba1   O31   S    
C32   O68   S    
O37   P2    S    
C64   O25   S    
C43   C52   S    
Ba3   O38   S    
C28   C46   A    
O31   P12   D    
C65   Cl4   S    
C9    C14   A    
H38   O55   S    
H33   O51   S    
C14   P13   S    
C72   H6    S    
O33   P14   D    
C25   P8    S    
C27   C44   A    
C59   H56   S    
H36   O53   S    
Ba3   O13   S    
C57   O92   S    
Ba2   O12   S    
C50   Cl15  S    
C20   O60   S    
C70   O48   S    
Ba3   Ba4   S    
O5    P13   S    
H61   O79   S    
C34   H13   S    
C45   C75   A    
C45   C80   A    
C8    C37   S    
H62   O80   S    
C30   P11   S    
C25   C47   A    
C53   O88   S    
O7    P15   S    
C54   C59   S    
C60   H67   S    
C69   O51   S    
O4    P4    S    
H60   O77   S    
O16   P8    S    
C1    H9    S    
C63   H2    S    
C55   O78   S    
C6    C39   S    
C12   C72   S    
O22   P1    S    
C10   C15   A    
O18   P6    D    
C17   P14   S    
Ba3   P14   S    
H42   O60   S    
C73   H7    S    
C41   C50   S    
C2    C6    A    
C62   Cl28  S    
H69   O86   S    
C47   H20   S    
C22   P6    S    
C52   Cl17  S    
C51   Cl16  S    
C67   C77   A    
C49   Cl14  S    
C29   C47   A    
Ba4   O35   S    
C23   C73   S    
H51   O69   S    
C30   C48   A    
Ba3   O8    S    
C19   C37   A    
O27   P6    S    
Ba3   O33   S    
C3    O64   S    
O40   P16   D    
Ba2   O5    S    
C75   O71   S    
Ba1   P1    S    
C24   C46   A    
O28   P5    S    
Ba1   O6    S    
Ba4   P11   S    
H65   O83   S    
C24   P5    S    
C74   O30   S    
C3    C67   A    
O25   P10   S    
C73   O29   S    
H71   O88   S    
C62   C66   S    
O89   P16   S    
C26   C48   A    
O41   P2    D    
C51   Cl20  S    
C41   O85   S    
H41   O59   S    
C71   O27   S    
H57   O74   S    
O35   P15   D    
C68   O46   S    
C29   C33   A    
C31   C36   A    
C27   C31   A    
O29   P8    S    
C57   C61   S    
C19   O59   S    
C7    C36   S    
C53   H22   S    
C66   O44   S    
C59   Cl25  S    
C69   O47   S    
C46   H19   S    
O14   P6    S    
C64   H3    S    
O3    P3    S    
C12   O76   S    
H39   O57   S    
H53   O71   S    
H31   O49   S    
C51   H16   S    
Ba2   O37   S    
Ba3   O16   S    
O13   P11   S    
C78   C79   A    
C18   C22   A    
C17   C79   A    
C1    O75   S    
C16   P15   S    
Ba4   O34   S    
C74   Cl23  S    
C79   O74   S    
C50   H15   S    
C49   H14   S    
C61   H34   S    
O6    P12   S    
C13   Cl13  S    
C10   Cl10  S    
C1    Cl5   S    
O24   P9    S    
C4    C8    A    
C68   O50   S    
Ba1   O1    S    
H70   O87   S    
C65   O26   S    
O8    P14   S    
