data_mof_unit_67107.cif
_audit_creation_date              2013-03-05T15:58:39-0500
_audit_creation_method            fapswitch 2.2
_symmetry_space_group_name_H-M    P1
_symmetry_Int_Tables_number       1
_space_group_crystal_system       triclinic
_cell_length_a                    8.222815
_cell_length_b                    12.972296
_cell_length_c                    14.921746
_cell_angle_alpha                 97.598525
_cell_angle_beta                  97.098849
_cell_angle_gamma                 99.378226
_cell_volume                      1539.38522778

loop_
_atom_site_label
_atom_site_type_symbol
_atom_site_description
_atom_site_fract_x
_atom_site_fract_y
_atom_site_fract_z
_atom_type_partial_charge
P1    P     P_3+3 0.998770 0.403620 0.291990 0.540508
O1    O     O_2   0.827930 0.435360 0.277760 -0.329037
O2    O     O_3   0.100310 0.439010 0.391180 -0.402197
O3    O     O_3   0.625610 0.634200 0.333270 -0.341307
O4    O     O_2   0.711105 0.573034 0.171909 -0.341187
O5    O     O_3   0.936945 0.267015 0.268775 -0.557806
O6    O     O_3   0.633251 0.760717 0.199583 -0.504224
H1    H     H_    0.657115 0.853803 0.324685 0.092111
C1    C     C_3   0.504209 0.913704 0.222770 -0.174947
H2    H     H_    0.393534 0.933567 0.251822 0.150628
H3    H     H_    0.604686 0.982092 0.244511 0.130689
P2    P     P_3+3 0.687370 0.751000 0.571300 0.485709
P3    P     P_3+3 0.104523 0.825817 0.377931 0.440924
O7    O     O_2   0.857120 0.766320 0.543890 -0.410847
O8    O     O_3   0.056570 0.691100 0.379020 -0.414570
O9    O     O_2   0.979977 0.877210 0.430485 -0.399922
O10   O     O_3   0.727616 0.780082 0.690611 -0.503621
O11   O     O_3   0.053048 0.845583 0.264897 -0.468025
C2    C     C_3   0.073966 0.756320 0.205811 0.451765
H4    H     H_    0.000978 0.682394 0.220203 0.126437
H5    H     H_    0.206482 0.750195 0.210350 -0.011351
C3    C     C_3   0.011144 0.765252 0.108218 -0.713462
H6    H     H_    0.034184 0.697307 0.061332 0.183880
H7    H     H_    0.875466 0.764379 0.101512 0.303179
C4    C     C_3   0.258852 0.774983 0.648956 0.418436
H8    H     H_    0.373120 0.755518 0.625012 0.100244
H9    H     H_    0.150699 0.742155 0.595103 0.116548
C5    C     C_3   0.269456 0.894394 0.665295 -0.872760
H10   H     H_    0.399858 0.934158 0.690437 0.273307
H11   H     H_    0.228839 0.922149 0.600512 0.233328
H12   H     H_    0.186706 0.917061 0.715171 0.261265
Ba1   Ba    Ba6+2 0.843760 0.550230 0.455610 1.625988
C6    C     C_3   0.036016 0.218810 0.326598 0.220438
H13   H     H_    0.019266 0.241621 0.398957 0.042287
H14   H     H_    0.167462 0.240539 0.317395 0.190701
C7    C     C_3   0.981987 0.099946 0.301015 0.227927
H15   H     H_    0.852017 0.077505 0.313589 -0.013687
H16   H     H_    0.059955 0.059775 0.345577 0.069747
C8    C     C_3   0.831047 0.713721 0.723949 0.390666
H17   H     H_    0.934816 0.709427 0.684714 0.061856
H18   H     H_    0.758194 0.632798 0.719712 0.080683
C9    C     C_3   0.906944 0.759197 0.822145 -0.288286
H19   H     H_    0.940923 0.846698 0.830669 0.205693
H20   H     H_    0.020980 0.727969 0.842621 0.132491
P4    P     P_3+3 0.190950 0.596470 0.708020 0.451853
O12   O     O_2   0.361790 0.564680 0.722290 -0.324169
O13   O     O_3   0.089410 0.561080 0.608830 -0.435833
O14   O     O_3   0.564100 0.365890 0.666740 -0.349694
O15   O     O_3   0.242985 0.735003 0.730831 -0.552311
P5    P     P_3+3 0.091661 0.172247 0.621301 0.470553
O16   O     O_3   0.601940 0.368260 0.453780 -0.342378
O17   O     O_3   0.133140 0.308990 0.620990 -0.381971
O18   O     O_2   0.219648 0.123440 0.569762 -0.376770
O19   O     O_3   0.142251 0.150699 0.733809 -0.510329
Ba2   Ba    Ba6+2 0.346080 0.449860 0.544400 1.624538
P6    P     P_3+3 0.581730 0.629666 0.215696 0.552311
C10   C     C_3   0.561939 0.822308 0.263396 0.362279
H21   H     H_    0.453075 0.778046 0.287549 -0.042123
O20   O     O_3   0.587770 0.631830 0.546230 -0.380907
C11   C     C_3   0.552530 0.236411 0.254111 0.937841
H22   H     H_    0.672146 0.273690 0.294816 0.043531
C12   C     C_3   0.582521 0.164971 0.170409 -0.842925
H23   H     H_    0.463912 0.114719 0.135372 0.281714
H24   H     H_    0.637969 0.211523 0.120864 0.256649
H25   H     H_    0.675721 0.117521 0.189789 0.254682
P7    P     P_3+3 0.508272 0.230867 0.425247 0.436154
O21   O     O_2   0.332600 0.233710 0.456170 -0.376940
O22   O     O_3   0.451360 0.180545 0.307300 -0.632745
H26   H     H_    0.074489 0.839074 0.088593 0.292384
C13   C     C_3   0.079511 0.224115 0.791811 0.513219
H27   H     H_    0.148313 0.305611 0.792730 0.118891
H28   H     H_    0.944174 0.220396 0.769814 0.001162
C14   C     C_3   0.103595 0.198769 0.888668 -0.952407
H29   H     H_    0.045716 0.252335 0.934129 0.226590
H30   H     H_    0.044569 0.115663 0.889392 0.285062
H31   H     H_    0.238465 0.209620 0.915233 0.260348
P8    P     P_3+3 0.602921 0.381620 0.785826 0.488438
C15   C     C_3   0.608027 0.193595 0.821343 0.127499
H32   H     H_    0.729245 0.225201 0.865885 0.071622
O23   O     O_2   0.506785 0.466475 0.822357 -0.349446
O24   O     O_3   0.504398 0.269096 0.823293 -0.528200
H33   H     H_    0.627575 0.168390 0.749782 0.114349
C16   C     C_3   0.522155 0.098823 0.858736 0.175624
H34   H     H_    0.398684 0.067321 0.816846 0.126170
H35   H     H_    0.502039 0.123794 0.930067 0.107752
C17   C     C_R   0.358371 0.571723 0.170840 0.250196
H36   H     H_    0.303176 0.559299 0.306624 0.172202
H37   H     H_    0.500637 0.651440 0.036527 0.201994
C18   C     C_R   0.104486 0.470973 0.205940 0.361757
C19   C     C_R   0.922461 0.472622 0.765504 -0.475687
C20   C     C_R   0.824185 0.431885 0.826814 0.233072
C21   C     C_R   0.887828 0.440856 0.919012 -0.311930
C22   C     C_R   0.053462 0.491491 0.952587 0.083241
C23   C     C_R   0.148467 0.541236 0.890347 -0.032024
C24   C     C_R   0.124208 0.499447 0.047028 0.018242
C25   C     C_R   0.288810 0.557844 0.077363 -0.048434
C26   C     C_R   0.377214 0.605549 0.014922 -0.118548
C27   C     C_R   0.306228 0.600834 0.924671 -0.056724
C28   C     C_R   0.038204 0.450992 0.112532 -0.238153
C29   C     C_R   0.256423 0.539492 0.234294 -0.394134
C30   C     C_R   0.081695 0.531314 0.795572 0.191462
H38   H     H_    0.920319 0.397601 0.093348 0.168478
H39   H     H_    0.869812 0.464873 0.694300 0.168897
H40   H     H_    0.803546 0.410240 0.963029 0.161781
H41   H     H_    0.376372 0.645645 0.882008 0.215266
C31   C     C_R   0.776602 0.177651 0.530974 -0.485820
C32   C     C_R   0.419823 0.810589 0.466350 -0.526009
C33   C     C_R   0.387051 0.985337 0.437030 -0.233592
C34   C     C_R   0.321898 0.878389 0.430651 0.193227
C35   C     C_R   0.580157 0.848912 0.514819 0.270855
C36   C     C_R   0.647478 0.959926 0.522760 -0.049605
C37   C     C_R   0.549006 0.028201 0.481780 -0.034338
C38   C     C_R   0.614854 0.137911 0.486830 0.221189
C39   C     C_R   0.875315 0.112483 0.569649 0.187653
C40   C     C_R   0.810335 0.004980 0.567875 -0.121917
H42   H     H_    0.309384 0.034325 0.406615 0.184463
H43   H     H_    0.889109 0.957766 0.600730 0.177252
H44   H     H_    0.828461 0.260241 0.532585 0.164519
H45   H     H_    0.367766 0.727267 0.459450 0.165844
S1    S     S_3+6 0.998136 0.056674 0.183793 0.022420
O25   O     O_2   0.168112 0.030271 0.178733 -0.301062
O26   O     O_2   0.867606 0.960130 0.148399 -0.225804
O27   O     O_3   0.968735 0.149445 0.117652 -0.458853
H46   H     H_    0.037851 0.138233 0.068663 0.383390
I1    I     I_    0.735665 0.713164 0.909759 -0.294246
I2    I     I_    0.442874 0.885076 0.076186 -0.233863
S2    S     S_3+6 0.450728 0.333750 0.214226 -0.041124
O28   O     O_2   0.270935 0.288245 0.179780 -0.353897
O29   O     O_2   0.466615 0.418279 0.294923 -0.286614
O30   O     O_3   0.539749 0.381484 0.128973 -0.548264
H47   H     H_    0.463645 0.348697 0.071953 0.346048
S3    S     S_3+6 0.643242 0.996852 0.858552 -0.041790
O31   O     O_2   0.527925 0.892627 0.850544 -0.204953
O32   O     O_2   0.740277 0.995507 0.779526 -0.350705
O33   O     O_3   0.774429 0.018291 0.957377 -0.470451
H48   H     H_    0.853233 0.968906 0.948440 0.382824

loop_
_geom_bond_atom_site_label_1
_geom_bond_atom_site_label_2
_geom_bond_distance
_ccdc_geom_bond_type
O14   Ba2   2.843664 S    
P7    O22   1.770784 S    
C11   S2    1.751991 S    
C22   C23   1.436226 A    
P2    Ba1   3.445017 S    
P7    C38   1.872165 S    
Ba2   O20   2.821933 S    
C14   H30   1.109866 S    
C14   H29   1.110149 S    
O4    P6    1.548519 D    
C24   C25   1.426341 A    
P2    C35   1.888151 S    
C39   C40   1.405303 A    
C19   C20   1.393080 A    
O33   H48   0.991031 S    
C8    H18   1.110398 S    
P4    O12   1.525424 D    
C4    C5    1.522310 S    
P5    O19   1.748992 S    
C27   H41   1.074790 S    
P3    O11   1.750155 S    
C31   C39   1.394075 A    
O1    Ba1   2.843561 S    
C5    H10   1.107127 S    
C2    H5    1.099838 S    
O11   C2    1.407175 S    
C24   C28   1.427956 A    
C23   C27   1.395385 A    
C6    C7    1.516510 S    
C33   C34   1.389644 A    
C11   C12   1.524514 S    
P1    O1    1.525103 D    
O10   C8    1.399703 S    
C35   C36   1.439876 A    
P3    C34   1.841786 S    
C9    I1    2.106386 S    
P2    O20   1.599762 S    
O2    Ba2   2.830431 S    
C15   C16   1.522248 S    
C19   C30   1.391025 A    
C36   C37   1.438261 A    
C23   C30   1.433501 A    
S3    O31   1.500960 D    
C40   H43   1.079467 S    
O12   Ba2   2.843969 S    
P5    O17   1.751677 S    
C13   H27   1.112301 S    
P4    O15   1.755021 S    
C17   C29   1.400248 A    
C1    H2    1.107665 S    
C3    H26   1.106093 S    
C12   H24   1.109400 S    
H37   C26   1.076935 S    
O17   Ba2   2.777685 S    
P7    O21   1.574325 D    
C22   C24   1.440260 A    
O3    P6    1.738086 S    
C32   C34   1.397993 A    
C9    H20   1.105639 S    
O6    P6    1.739520 S    
C32   H45   1.082143 S    
C37   C38   1.426441 A    
S1    O26   1.498784 D    
C26   C27   1.389372 A    
C8    C9    1.519822 S    
P4    O13   1.577497 S    
P5    O18   1.545414 D    
C13   H28   1.112000 S    
C31   C38   1.392421 A    
P1    O5    1.737594 S    
O27   H46   0.989963 S    
C2    C3    1.509698 S    
C1    C10   1.516865 S    
C20   C21   1.392824 A    
C15   H32   1.111022 S    
C18   C29   1.392094 A    
C4    H8    1.100322 S    
P1    Ba1   3.396155 S    
C33   C37   1.403295 A    
C11   H22   1.090804 S    
P1    O2    1.577496 S    
O16   P7    1.794987 S    
O14   P8    1.744655 S    
P2    O10   1.748559 S    
S2    O29   1.494875 D    
Ba1   O16   2.822540 S    
C12   H23   1.107304 S    
H1    C10   1.111694 S    
C15   H33   1.113623 S    
P6    C17   1.870673 S    
C16   H34   1.108552 S    
O19   C13   1.405257 S    
P8    O24   1.744125 S    
C25   C26   1.397433 A    
C13   C14   1.520629 S    
C6    H13   1.112606 S    
C17   C25   1.417037 A    
C1    H3    1.092551 S    
C11   O22   1.402147 S    
O3    Ba1   2.844318 S    
P4    C30   1.887563 S    
S3    O32   1.503034 D    
C16   H35   1.111302 S    
P2    O7    1.492415 D    
P3    O8    1.730417 S    
Ba1   O13   2.829832 S    
C3    H7    1.105815 S    
C9    H19   1.110119 S    
S2    O28   1.498620 D    
C8    H17   1.097392 S    
S1    O25   1.500593 D    
O13   Ba2   2.930427 S    
H36   C29   1.081950 S    
P8    O23   1.537907 D    
P8    C20   1.828218 S    
P1    C18   1.868899 S    
Ba1   Ba2   4.500847 S    
C12   H25   1.093556 S    
C5    H12   1.111675 S    
O7    Ba1   2.914184 S    
C18   C28   1.406267 A    
O8    Ba1   2.777072 S    
Ba2   O21   2.914474 S    
S1    O27   1.682489 S    
C4    H9    1.107899 S    
C1    I2    2.151280 S    
O5    C6    1.390730 S    
C32   C35   1.401443 A    
C33   H42   1.074513 S    
C2    H4    1.106671 S    
C5    H11   1.107736 S    
O30   H47   0.991156 S    
S2    O30   1.681754 S    
C16   S3    1.780487 S    
C15   O24   1.398862 S    
C10   H21   1.108093 S    
S3    O33   1.678147 S    
C7    H16   1.104485 S    
C21   C22   1.410741 A    
C6    H14   1.101899 S    
O16   Ba2   2.902712 S    
O2    Ba1   2.929600 S    
C7    S1    1.792854 S    
C4    O15   1.401259 S    
C19   H39   1.081798 S    
C21   H40   1.077603 S    
C28   H38   1.077710 S    
C14   H31   1.110205 S    
P4    Ba2   3.396701 S    
C7    H15   1.106673 S    
P3    O9    1.546283 D    
C3    H6    1.107406 S    
C36   C40   1.416380 A    
Ba1   O20   2.903613 S    
P5    C39   1.847551 S    
O6    C10   1.406551 S    
C31   H44   1.082602 S    
