data_mof_unit_59369.cif
_audit_creation_date              2012-12-11T15:53:43-0500
_audit_creation_method            fapswitch 2.2
_symmetry_space_group_name_H-M    P1
_symmetry_Int_Tables_number       1
_space_group_crystal_system       triclinic
_cell_length_a                    7.010506
_cell_length_b                    14.516369
_cell_length_c                    16.039528
_cell_angle_alpha                 90.842057
_cell_angle_beta                  90.663166
_cell_angle_gamma                 89.438228
_cell_volume                      1631.93474554

loop_
_atom_site_label
_atom_site_type_symbol
_atom_type_description
_atom_site_fract_x
_atom_site_fract_y
_atom_site_fract_z
_atom_type_partial_charge
O1    O     O_R   0.361600 0.167310 0.164620 -0.543725
O2    O     O_R   0.638400 0.832690 0.835380 -0.542561
O3    O     O_R   0.691080 0.157570 0.338750 -0.523786
O4    O     O_R   0.308920 0.842430 0.661250 -0.524925
O5    O     O_R   0.861410 0.336420 0.339360 -0.536615
O6    O     O_R   0.138590 0.663580 0.660640 -0.538169
C1    C     C_R   0.523855 0.134582 0.366696 0.696120
C2    C     C_R   0.476083 0.865469 0.633314 0.697826
O7    O     O_R   0.691320 0.156280 0.165240 -0.548382
O8    O     O_R   0.308680 0.843720 0.834760 -0.549992
O9    O     O_R   0.861640 0.335130 0.164600 -0.544754
O10   O     O_R   0.138360 0.664870 0.835400 -0.545999
C3    C     C_R   0.522233 0.133790 0.136407 0.673836
C4    C     C_R   0.477767 0.866216 0.863588 0.671174
O11   O     O_R   0.361370 0.168600 0.339370 -0.540138
O12   O     O_R   0.638630 0.831400 0.660630 -0.529826
O13   O     O_3   0.527990 0.310540 0.251980 -0.368475
O14   O     O_3   0.472010 0.689460 0.748020 -0.371932
V1    V     V_3+5 0.802830 0.240980 0.251990 1.467817
V2    V     V_3+5 0.197170 0.759020 0.748010 1.480275
O15   O     O_R   0.191360 0.346160 0.165220 -0.531678
O16   O     O_R   0.808640 0.653840 0.834780 -0.532990
C5    C     C_R   0.022372 0.366319 0.134984 0.714327
C6    C     C_R   0.977629 0.633675 0.865012 0.710360
O17   O     O_R   0.191130 0.347440 0.338740 -0.542352
O18   O     O_R   0.808870 0.652560 0.661260 -0.543995
C7    C     C_R   0.022305 0.369487 0.367418 0.691742
C8    C     C_R   0.977699 0.630494 0.632596 0.687010
V3    V     V_3+5 0.302840 0.262750 0.251990 1.462792
V4    V     V_3+5 0.697160 0.737250 0.748010 1.479472
O19   O     O_3   0.027820 0.193180 0.251990 -0.368246
O20   O     O_3   0.972180 0.806820 0.748010 -0.358279
C9    C     C_3   0.823771 0.472648 0.478447 -0.112331
C10   C     C_3   0.176236 0.527309 0.521583 -0.112779
C11   C     C_3   0.917183 0.461125 0.565735 -0.133310
C12   C     C_3   0.082824 0.538833 0.434296 -0.131134
H1    H     H_    0.848599 0.429477 0.620233 0.123998
H2    H     H_    0.151411 0.570479 0.379797 0.126847
H3    H     H_    0.677903 0.450044 0.460515 0.117985
H4    H     H_    0.322105 0.549912 0.539515 0.117366
C13   C     C_3   0.989085 0.560786 0.562219 -0.019500
C14   C     C_3   0.010922 0.439174 0.437810 -0.020307
C15   C     C_3   0.895813 0.573099 0.475703 -0.134939
C16   C     C_3   0.104193 0.426857 0.524326 -0.136442
H5    H     H_    0.809478 0.633709 0.456109 0.120393
H6    H     H_    0.190518 0.366243 0.543920 0.119857
C17   C     C_R   0.823852 0.522437 0.965507 0.037818
C18   C     C_R   0.176151 0.477543 0.034479 0.037865
C19   C     C_R   0.840911 0.455209 0.026741 -0.172883
C20   C     C_R   0.159093 0.544770 0.973244 -0.171480
H7    H     H_    0.720624 0.419558 0.045925 0.169645
H8    H     H_    0.279382 0.580415 0.954055 0.169657
C21   C     C_R   0.014015 0.433347 0.064458 -0.145213
C22   C     C_R   0.985987 0.566638 0.935531 -0.144096
C23   C     C_R   0.653338 0.993486 0.444231 0.010682
C24   C     C_R   0.345430 0.006259 0.555319 0.012390
C25   C     C_R   0.634618 0.929517 0.508510 -0.140682
C26   C     C_R   0.365572 0.070830 0.491671 -0.169760
H9    H     H_    0.739846 0.874604 0.514067 0.146282
H10   H     H_    0.260823 0.125971 0.486246 0.152163
C27   C     C_R   0.482792 0.934487 0.564966 -0.138539
C28   C     C_R   0.516913 0.065606 0.435025 -0.146192
C29   C     C_R   0.677611 0.025429 0.033046 -0.138515
C30   C     C_R   0.322388 0.974603 0.966929 -0.142429
H11   H     H_    0.816969 0.043949 0.057402 0.120189
H12   H     H_    0.183030 0.956088 0.942569 0.118862
C31   C     C_R   0.666637 0.961374 0.967126 -0.128696
C32   C     C_R   0.333362 0.038657 0.032851 -0.128506
H13   H     H_    0.798090 0.932395 0.942940 0.121087
H14   H     H_    0.201910 0.067636 0.057037 0.121207
C33   C     C_R   0.488870 0.935079 0.933122 -0.030769
C34   C     C_R   0.511129 0.064944 0.066861 -0.030701
C35   C     C_2   0.636107 0.554735 0.940546 0.765403
O21   O     O_2   0.542956 0.510536 0.889276 -0.563645
O22   O     O_R   0.583374 0.644420 0.965218 -0.659285
H15   H     H_    0.491965 0.675326 0.924802 0.283812
C36   C     C_2   0.363896 0.445242 0.059438 0.765991
O23   O     O_2   0.457055 0.489444 0.110703 -0.560941
O24   O     O_R   0.416620 0.355554 0.034773 -0.661626
H16   H     H_    0.508036 0.324652 0.075188 0.283818
C37   C     C_2   0.813821 0.979894 0.386542 0.761403
O25   O     O_2   0.813789 0.914181 0.338006 -0.562421
O26   O     O_R   0.968751 0.039642 0.390170 -0.649028
H17   H     H_    0.071259 0.022095 0.348624 0.297406
C38   C     C_2   0.181951 0.019090 0.611576 0.759349
O27   O     O_2   0.049691 0.964841 0.608927 -0.548308
O28   O     O_R   0.174755 0.096311 0.664501 -0.668072
H18   H     H_    0.054641 0.098622 0.699106 0.295125

loop_
_geom_bond_atom_site_label_1
_geom_bond_atom_site_label_2
_ccdc_geom_bond_type
C26   C28   A    
O28   H18   S    
C29   H11   S    
O13   V3    S    
C4    C33   S    
C12   C14   S    
O4    C2    A    
V1    O19   S    
C37   O25   D    
C17   C19   A    
C36   O23   D    
O9    V1    S    
C9    H3    S    
C10   H4    S    
C9    C14   S    
C30   C32   A    
C11   H1    S    
O3    C1    A    
C25   H9    S    
C6    C22   S    
C23   C28   A    
C8    C13   S    
C35   O21   D    
C30   C33   A    
O7    C3    A    
C9    C11   S    
O5    C7    A    
O7    V1    S    
O6    C8    A    
O8    V2    S    
C19   H7    S    
C20   H8    S    
O3    V1    S    
O14   V4    S    
C23   C37   S    
O14   V2    S    
C2    C27   S    
C18   C20   A    
C2    O12   A    
C13   C15   S    
C10   C13   S    
C14   C16   S    
O2    C4    A    
C37   O26   S    
C16   H6    S    
O11   V3    S    
C36   O24   S    
O17   V3    S    
C18   C21   A    
C29   C31   A    
C38   O28   S    
C9    C15   S    
C10   C16   S    
C17   C35   S    
O8    C4    A    
C1    O11   A    
C38   O27   D    
O15   V3    S    
C31   H13   S    
C30   H12   S    
C18   C36   S    
O22   H15   S    
C1    C28   S    
O26   H17   S    
C32   C34   A    
O10   V2    S    
O1    V3    S    
C20   C22   A    
C11   C16   S    
C15   H5    S    
C17   C22   A    
O18   V4    S    
C23   C25   A    
O16   C6    A    
O1    C3    A    
C35   O22   S    
O12   V4    S    
C12   H2    S    
V2    O20   S    
O16   V4    S    
C25   C27   A    
O5    V1    S    
C3    C34   S    
O17   C7    A    
O6    V2    S    
O10   C6    A    
O18   C8    A    
O2    V4    S    
O15   C5    A    
V3    O19   S    
V4    O20   S    
C7    C14   S    
C24   C38   S    
C19   C21   A    
C5    C21   S    
O9    C5    A    
O13   V1    S    
C10   C12   S    
C24   C26   A    
C31   C33   A    
C11   C13   S    
O24   H16   S    
O4    V2    S    
C29   C34   A    
C32   H14   S    
C24   C27   A    
C12   C15   S    
C26   H10   S    
