data_mof_unit_35245.cif
_audit_creation_date              2013-03-05T15:50:03-0500
_audit_creation_method            fapswitch 2.2
_symmetry_space_group_name_H-M    P1
_symmetry_Int_Tables_number       1
_space_group_crystal_system       triclinic
_cell_length_a                    8.386926
_cell_length_b                    13.158037
_cell_length_c                    17.319301
_cell_angle_alpha                 95.080834
_cell_angle_beta                  96.290858
_cell_angle_gamma                 98.749998
_cell_volume                      1866.85779017

loop_
_atom_site_label
_atom_site_type_symbol
_atom_site_description
_atom_site_fract_x
_atom_site_fract_y
_atom_site_fract_z
_atom_type_partial_charge
P1    P     P_3+3 0.990420 0.746550 0.559720 0.497345
O1    O     O_2   0.163080 0.763400 0.536930 -0.359397
O2    O     O_3   0.893330 0.628980 0.538660 -0.408204
O3    O     O_3   0.379830 0.697590 0.399610 -0.293167
O4    O     O_2   0.326492 0.875640 0.458381 -0.398277
O5    O     O_3   0.020912 0.781810 0.660691 -0.540683
O6    O     O_3   0.303626 0.863585 0.309125 -0.588334
C1    C     C_3   0.325800 0.908941 0.175567 -0.940094
H1    H     H_    0.212928 0.872088 0.138465 0.257182
H2    H     H_    0.305293 0.985186 0.198700 0.271947
P2    P     P_3+3 0.330880 0.415450 0.326700 0.533116
P3    P     P_3+3 0.918158 0.618570 0.258307 0.554699
O7    O     O_2   0.161570 0.447940 0.314920 -0.355927
O8    O     O_3   0.953630 0.643360 0.361440 -0.374841
O9    O     O_2   0.036964 0.550558 0.228438 -0.331345
O10   O     O_3   0.271099 0.282237 0.304102 -0.567580
O11   O     O_3   0.974899 0.733216 0.216266 -0.542346
C2    C     C_3   0.892036 0.809958 0.246178 0.715500
H3    H     H_    0.935535 0.829751 0.309739 0.016031
C3    C     C_3   0.928281 0.909921 0.206350 -0.458430
H4    H     H_    0.055691 0.943252 0.225838 0.196805
C4    C     C_3   0.886704 0.279809 0.299464 0.467589
H5    H     H_    0.003896 0.299368 0.336312 0.134663
C5    C     C_3   0.914097 0.215186 0.226134 -0.796296
H6    H     H_    0.796386 0.175938 0.193356 0.282982
H7    H     H_    0.979424 0.265329 0.187358 0.234226
H8    H     H_    0.992655 0.158237 0.242405 0.232029
Ba1   Ba    Ba6+2 0.158660 0.552610 0.463110 1.649577
C6    C     C_3   0.059098 0.702451 0.703999 0.274120
H9    H     H_    0.177662 0.682343 0.691107 0.094122
H10   H     H_    0.962151 0.633495 0.691499 0.111857
C7    C     C_3   0.070813 0.746302 0.790036 -0.574866
H11   H     H_    0.161567 0.818653 0.801045 0.234955
H12   H     H_    0.951243 0.766523 0.801910 0.223635
C8    C     C_3   0.297228 0.226379 0.367768 0.279220
H13   H     H_    0.185171 0.214153 0.395621 -0.028992
H14   H     H_    0.398234 0.264127 0.411375 0.160858
C9    C     C_3   0.327449 0.120432 0.337026 -0.098021
H15   H     H_    0.213104 0.077146 0.304178 0.080390
H16   H     H_    0.360710 0.077154 0.386952 0.103536
P4    P     P_3+3 0.819870 0.253440 0.440220 0.509615
O12   O     O_2   0.647210 0.236530 0.463040 -0.372807
O13   O     O_3   0.916960 0.371010 0.461280 -0.367492
O14   O     O_3   0.430470 0.302400 0.600330 -0.295731
O15   O     O_3   0.769853 0.225886 0.338850 -0.529320
P5    P     P_3+3 0.888947 0.373369 0.741996 0.503374
O16   O     O_3   0.388290 0.554800 0.590630 -0.339014
O17   O     O_3   0.856660 0.356630 0.638500 -0.309950
O18   O     O_2   0.791458 0.455921 0.770984 -0.395875
O19   O     O_3   0.796421 0.264443 0.780554 -0.513035
Ba2   Ba    Ba6+2 0.651510 0.447380 0.536830 1.670994
P6    P     P_3+3 0.419497 0.832618 0.394450 0.533446
C10   C     C_3   0.373890 0.841887 0.239932 0.878833
H17   H     H_    0.504891 0.865552 0.253344 0.046121
H18   H     H_    0.422593 0.919670 0.136653 0.251734
O20   O     O_3   0.422000 0.445190 0.409310 -0.382894
C11   C     C_3   0.583959 0.769642 0.668618 0.181670
H19   H     H_    0.688958 0.734910 0.650810 0.111763
H20   H     H_    0.499482 0.776985 0.615976 0.109097
C12   C     C_3   0.648655 0.875533 0.712207 -0.097856
H21   H     H_    0.727736 0.866749 0.766281 0.162948
H22   H     H_    0.546506 0.913887 0.729347 0.149979
P7    P     P_3+3 0.474508 0.581049 0.688716 0.459846
O21   O     O_2   0.648720 0.552000 0.685060 -0.362132
O22   O     O_3   0.500197 0.712503 0.719993 -0.609359
C13   C     C_3   0.864932 0.177392 0.757563 0.284403
H23   H     H_    0.762156 0.115146 0.735526 0.189680
H24   H     H_    0.941817 0.187281 0.709386 0.066612
C14   C     C_3   0.962068 0.143449 0.828005 -0.157927
H25   H     H_    0.013882 0.073567 0.810128 0.132534
H26   H     H_    0.065386 0.205235 0.850827 0.102285
P8    P     P_3+3 0.387565 0.167613 0.598793 0.520697
C15   C     C_3   0.369239 0.196658 0.745492 0.401207
H27   H     H_    0.234988 0.181988 0.729881 0.037240
O23   O     O_2   0.508172 0.122619 0.549751 -0.343543
O24   O     O_3   0.444295 0.137401 0.693170 -0.516349
H28   H     H_    0.416343 0.280460 0.745939 0.136890
H29   H     H_    0.352945 0.215131 0.869809 0.212095
C16   C     C_3   0.407632 0.166827 0.827485 -0.886031
H30   H     H_    0.540979 0.179806 0.844678 0.317299
H31   H     H_    0.358118 0.084040 0.829715 0.253638
C17   C     C_R   0.075237 0.179347 0.526941 0.025739
C18   C     C_R   0.736588 0.817743 0.465210 -0.384271
C19   C     C_R   0.703087 0.992491 0.439427 -0.139413
C20   C     C_R   0.640279 0.885838 0.432078 0.243787
C21   C     C_R   0.892194 0.851228 0.507182 0.273680
C22   C     C_R   0.957944 0.962228 0.512925 0.039259
C23   C     C_R   0.861452 0.033594 0.476891 -0.074892
C24   C     C_R   0.921650 0.145138 0.485325 0.087501
C25   C     C_R   0.174138 0.111935 0.556272 -0.012989
C26   C     C_R   0.112877 0.006307 0.555518 -0.011311
H32   H     H_    0.623615 0.044350 0.420737 0.200323
H33   H     H_    0.684911 0.736775 0.462179 0.160025
H34   H     H_    0.555358 0.530726 0.852316 0.171424
H35   H     H_    0.738822 0.550278 0.100283 0.150328
C27   C     C_R   0.603410 0.526311 0.276902 -0.353846
C28   C     C_R   0.448395 0.470768 0.252718 0.337606
C29   C     C_R   0.394006 0.447339 0.172574 -0.153123
C30   C     C_R   0.497532 0.478030 0.117252 0.065893
C31   C     C_R   0.657306 0.527800 0.142444 -0.175465
C32   C     C_R   0.709879 0.552337 0.222395 0.265127
C33   C     C_R   0.429600 0.497962 0.832369 -0.263753
C34   C     C_R   0.363032 0.506892 0.755794 0.265021
C35   C     C_R   0.101697 0.420871 0.781214 0.232905
C36   C     C_R   0.165069 0.412851 0.858279 -0.348738
C37   C     C_R   0.329267 0.452619 0.884416 0.068062
C38   C     C_1   0.389812 0.456022 0.966038 0.035047
C39   C     C_1   0.438768 0.463392 0.034888 0.059597
C40   C     C_R   0.198476 0.474278 0.733081 -0.363154
H36   H     H_    0.086207 0.379448 0.898146 0.185594
H37   H     H_    0.272650 0.405202 0.153603 0.145135
H38   H     H_    0.644982 0.544879 0.338679 0.150921
H39   H     H_    0.144563 0.490829 0.676804 0.171013
N1    N     N_R   0.328323 0.732135 0.208721 0.275048
O25   O     O_R   0.332416 0.660321 0.254815 -0.309816
O26   O     O_R   0.297001 0.704035 0.133829 -0.372578
N2    N     N_3   0.117309 0.674518 0.844369 -0.186360
H40   H     H_    0.032388 0.606605 0.833945 0.160964
H41   H     H_    0.231722 0.657947 0.834731 0.153955
N3    N     N_R   0.454592 0.128509 0.285452 0.283581
O27   O     O_R   0.440419 0.177564 0.223624 -0.375831
O28   O     O_R   0.557112 0.064260 0.288867 -0.469707
N4    N     N_R   0.741129 0.938748 0.663157 0.211357
O29   O     O_R   0.897067 0.966003 0.681207 -0.474267
O30   O     O_R   0.665259 0.978806 0.607148 -0.415494
N5    N     N_3   0.831348 0.986218 0.232682 -0.185607
H42   H     H_    0.836935 0.991780 0.293560 0.130349
H43   H     H_    0.710699 0.963531 0.208113 0.197759
N6    N     N_R   0.859737 0.121036 0.889290 0.287164
O31   O     O_R   0.743847 0.041400 0.878541 -0.405170
O32   O     O_R   0.890012 0.176853 0.956671 -0.364535
N7    N     N_3   0.200949 0.948351 0.606254 -0.125286
H44   H     H_    0.205806 0.981111 0.663846 0.163075
H45   H     H_    0.319947 0.951941 0.593004 0.193955
N8    N     N_R   0.124107 0.286336 0.550361 0.253226
O33   O     O_R   0.138675 0.314749 0.624369 -0.474462
O34   O     O_R   0.202768 0.345042 0.505842 -0.355256
N9    N     N_R   0.718909 0.773064 0.235514 0.156046
O35   O     O_R   0.641491 0.747967 0.165471 -0.450891
O36   O     O_R   0.652112 0.742832 0.295479 -0.528037
N10   N     N_3   0.905398 0.892882 0.120373 -0.152849
H46   H     H_    0.782825 0.886960 0.098483 0.197566
H47   H     H_    0.942431 0.823897 0.100715 0.188599
N11   N     N_3   0.830566 0.372510 0.276743 -0.183603
H48   H     H_    0.713670 0.350368 0.246468 0.111901
H49   H     H_    0.821250 0.418015 0.328022 0.117895

loop_
_geom_bond_atom_site_label_1
_geom_bond_atom_site_label_2
_geom_bond_distance
_ccdc_geom_bond_type
C1    H1    1.102739 S    
C13   H24   1.113798 S    
C36   H36   1.082943 S    
P7    O22   1.739740 S    
Ba1   O16   2.761758 S    
N5    H42   1.045798 S    
C22   C26   1.433136 A    
P4    O12   1.531548 D    
P4    C24   1.947006 S    
C8    H13   1.099514 S    
C5    H8    1.105399 S    
C7    N2    1.455605 S    
P8    O24   1.748808 S    
C28   C29   1.404427 A    
Ba1   O20   2.985213 S    
N4    O29   1.297931 A    
C10   H17   1.088672 S    
C10   N1    1.473879 S    
C30   C39   1.443337 S    
C27   H38   1.082610 S    
P5    O18   1.537541 D    
C17   C24   1.394287 A    
O3    P6    1.769219 S    
P6    C20   1.898424 S    
C8    H14   1.095467 S    
C5    H7    1.111605 S    
O6    P6    1.790701 S    
Ba2   O20   2.761146 S    
C6    C7    1.536670 S    
N2    H41   1.043318 S    
O10   C8    1.394151 S    
O16   P7    1.754681 S    
C9    H15   1.106617 S    
Ba1   Ba2   4.640148 S    
C11   H20   1.112390 S    
C13   C14   1.530019 S    
C37   C38   1.443184 S    
C18   H33   1.081783 S    
C12   H22   1.112432 S    
P1    O1    1.531334 D    
C15   H27   1.111773 S    
C17   N8    1.414630 S    
C14   H26   1.105319 S    
O17   Ba2   2.796495 S    
H29   C16   1.109737 S    
N7    H44   1.044973 S    
P3    O11   1.756227 S    
P1    Ba1   3.487018 S    
C38   C39   1.208307 T    
O7    Ba1   2.807569 S    
C33   C37   1.409021 A    
C40   H39   1.082991 S    
O12   Ba2   2.943323 S    
C9    N3    1.461955 S    
C13   H23   1.103275 S    
C27   C32   1.398121 A    
P4    O13   1.625112 S    
C33   C34   1.403455 A    
P8    O23   1.541600 D    
C1    H18   1.111322 S    
C35   C36   1.400578 A    
O3    Ba1   2.833993 S    
N3    O28   1.294748 A    
N1    O25   1.291847 A    
C11   H19   1.111968 S    
P5    O17   1.772102 S    
P1    O5    1.749555 S    
N8    O33   1.290167 A    
C8    C9    1.515494 S    
C5    H6    1.110742 S    
N11   H49   1.043365 S    
C4    O15   1.396364 S    
C11   O22   1.394721 S    
C16   H31   1.110808 S    
O2    Ba2   2.884798 S    
H35   C31   1.083601 S    
C2    H3    1.115815 S    
C11   C12   1.516435 S    
O16   Ba2   2.984361 S    
C26   N7    1.430781 S    
P5    C35   1.831858 S    
P7    O21   1.571893 D    
C12   H21   1.112063 S    
P1    O2    1.625114 S    
C7    H12   1.111498 S    
C12   N4    1.445108 S    
C3    N5    1.457813 S    
C6    H9    1.107655 S    
P8    C25   1.870754 S    
P2    O10   1.745008 S    
C30   C31   1.403253 A    
P3    O9    1.537384 D    
C27   C28   1.391828 A    
C18   C21   1.409304 A    
O11   C2    1.403839 S    
C15   C16   1.520297 S    
O4    P6    1.538666 D    
C19   C20   1.411312 A    
O19   C13   1.403690 S    
N9    O36   1.297516 A    
N7    H45   1.043416 S    
O14   Ba2   2.833344 S    
P7    C34   1.826778 S    
C18   C20   1.412171 A    
C2    N9    1.445326 S    
C15   O24   1.405187 S    
C4    C5    1.523447 S    
O6    C10   1.417835 S    
N3    O27   1.302028 A    
N6    O31   1.301263 A    
P1    C21   1.951072 S    
N8    O34   1.299369 A    
O2    Ba1   2.959633 S    
N5    H43   1.041779 S    
C29   H37   1.083532 S    
C3    H4    1.095581 S    
C21   C22   1.471171 A    
C3    N10   1.472928 S    
Ba2   O21   2.807717 S    
C19   C23   1.417052 A    
P3    O8    1.770936 S    
N11   H48   1.046131 S    
C1    C10   1.538753 S    
N1    O26   1.303428 A    
C36   C37   1.406196 A    
P5    O19   1.745590 S    
Ba1   O13   2.884220 S    
C17   C25   1.394342 A    
C34   C40   1.383673 A    
P2    C28   1.834847 S    
C7    H11   1.112463 S    
N10   H47   1.044287 S    
P3    C32   1.844040 S    
C6    H10   1.110587 S    
P4    O15   1.751955 S    
N10   H46   1.044799 S    
C9    H16   1.110158 S    
P2    O7    1.541885 D    
O13   Ba2   2.960490 S    
C25   C26   1.404953 A    
C35   C40   1.387840 A    
P2    Ba1   3.422089 S    
C14   N6    1.458855 S    
C31   C32   1.399907 A    
O14   P8    1.752420 S    
C2    C3    1.543796 S    
C14   H25   1.109430 S    
N4    O30   1.296542 A    
N9    O35   1.301322 A    
C16   H30   1.108367 S    
O5    C6    1.394050 S    
C23   C24   1.466553 A    
H34   C33   1.083085 S    
C22   C23   1.466474 A    
C1    H2    1.092231 S    
C29   C30   1.406834 A    
C4    N11   1.443426 S    
C15   H28   1.112339 S    
C4    H5    1.093636 S    
O1    Ba1   2.942613 S    
C19   H32   1.069988 S    
O8    Ba1   2.795882 S    
N2    H40   1.043070 S    
P4    Ba2   3.487590 S    
P2    O20   1.534413 S    
N6    O32   1.300870 A    
