data_mof_unit_57192.cif
_audit_creation_date              2013-03-05T16:01:30-0500
_audit_creation_method            fapswitch 2.2
_symmetry_space_group_name_H-M    P1
_symmetry_Int_Tables_number       1
_space_group_crystal_system       triclinic
_cell_length_a                    19.727539
_cell_length_b                    7.193739
_cell_length_c                    20.321636
_cell_angle_alpha                 90.281382
_cell_angle_beta                  98.879652
_cell_angle_gamma                 89.934886
_cell_volume                      2849.34090887

loop_
_atom_site_label
_atom_site_type_symbol
_atom_site_description
_atom_site_fract_x
_atom_site_fract_y
_atom_site_fract_z
_atom_type_partial_charge
O1    O     O_R   0.188410 0.619490 0.310050 -0.553972
O2    O     O_R   0.811590 0.380510 0.689950 -0.565992
O3    O     O_R   0.311590 0.119490 0.189950 -0.567052
O4    O     O_R   0.688410 0.880510 0.810050 -0.580583
O5    O     O_R   0.327280 0.288800 0.321740 -0.559809
O6    O     O_R   0.672720 0.711200 0.678260 -0.564815
O7    O     O_R   0.172720 0.788800 0.178260 -0.523369
O8    O     O_R   0.827280 0.211200 0.821740 -0.521076
C1    C     C_R   0.351858 0.457795 0.338820 1.087538
C2    C     C_R   0.647623 0.542422 0.661833 1.027031
C3    C     C_R   0.147592 0.957779 0.161913 1.042612
C4    C     C_R   0.852429 0.042270 0.838080 1.039373
O9    O     O_R   0.189900 0.289710 0.318190 -0.616403
O10   O     O_R   0.810100 0.710290 0.681810 -0.595050
O11   O     O_R   0.310100 0.789710 0.181810 -0.599292
O12   O     O_R   0.689900 0.210290 0.818190 -0.590174
O13   O     O_R   0.173230 0.120350 0.186370 -0.581021
O14   O     O_R   0.826770 0.879650 0.813630 -0.578824
O15   O     O_R   0.326770 0.620350 0.313630 -0.612664
O16   O     O_R   0.673230 0.379650 0.686370 -0.605797
C5    C     C_R   0.171423 0.459717 0.335271 1.075750
C6    C     C_R   0.828384 0.540608 0.664351 1.041271
C7    C     C_R   0.328457 0.958584 0.164290 1.023648
C8    C     C_R   0.669838 0.041887 0.833826 1.010066
O17   O     O_3   0.244690 0.453290 0.206760 -0.276420
O18   O     O_3   0.755310 0.546710 0.793240 -0.264512
O19   O     O_3   0.255310 0.953290 0.293240 -0.310675
O20   O     O_3   0.744690 0.046710 0.706760 -0.305090
V1    V     V_3+5 0.250980 0.178070 0.258020 1.229831
V2    V     V_3+5 0.749020 0.821930 0.741980 1.231776
V3    V     V_3+5 0.249020 0.678070 0.241980 1.259411
V4    V     V_3+5 0.750980 0.321930 0.758020 1.255748
C9    C     C_R   0.467935 0.130600 0.069378 -0.281945
C10   C     C_R   0.515644 0.901193 0.913144 -0.278380
C11   C     C_R   0.022661 0.613775 0.420286 -0.300778
C12   C     C_R   0.970030 0.370537 0.571337 -0.284029
H1    H     H_    0.502061 0.248312 0.074521 0.138199
H2    H     H_    0.471049 0.815948 0.897838 0.155298
H3    H     H_    0.981660 0.711963 0.407388 0.142367
H4    H     H_    0.005095 0.254877 0.577292 0.139137
C13   C     C_R   0.421531 0.119061 0.114902 0.596037
C14   C     C_R   0.565438 0.904947 0.870600 0.587335
C15   C     C_R   0.073250 0.612308 0.379076 0.600491
C16   C     C_R   0.922192 0.379781 0.615533 0.600288
C17   C     C_R   0.373925 0.971121 0.111645 -0.466839
C18   C     C_R   0.620830 0.031395 0.882582 -0.464842
C19   C     C_R   0.124941 0.475173 0.386447 -0.456412
C20   C     C_R   0.873955 0.526374 0.611969 -0.470546
C21   C     C_R   0.371166 0.841788 0.057865 0.260732
C22   C     C_R   0.627179 0.146074 0.940255 0.279986
C23   C     C_R   0.131737 0.360135 0.443447 0.288657
C24   C     C_R   0.870719 0.653554 0.558150 0.261499
C25   C     C_R   0.421556 0.850626 0.015491 -0.243827
C26   C     C_R   0.579874 0.127040 0.984983 -0.243209
C27   C     C_R   0.082778 0.372675 0.487154 -0.238831
C28   C     C_R   0.921682 0.645834 0.516471 -0.253144
H5    H     H_    0.421211 0.743021 0.978439 0.175044
H6    H     H_    0.589885 0.206736 0.030462 0.168271
H7    H     H_    0.091795 0.289085 0.531436 0.175991
H8    H     H_    0.919800 0.751447 0.479086 0.172678
C29   C     C_R   0.470329 0.995370 0.019667 0.088240
C30   C     C_R   0.522581 0.007316 0.972244 0.079107
C31   C     C_R   0.026006 0.495524 0.475647 0.083565
C32   C     C_R   0.972340 0.505003 0.521853 0.092561
C33   C     C_R   0.085915 0.961749 0.108352 -0.479051
C34   C     C_R   0.914215 0.038532 0.891562 -0.479770
C35   C     C_R   0.412993 0.459146 0.393201 -0.497044
C36   C     C_R   0.585118 0.539048 0.609055 -0.462228
C37   C     C_R   0.019970 0.192610 0.944137 0.310413
C38   C     C_R   0.980058 0.808193 0.055986 0.311592
C39   C     C_R   0.469860 0.655238 0.565576 0.252214
C40   C     C_R   0.517245 0.299263 0.446226 0.258039
C41   C     C_R   0.968073 0.165446 0.889068 0.428967
C42   C     C_R   0.031445 0.837396 0.111345 0.430777
C43   C     C_R   0.531139 0.667466 0.611971 0.397055
C44   C     C_R   0.466755 0.331487 0.390381 0.353507
C45   C     C_R   0.918365 0.916894 0.946415 0.581714
C46   C     C_R   0.082301 0.081533 0.053067 0.582053
C47   C     C_R   0.579349 0.410233 0.555602 0.528514
C48   C     C_R   0.415206 0.572870 0.450296 0.600879
C49   C     C_R   0.974900 0.928383 0.000010 -0.263724
C50   C     C_R   0.025535 0.070855 0.999679 -0.265553
C51   C     C_R   0.521975 0.417489 0.502985 -0.250332
C52   C     C_R   0.468761 0.549930 0.506180 -0.235205
O21   O     O_3   0.426795 0.246324 0.166518 -0.646785
C53   C     C_3   0.398375 0.416481 0.141841 -0.081395
H9    H     H_    0.396474 0.512168 0.184326 0.141430
H10   H     H_    0.344693 0.398054 0.116370 0.186568
H11   H     H_    0.430622 0.483128 0.108369 0.114839
O22   O     O_3   0.555438 0.800207 0.812560 -0.593213
C54   C     C_3   0.566894 0.610920 0.828664 -0.005296
H12   H     H_    0.618695 0.588457 0.858076 0.143472
H13   H     H_    0.564608 0.530207 0.781718 0.140376
H14   H     H_    0.526610 0.554921 0.855792 0.102825
O23   O     O_3   0.070718 0.744406 0.329799 -0.636921
C55   C     C_3   0.096379 0.913202 0.359445 -0.107050
H15   H     H_    0.101402 0.014401 0.319638 0.145213
H16   H     H_    0.148486 0.895193 0.388743 0.190383
H17   H     H_    0.060688 0.973750 0.391152 0.112438
O24   O     O_3   0.926086 0.250160 0.665777 -0.645852
C56   C     C_3   0.897315 0.082196 0.638796 -0.088348
H18   H     H_    0.843672 0.103031 0.613585 0.184928
H19   H     H_    0.895262 0.983190 0.679926 0.146918
H20   H     H_    0.929383 0.018042 0.604369 0.118069
N1    N     N_R   0.316539 0.707032 0.042563 0.231072
O25   O     O_R   0.255760 0.739444 0.057213 -0.410909
O26   O     O_R   0.323519 0.567427 0.003119 -0.424151
N2    N     N_R   0.680775 0.282859 0.955087 0.241695
O27   O     O_R   0.743493 0.245801 0.947064 -0.415574
O28   O     O_R   0.668597 0.437832 0.984472 -0.423445
N3    N     N_R   0.190668 0.241736 0.461017 0.243832
O29   O     O_R   0.250979 0.295915 0.450496 -0.382047
O30   O     O_R   0.186613 0.095949 0.497891 -0.382682
N4    N     N_R   0.814929 0.784546 0.542057 0.230859
O31   O     O_R   0.754428 0.749948 0.556881 -0.423211
O32   O     O_R   0.820757 0.922404 0.502017 -0.433237
O33   O     O_3   0.132248 0.216723 0.053490 -0.578123
C57   C     C_3   0.187949 0.143784 0.025705 0.044585
H21   H     H_    0.171920 0.050657 0.982044 0.119439
H22   H     H_    0.223429 0.070740 0.064434 0.088592
H23   H     H_    0.216885 0.261211 0.008329 0.201796
O34   O     O_3   0.869177 0.779370 0.945432 -0.577408
C58   C     C_3   0.812445 0.849246 0.972371 0.053732
H24   H     H_    0.776024 0.916339 0.932815 0.096210
H25   H     H_    0.827038 0.946599 0.015093 0.112186
H26   H     H_    0.785055 0.730539 0.990919 0.203130
O35   O     O_3   0.363753 0.703563 0.451194 -0.587669
C59   C     C_3   0.387486 0.877667 0.432475 0.040641
H27   H     H_    0.343273 0.974507 0.423490 0.191049
H28   H     H_    0.410224 0.869533 0.385643 0.110339
H29   H     H_    0.425069 0.938125 0.473153 0.130314
O36   O     O_3   0.629702 0.276088 0.555260 -0.614700
C60   C     C_3   0.684243 0.348071 0.525708 0.047932
H30   H     H_    0.721508 0.418495 0.563898 0.095912
H31   H     H_    0.667136 0.443160 0.483170 0.118966
H32   H     H_    0.711627 0.230198 0.506172 0.197773
O37   O     O_3   0.025740 0.749509 0.170468 -0.576290
C61   C     C_3   0.985233 0.864702 0.205656 0.024973
H33   H     H_    0.966687 0.781867 0.245121 0.190346
H34   H     H_    0.938585 0.920727 0.174012 0.107009
H35   H     H_    0.015944 0.983775 0.228747 0.088277
O38   O     O_3   0.972109 0.260344 0.830921 -0.579979
C62   C     C_3   0.011877 0.151183 0.793071 0.033230
H36   H     H_    0.059488 0.094424 0.822856 0.111253
H37   H     H_    0.028647 0.239322 0.754013 0.195476
H38   H     H_    0.981222 0.032921 0.769293 0.090362
O39   O     O_3   0.471337 0.238461 0.331643 -0.593748
C63   C     C_3   0.512998 0.346497 0.295808 0.043264
H39   H     H_    0.529015 0.259662 0.255719 0.186935
H40   H     H_    0.561100 0.396252 0.326923 0.110464
H41   H     H_    0.484157 0.468968 0.273324 0.081351
O40   O     O_3   0.534744 0.788608 0.665523 -0.589249
C64   C     C_3   0.554564 0.966126 0.645538 0.161901
H42   H     H_    0.563461 0.058290 0.689965 0.107372
H43   H     H_    0.514188 0.031134 0.608759 0.129193
H44   H     H_    0.602908 0.961496 0.623839 0.160252
N5    N     N_R   0.066052 0.346836 0.942373 0.280177
O41   O     O_R   0.062974 0.489391 0.981392 -0.302119
O42   O     O_R   0.107535 0.352392 0.898516 -0.388149
N6    N     N_R   0.933623 0.655050 0.058301 0.278118
O43   O     O_R   0.937082 0.510081 0.020488 -0.304126
O44   O     O_R   0.892020 0.651999 0.102083 -0.399775
N7    N     N_R   0.406716 0.726000 0.583492 0.277049
O45   O     O_R   0.353610 0.616919 0.579350 -0.276578
O46   O     O_R   0.403842 0.887862 0.611657 -0.339784
N8    N     N_R   0.561093 0.139763 0.445127 0.273481
O47   O     O_R   0.555924 0.001607 0.485088 -0.427071
O48   O     O_R   0.600826 0.122614 0.399999 -0.380091

loop_
_geom_bond_atom_site_label_1
_geom_bond_atom_site_label_2
_geom_bond_distance
_ccdc_geom_bond_type
O17   V3    1.761917 S    
C62   H38   1.109011 S    
C6    C20   1.498667 S    
O1    C5    1.325029 A    
C56   H18   1.112573 S    
C7    C17   1.501523 S    
C27   H7    1.076425 S    
O19   V1    1.768181 S    
O13   V1    1.987740 S    
O3    C7    1.330128 A    
O23   C55   1.411995 S    
C10   C14   1.405572 A    
C63   H41   1.109613 S    
C10   C30   1.408689 A    
C40   C44   1.409551 A    
O15   V3    1.990000 S    
C59   H27   1.109107 S    
C49   C50   1.432739 A    
C58   H24   1.104571 S    
N8    O48   1.300477 A    
O21   C53   1.407768 S    
C36   C43   1.416903 A    
O7    C3    1.336228 A    
N1    O26   1.302271 A    
N5    O41   1.300322 A    
C39   N7    1.442270 S    
O9    V1    2.008742 S    
N7    O46   1.299983 A    
C63   H40   1.114324 S    
C26   H6    1.077286 S    
O4    C8    1.327992 A    
C53   H10   1.112388 S    
C58   H25   1.115523 S    
C62   H36   1.114142 S    
C55   H17   1.112307 S    
O1    V3    2.009538 S    
N2    O27   1.299852 A    
O2    V4    2.009538 S    
C14   C18   1.413769 A    
O3    V1    2.006115 S    
C38   C49   1.423245 A    
C57   H21   1.115377 S    
O24   C56   1.407738 S    
C37   C50   1.422808 A    
C25   C29   1.411873 A    
C1    O15   1.341933 A    
O39   C63   1.414776 S    
C44   O39   1.380627 S    
C2    O16   1.342215 A    
O36   C60   1.410778 S    
C27   C31   1.417373 A    
C38   C42   1.408347 A    
C60   H32   1.109206 S    
C37   N5    1.439224 S    
C28   C32   1.414952 A    
C37   C41   1.408317 A    
C45   O34   1.384472 S    
C45   C49   1.435700 A    
C64   H43   1.109302 S    
C11   C15   1.398324 A    
C23   C27   1.411994 A    
C48   C52   1.436729 A    
C36   C47   1.415556 A    
O11   C7    1.333710 A    
O37   C61   1.416217 S    
O12   C8    1.329997 A    
C22   N2    1.441554 S    
O10   V2    2.008740 S    
N4    O31   1.299856 A    
O5    V1    1.991933 S    
C41   O38   1.380481 S    
C42   O37   1.380339 S    
C39   C43   1.416190 A    
O7    V3    1.995648 S    
O8    V4    1.995647 S    
C12   H4    1.076698 S    
C46   O33   1.384285 S    
C63   H39   1.108033 S    
C54   H12   1.113391 S    
C25   H5    1.076519 S    
C53   H9    1.106682 S    
C58   H26   1.109211 S    
C19   C23   1.416251 A    
C26   C30   1.412782 A    
C34   C41   1.408642 A    
C4    C34   1.502970 S    
C53   H11   1.111184 S    
C9    H1    1.076994 S    
C33   C42   1.407673 A    
C28   H8    1.073629 S    
C55   H16   1.113315 S    
N4    O32   1.302251 A    
C14   O22   1.384762 S    
C57   H23   1.109220 S    
N6    O44   1.300508 A    
C3    C33   1.502444 S    
C11   H3    1.075597 S    
C1    C35   1.504777 S    
O5    C1    1.333696 A    
C54   H13   1.109346 S    
C46   C50   1.435740 A    
C15   O23   1.379169 S    
C51   C52   1.425541 A    
C17   C21   1.426465 A    
C43   O40   1.384108 S    
O8    C4    1.336014 A    
C55   H15   1.106746 S    
O9    C5    1.335264 A    
N3    O30   1.301627 A    
C22   C26   1.406835 A    
C64   H44   1.111171 S    
C61   H34   1.114380 S    
O14   V2    1.987740 S    
C9    C29   1.405013 A    
O6    V2    1.991933 S    
C56   H20   1.111502 S    
C24   N4    1.447685 S    
N8    O47   1.300515 A    
C12   C16   1.400930 A    
O35   C59   1.411941 S    
C59   H29   1.109130 S    
C40   C51   1.421195 A    
C39   C52   1.419238 A    
O16   V4    1.990002 S    
C62   H37   1.108130 S    
C34   C45   1.412869 A    
C3    O13   1.337375 A    
C23   N3    1.441217 S    
C33   C46   1.412249 A    
N3    O29   1.301376 A    
C10   H2    1.077792 S    
C40   N8    1.438314 S    
C35   C48   1.411564 A    
C61   H35   1.109256 S    
C59   H28   1.114258 S    
O6    C2    1.333067 A    
C21   N1    1.446975 S    
O11   V3    2.014630 S    
O18   V4    1.761917 S    
C48   O35   1.384911 S    
C2    C36   1.504296 S    
O12   V4    2.014630 S    
C13   O21   1.380696 S    
N1    O25   1.299804 A    
C18   C22   1.419618 A    
C56   H19   1.106291 S    
C9    C13   1.401113 A    
N6    O43   1.300327 A    
O10   C6    1.334246 A    
O20   V2    1.768181 S    
O34   C58   1.410708 S    
C8    C18   1.489538 S    
O33   C57   1.410283 S    
C54   H14   1.111722 S    
C47   C51   1.433139 A    
C16   O24   1.379452 S    
O22   C54   1.411803 S    
C60   H30   1.104649 S    
C21   C25   1.413743 A    
C47   O36   1.384881 S    
O2    C6    1.329188 A    
N2    O28   1.301652 A    
C38   N6    1.439155 S    
C29   C30   1.518696 S    
C57   H22   1.103905 S    
N7    O45   1.301694 A    
C61   H33   1.108111 S    
C31   C32   1.520954 S    
C16   C20   1.414240 A    
C20   C24   1.423173 A    
O40   C64   1.415571 S    
N5    O42   1.300459 A    
C4    O14   1.337764 A    
C60   H31   1.115483 S    
C13   C17   1.414712 A    
O38   C62   1.415175 S    
C11   C31   1.407144 A    
C35   C44   1.409803 A    
C64   H42   1.109481 S    
C12   C32   1.404563 A    
C15   C19   1.409792 A    
O4    V2    2.006114 S    
C24   C28   1.411934 A    
C5    C19   1.492584 S    
