data_mof_unit_15004.cif
_audit_creation_date              2012-12-10T20:28:44-0500
_audit_creation_method            fapswitch 2.2
_symmetry_space_group_name_H-M    P1
_symmetry_Int_Tables_number       1
_space_group_crystal_system       triclinic
_cell_length_a                    10.626636
_cell_length_b                    10.673144
_cell_length_c                    9.889048
_cell_angle_alpha                 89.504404
_cell_angle_beta                  89.452086
_cell_angle_gamma                 90.118739
_cell_volume                      1121.51618308

loop_
_atom_site_label
_atom_site_type_symbol
_atom_type_description
_atom_site_fract_x
_atom_site_fract_y
_atom_site_fract_z
_atom_type_partial_charge
C1    C     C_R   0.504681 0.259867 0.500269 0.876567
C2    C     C_R   0.543857 0.936209 0.375698 -0.226022
C3    C     C_R   0.528774 0.871003 0.498448 -0.100193
C4    C     C_R   0.260540 0.503381 0.500507 0.872050
C5    C     C_R   0.539844 0.934424 0.620200 0.120312
C6    C     C_3   0.462791 0.924605 0.747000 -0.471560
C7    C     C_3   0.461067 0.066418 0.747290 -0.501836
C8    C     C_R   0.393458 0.470489 0.072528 0.192926
C9    C     C_R   0.600222 0.546108 0.069998 0.135452
C10   C     C_R   0.600180 0.544178 0.925713 -0.179771
C11   C     C_R   0.393103 0.471408 0.930473 0.217145
C12   C     C_R   0.065455 0.611718 0.564835 0.098116
C13   C     C_3   0.319687 0.352504 0.926785 -0.508231
C14   C     C_3   0.320830 0.351263 0.080532 -0.501596
C15   C     C_R   0.505190 0.739937 0.499415 0.848762
C16   C     C_R   0.739410 0.503948 0.499407 0.863657
C17   C     C_R   0.130258 0.712035 0.626032 -0.187754
C18   C     C_R   0.064167 0.809987 0.686143 -0.141200
C19   C     C_R   0.933227 0.810561 0.684944 -0.137678
C20   C     C_R   0.867961 0.713256 0.623544 -0.198145
C21   C     C_R   0.933562 0.612411 0.563429 0.094519
C22   C     C_R   0.128230 0.511733 0.500896 -0.100562
C23   C     C_R   0.064639 0.418107 0.432239 -0.222865
C24   C     C_R   0.936142 0.418870 0.430729 -0.200499
C25   C     C_R   0.871634 0.513152 0.498064 -0.093746
C26   C     C_R   0.538961 0.062372 0.620851 0.141402
C27   C     C_R   0.527516 0.128463 0.499618 -0.106173
C28   C     C_R   0.543285 0.065776 0.376279 -0.228513
H1    H     H_    0.114822 0.342997 0.382043 0.147531
H2    H     H_    0.231817 0.716907 0.626217 0.144054
H3    H     H_    0.114722 0.886302 0.732544 0.131611
H4    H     H_    0.882035 0.887278 0.730416 0.135429
H5    H     H_    0.766471 0.719119 0.621902 0.144094
H6    H     H_    0.886617 0.344094 0.379890 0.153774
H7    H     H_    0.545173 0.115456 0.280280 0.169771
H8    H     H_    0.545836 0.888414 0.279505 0.164404
H9    H     H_    0.368491 0.882411 0.730728 0.199109
H10   H     H_    0.675586 0.680855 0.184172 0.191019
H11   H     H_    0.777374 0.622149 0.071019 0.153698
H12   H     H_    0.516875 0.883346 0.832094 0.201117
H13   H     H_    0.365686 0.105788 0.729995 0.200754
H14   H     H_    0.513846 0.106822 0.833130 0.202716
H15   H     H_    0.681016 0.578210 0.869016 0.157884
H16   H     H_    0.224307 0.366488 0.884077 0.208211
H17   H     H_    0.374331 0.275134 0.881702 0.210741
H18   H     H_    0.226023 0.364659 0.126548 0.206466
H19   H     H_    0.376333 0.272803 0.124269 0.210333
N1    N     N_R   0.499160 0.499140 0.142800 -0.115764
N2    N     N_R   0.499160 0.499180 0.857150 -0.116060
N3    N     N_3   0.705709 0.597637 0.139503 -0.397141
O1    O     O_R   0.500020 0.316790 0.614690 -0.610015
O2    O     O_R   0.500000 0.316760 0.385350 -0.624156
O3    O     O_R   0.316770 0.500020 0.614690 -0.620250
O4    O     O_R   0.316760 0.499980 0.385350 -0.610640
O5    O     O_R   0.500000 0.683240 0.614650 -0.629317
O6    O     O_R   0.499980 0.683210 0.385310 -0.627241
O7    O     O_R   0.683240 0.500020 0.614650 -0.628326
O8    O     O_R   0.683230 0.499980 0.385310 -0.592291
Zn1   Zn    Zn3+2 0.500010 0.500020 0.653130 0.935270
Zn2   Zn    Zn3+2 0.499990 0.499980 0.346870 0.948652

loop_
_geom_bond_atom_site_label_1
_geom_bond_atom_site_label_2
_ccdc_geom_bond_type
C12   C17   A    
C2    C28   A    
C23   C24   A    
C8    N1    A    
C14   H19   S    
H10   N3    S    
O5    Zn1   S    
C4    O3    A    
C11   C13   S    
C9    C10   A    
C19   C20   A    
N2    Zn1   S    
C15   O6    A    
C2    C3    A    
O3    Zn1   S    
C6    H9    S    
C14   H18   S    
O4    Zn2   S    
C13   C14   S    
C24   C25   A    
C13   H17   S    
C17   H2    S    
C1    O1    A    
C26   C27   A    
C6    C7    S    
C7    C26   S    
C21   C25   A    
C8    C11   A    
C11   N2    A    
C20   H5    S    
C23   H1    S    
N1    Zn2   S    
C16   O8    A    
C16   O7    A    
C7    H13   S    
C5    C6    S    
C1    O2    A    
C6    H12   S    
O7    Zn1   S    
O1    Zn1   S    
C19   H4    S    
O8    Zn2   S    
C5    C26   A    
C12   C22   A    
C27   C28   A    
H11   N3    S    
C3    C15   S    
C20   C21   A    
C9    N1    A    
C17   C18   A    
C18   C19   A    
C7    H14   S    
C2    H8    S    
C16   C25   S    
C1    C27   S    
C4    C22   S    
C22   C23   A    
C8    C14   S    
C18   H3    S    
O2    Zn2   S    
C4    O4    A    
C10   H15   S    
C10   N2    A    
C12   C21   A    
C13   H16   S    
C24   H6    S    
C9    N3    S    
O6    Zn2   S    
C28   H7    S    
C3    C5    A    
C15   O5    A    
