data_mof_unit_17933.cif
_audit_creation_date              2012-12-10T16:52:39-0500
_audit_creation_method            fapswitch 2.2
_symmetry_space_group_name_H-M    P1
_symmetry_Int_Tables_number       1
_space_group_crystal_system       triclinic
_cell_length_a                    7.896082
_cell_length_b                    8.559111
_cell_length_c                    13.71452
_cell_angle_alpha                 93.835875
_cell_angle_beta                  92.977477
_cell_angle_gamma                 94.100647
_cell_volume                      920.930824404

loop_
_atom_site_label
_atom_site_type_symbol
_atom_type_description
_atom_site_fract_x
_atom_site_fract_y
_atom_site_fract_z
_atom_type_partial_charge
Br1   Br    Br    0.419741 0.598459 0.253741 -0.493922
Br2   Br    Br    0.580258 0.401538 0.746259 -0.493920
C1    C     C_R   0.044835 0.794371 0.497602 0.946382
C2    C     C_R   0.937502 0.488678 0.317948 0.879411
C3    C     C_R   0.093614 0.532996 0.787269 -0.055479
C4    C     C_R   0.906386 0.467004 0.212731 -0.055477
C5    C     C_R   0.065714 0.680647 0.940401 -0.179109
C6    C     C_R   0.934286 0.319352 0.059599 -0.179108
C7    C     C_R   0.008149 0.640806 0.843719 -0.173845
C8    C     C_R   0.991851 0.359193 0.156281 -0.173846
C9    C     C_R   0.229716 0.462043 0.828423 -0.177976
C10   C     C_R   0.770284 0.537956 0.171576 -0.177974
C11   C     C_R   0.308986 0.522260 0.917401 0.107442
C12   C     C_R   0.955165 0.205629 0.502398 0.946384
C13   C     C_R   0.691013 0.477739 0.082599 0.107442
C14   C     C_R   0.216969 0.623414 0.977133 0.111931
C15   C     C_R   0.783031 0.376584 0.022867 0.111930
C16   C     C_R   0.472436 0.480342 0.949962 -0.045890
C17   C     C_R   0.527563 0.519656 0.050038 -0.045891
C18   C     C_2   0.485406 0.303731 0.446410 1.136952
C19   C     C_2   0.514595 0.696269 0.553590 1.136959
C20   C     C_R   0.414951 0.596472 0.113112 0.243728
C21   C     C_R   0.585049 0.403526 0.886888 0.243731
C22   C     C_R   0.270336 0.657888 0.074277 -0.249389
C23   C     C_R   0.729664 0.342110 0.925723 -0.249389
C24   C     C_2   0.067852 0.958057 0.495615 -0.358029
C25   C     C_2   0.932147 0.041943 0.504385 -0.358038
C26   C     C_R   0.062498 0.511321 0.682052 0.879407
H1    H     H_    0.191059 0.722590 0.122365 0.174970
H2    H     H_    0.804372 0.991218 0.513437 0.232129
H3    H     H_    0.561944 0.155747 0.339776 0.331343
H4    H     H_    0.438089 0.844261 0.660229 0.331345
H5    H     H_    0.808941 0.277408 0.877635 0.174970
H6    H     H_    0.728300 0.639800 0.210840 0.183551
H7    H     H_    0.271700 0.360200 0.789159 0.183552
H8    H     H_    0.100261 0.304823 0.187063 0.181881
H9    H     H_    0.899739 0.695176 0.812937 0.181885
H10   H     H_    0.995447 0.759313 0.985361 0.142819
H11   H     H_    0.004553 0.240686 0.014639 0.142819
H12   H     H_    0.195627 0.008782 0.486562 0.232136
N1    N     N_2   0.440860 0.456490 0.474790 -0.158104
N2    N     N_2   0.559140 0.543510 0.525210 -0.158102
O1    O     O_R   0.891570 0.738930 0.506190 -0.624597
O2    O     O_R   0.534267 0.269108 0.351428 -0.787818
O3    O     O_2   0.524796 0.798748 0.495787 -0.624785
O4    O     O_R   0.465765 0.730900 0.648576 -0.787826
O5    O     O_R   0.108430 0.261070 0.493810 -0.624593
O6    O     O_R   0.174650 0.711050 0.490030 -0.600879
O7    O     O_R   0.825350 0.288950 0.509970 -0.600880
O8    O     O_R   0.909850 0.521900 0.644940 -0.599860
O9    O     O_R   0.090150 0.478100 0.355060 -0.599865
O10   O     O_R   0.192930 0.494020 0.628780 -0.577825
O11   O     O_R   0.807070 0.505980 0.371220 -0.577813
O12   O     O_2   0.475188 0.201249 0.504210 -0.624789
Zn1   Zn    Zn3+2 0.810990 0.518620 0.510790 1.034961
Zn2   Zn    Zn3+2 0.189010 0.481380 0.489210 1.034958

loop_
_geom_bond_atom_site_label_1
_geom_bond_atom_site_label_2
_ccdc_geom_bond_type
C4    C8    A    
C6    C8    A    
N1    Zn2   S    
C3    C7    A    
C12   O5    A    
C6    H11   S    
C12   C25   S    
C3    C26   S    
C9    C11   A    
N1    N2    D    
O11   Zn1   S    
C6    C15   A    
C10   C13   A    
C15   C23   A    
C7    H9    S    
C18   N1    S    
Br1   C20   S    
C14   C22   A    
C25   H2    S    
C13   C17   A    
C26   O10   A    
C18   O12   D    
C24   H12   S    
C24   C25   D    
H4    O4    S    
C11   C16   A    
C1    O1    A    
O1    Zn1   S    
C5    C14   A    
C18   O2    S    
C5    H10   S    
C3    C9    A    
C19   O3    D    
C21   C23   A    
C4    C10   A    
N2    Zn1   S    
C20   C22   A    
C2    O11   A    
H3    O2    S    
C2    O9    A    
C10   H6    S    
C16   C21   A    
C19   O4    S    
C5    C7    A    
C1    O6    A    
C17   C20   A    
C12   O7    A    
C13   C15   A    
C2    C4    S    
C11   C14   A    
Br2   C21   S    
O6    Zn2   S    
C22   H1    S    
C16   C17   A    
C8    H8    S    
C19   N2    S    
O7    Zn1   S    
O10   Zn2   S    
C26   O8    A    
C9    H7    S    
C1    C24   S    
O8    Zn1   S    
C23   H5    S    
O5    Zn2   S    
O9    Zn2   S    
