data_mof_unit_11597.cif
_audit_creation_date              2012-12-10T21:15:52-0500
_audit_creation_method            fapswitch 2.2
_symmetry_space_group_name_H-M    P1
_symmetry_Int_Tables_number       1
_space_group_crystal_system       triclinic
_cell_length_a                    13.554003
_cell_length_b                    16.8271
_cell_length_c                    17.569401
_cell_angle_alpha                 90.659318
_cell_angle_beta                  91.668919
_cell_angle_gamma                 84.571709
_cell_volume                      3987.31657777

loop_
_atom_site_label
_atom_site_type_symbol
_atom_type_description
_atom_site_fract_x
_atom_site_fract_y
_atom_site_fract_z
_atom_type_partial_charge
C1    C     C_R   0.498401 0.500579 0.646572 0.996120
C2    C     C_R   0.502485 0.499674 0.353377 0.972150
C3    C     C_R   0.558657 0.568446 0.158284 0.371989
C4    C     C_R   0.561765 0.459766 0.852291 0.394792
C5    C     C_R   0.498877 0.521211 0.114116 -0.225485
C6    C     C_R   0.498163 0.519764 0.886401 -0.217352
C7    C     C_1   0.497522 0.526653 0.034044 0.070739
C8    C     C_1   0.497606 0.525851 0.966566 0.067621
C9    C     C_R   0.574829 0.162534 0.539513 -0.439306
C10   C     C_R   0.428336 0.837179 0.457329 -0.418799
C11   C     C_R   0.574266 0.247242 0.538181 0.577216
C12   C     C_R   0.428965 0.752652 0.458458 0.556732
C13   C     C_R   0.425758 0.255705 0.462114 0.189353
C14   C     C_R   0.573618 0.743905 0.538893 0.218984
C15   C     C_R   0.425142 0.171299 0.461975 0.150695
C16   C     C_R   0.575764 0.828165 0.537687 0.131218
C17   C     C_R   0.501409 0.123816 0.500124 -0.008787
C18   C     C_R   0.502514 0.875625 0.496270 -0.012926
C19   C     C_1   0.503196 0.036025 0.498906 -0.004788
C20   C     C_1   0.501822 0.963332 0.496880 -0.016642
C21   C     C_R   0.686152 0.486741 0.499384 0.898878
C22   C     C_R   0.313922 0.513426 0.499387 0.920709
C23   C     C_1   0.210402 0.523451 0.491171 -0.201721
C24   C     C_1   0.787796 0.478384 0.484718 -0.233775
C25   C     C_2   0.017746 0.540898 0.472938 0.394123
C26   C     C_2   0.975057 0.475096 0.452416 0.396271
C27   C     C_1   0.872784 0.474235 0.469109 -0.064876
C28   C     C_1   0.122973 0.533013 0.482406 -0.057824
C29   C     C_R   0.445817 0.463450 0.147070 0.383141
C30   C     C_R   0.429411 0.569114 0.843029 0.358715
C31   C     C_R   0.456722 0.449593 0.225063 0.310528
C32   C     C_R   0.432144 0.564724 0.763606 0.319001
C33   C     C_R   0.509605 0.500955 0.270849 -0.327820
C34   C     C_R   0.494088 0.503374 0.729099 -0.322097
C35   C     C_R   0.563303 0.559105 0.237284 0.066695
C36   C     C_R   0.554770 0.448225 0.773576 0.031031
H1    H     H_    0.632192 0.127011 0.571381 0.172360
H2    H     H_    0.369190 0.872667 0.427135 0.170464
N1    N     N_R   0.499970 0.292770 0.499970 -0.168013
N2    N     N_R   0.500030 0.707230 0.500030 -0.163995
O1    O     O_R   0.500000 0.433430 0.610870 -0.563371
O2    O     O_R   0.500000 0.566570 0.389130 -0.585436
O3    O     O_R   0.500010 0.566520 0.610900 -0.645682
O4    O     O_R   0.499990 0.433480 0.389100 -0.639822
O5    O     O_R   0.640340 0.423880 0.499970 -0.590113
O6    O     O_R   0.359660 0.576120 0.500030 -0.566999
O7    O     O_R   0.640350 0.556960 0.500000 -0.609972
O8    O     O_R   0.359650 0.443040 0.500000 -0.627667
Zn1   Zn    Zn3+2 0.500000 0.411140 0.499980 0.966530
Zn2   Zn    Zn3+2 0.500000 0.588860 0.500020 0.968291
O9    O     O_3   0.033061 0.407233 0.427701 -0.688759
C37   C     C_3   0.981049 0.359107 0.376860 0.076060
H3    H     H_    0.031941 0.338747 0.330626 0.158662
H4    H     H_    0.915014 0.391690 0.348018 0.129228
C38   C     C_3   0.953027 0.285445 0.418329 -0.330096
H5    H     H_    0.021492 0.248448 0.437144 0.221772
H6    H     H_    0.911272 0.304572 0.469577 0.219829
C39   C     C_3   0.889652 0.235197 0.367504 -0.992272
H7    H     H_    0.818944 0.270293 0.350737 0.263022
H8    H     H_    0.872217 0.181692 0.399050 0.261628
H9    H     H_    0.930195 0.215302 0.315577 0.267840
O10   O     O_3   0.960261 0.609031 0.497560 -0.682548
C40   C     C_3   0.001654 0.680188 0.478411 0.077819
H10   H     H_    0.939742 0.723823 0.458827 0.154128
H11   H     H_    0.053555 0.672912 0.430082 0.127807
C41   C     C_3   0.051836 0.715230 0.548694 -0.323269
H12   H     H_    0.996174 0.728013 0.593517 0.220814
H13   H     H_    0.111567 0.671593 0.571703 0.230242
C42   C     C_3   0.096494 0.792206 0.529479 -0.966210
H14   H     H_    0.156951 0.779753 0.488400 0.290738
H15   H     H_    0.127569 0.818385 0.582143 0.266997
H16   H     H_    0.038718 0.836366 0.504601 0.259043
O11   O     O_3   0.388552 0.415733 0.102732 -0.622752
C43   C     C_3   0.295996 0.458237 0.083660 0.094769
H17   H     H_    0.270749 0.435099 0.027653 0.156953
H18   H     H_    0.300147 0.523643 0.076598 0.111277
C44   C     C_3   0.218651 0.444039 0.142673 -0.311545
H19   H     H_    0.215548 0.378840 0.150114 0.231282
H20   H     H_    0.239933 0.470457 0.198304 0.238386
C45   C     C_3   0.116000 0.481789 0.117997 -1.016525
H21   H     H_    0.117085 0.547196 0.110756 0.268943
H22   H     H_    0.061824 0.471247 0.162137 0.267404
H23   H     H_    0.091514 0.454936 0.063395 0.276616
O12   O     O_3   0.362018 0.624128 0.877708 -0.639642
C46   C     C_3   0.282471 0.585490 0.906333 0.109497
H24   H     H_    0.265417 0.611770 0.963280 0.154804
H25   H     H_    0.299370 0.519850 0.914623 0.111580
C47   C     C_3   0.190485 0.600624 0.854120 -0.314261
H26   H     H_    0.173401 0.665911 0.845767 0.230016
H27   H     H_    0.205181 0.572085 0.797737 0.245943
C48   C     C_3   0.100933 0.566611 0.887867 -1.002195
H28   H     H_    0.115951 0.501122 0.895751 0.268345
H29   H     H_    0.035487 0.578104 0.848703 0.270714
H30   H     H_    0.083410 0.595363 0.943729 0.272046
O13   O     O_3   0.408069 0.389982 0.256754 -0.646383
C49   C     C_3   0.464096 0.315361 0.246229 0.143996
H31   H     H_    0.508336 0.300566 0.299311 0.144625
H32   H     H_    0.516745 0.313995 0.198279 0.133763
C50   C     C_3   0.393447 0.251105 0.230267 -0.316101
H33   H     H_    0.336974 0.252843 0.274893 0.241698
H34   H     H_    0.354189 0.263004 0.174567 0.236562
C51   C     C_3   0.449256 0.168029 0.228117 -0.985170
H35   H     H_    0.503550 0.163910 0.181753 0.270715
H36   H     H_    0.395898 0.122705 0.217483 0.267289
H37   H     H_    0.489065 0.154828 0.283357 0.259773
O14   O     O_3   0.363891 0.611798 0.719365 -0.633128
C52   C     C_3   0.390622 0.690923 0.718377 0.133916
H38   H     H_    0.469196 0.692571 0.701755 0.126138
H39   H     H_    0.380567 0.720009 0.775098 0.183143
C53   C     C_3   0.323349 0.738303 0.660341 -0.328726
H40   H     H_    0.334555 0.711456 0.602819 0.257800
H41   H     H_    0.244625 0.735131 0.675072 0.223896
C54   C     C_3   0.344840 0.825624 0.658915 -0.988828
H42   H     H_    0.326968 0.855012 0.714396 0.267030
H43   H     H_    0.299044 0.857375 0.613267 0.276228
H44   H     H_    0.424037 0.830119 0.647419 0.274275
N3    N     N_2   0.623426 0.607176 0.283032 -0.263688
H45   H     H_    0.629328 0.663589 0.262355 0.251468
C55   C     C_3   0.718214 0.567244 0.307165 -0.766956
H46   H     H_    0.755046 0.605477 0.349049 0.244575
H47   H     H_    0.766738 0.555774 0.257661 0.219694
H48   H     H_    0.708387 0.509513 0.334517 0.228624
N4    N     N_2   0.609286 0.381369 0.739391 -0.248093
H49   H     H_    0.682768 0.374506 0.757025 0.226572
C56   C     C_3   0.562243 0.307997 0.745595 -0.615170
H50   H     H_    0.609142 0.257798 0.719854 0.228871
H51   H     H_    0.488843 0.313546 0.715307 0.238565
H52   H     H_    0.552400 0.293431 0.806271 0.234323
O15   O     O_3   0.607359 0.627847 0.125700 -0.634543
C57   C     C_3   0.696835 0.594572 0.093775 0.098131
H53   H     H_    0.683782 0.585716 0.031754 0.141175
H54   H     H_    0.726256 0.536231 0.119352 0.115336
C58   C     C_3   0.775531 0.653363 0.104527 -0.327139
H55   H     H_    0.749251 0.710647 0.076416 0.230434
H56   H     H_    0.787583 0.665432 0.166242 0.220288
C59   C     C_3   0.873728 0.620544 0.070611 -0.992343
H57   H     H_    0.902174 0.563890 0.098823 0.270701
H58   H     H_    0.929327 0.664419 0.079419 0.269516
H59   H     H_    0.863849 0.609583 0.008512 0.269381
O16   O     O_3   0.623551 0.406171 0.895466 -0.630178
C60   C     C_3   0.705472 0.443515 0.926047 0.078993
H60   H     H_    0.693758 0.454440 0.987654 0.147621
H61   H     H_    0.716730 0.501497 0.898589 0.112153
C61   C     C_3   0.799961 0.387235 0.917807 -0.325372
H62   H     H_    0.790657 0.329507 0.945609 0.231854
H63   H     H_    0.813541 0.375502 0.856466 0.208834
C62   C     C_3   0.889679 0.422946 0.954186 -0.986354
H64   H     H_    0.901711 0.479936 0.926160 0.271328
H65   H     H_    0.956960 0.380693 0.947463 0.268159
H66   H     H_    0.878497 0.434098 0.015919 0.265430
O17   O     O_3   0.643101 0.285836 0.580854 -0.608292
C63   C     C_3   0.741676 0.258659 0.562421 0.084945
H67   H     H_    0.778909 0.311798 0.546936 0.174320
H68   H     H_    0.748285 0.216785 0.512659 0.118340
C64   C     C_3   0.796646 0.220942 0.632322 -0.375177
H69   H     H_    0.794082 0.265025 0.679994 0.227535
H70   H     H_    0.760062 0.168310 0.650578 0.212126
C65   C     C_3   0.904773 0.194720 0.615546 -0.960466
H71   H     H_    0.909486 0.151088 0.567546 0.265132
H72   H     H_    0.941895 0.165973 0.666707 0.267889
H73   H     H_    0.944271 0.247146 0.600908 0.264037
O18   O     O_3   0.352765 0.715599 0.423437 -0.627065
C66   C     C_3   0.356359 0.723175 0.343629 0.088746
H74   H     H_    0.432981 0.707649 0.323062 0.154678
H75   H     H_    0.330236 0.785219 0.326415 0.123134
C67   C     C_3   0.287713 0.666172 0.306048 -0.300779
H76   H     H_    0.311021 0.604035 0.324287 0.224962
H77   H     H_    0.210619 0.682093 0.324714 0.211167
C68   C     C_3   0.289551 0.669912 0.219374 -0.988140
H78   H     H_    0.264246 0.731122 0.199606 0.268926
H79   H     H_    0.239244 0.627767 0.194099 0.262945
H80   H     H_    0.365606 0.652899 0.199349 0.272792
N5    N     N_2   0.351405 0.300841 0.417916 -0.299818
H81   H     H_    0.370905 0.351854 0.393753 0.295209
C69   C     C_3   0.251222 0.306084 0.445067 -0.667493
H82   H     H_    0.214983 0.366892 0.435119 0.269002
H83   H     H_    0.249974 0.293755 0.507051 0.230144
H84   H     H_    0.207877 0.263837 0.412430 0.243640
N6    N     N_2   0.647263 0.698492 0.583765 -0.302149
H85   H     H_    0.628956 0.648711 0.611071 0.249667
C70   C     C_3   0.749834 0.698705 0.562737 -0.666934
H86   H     H_    0.783200 0.636592 0.554877 0.265639
H87   H     H_    0.791940 0.726843 0.609190 0.234641
H88   H     H_    0.757029 0.731706 0.509008 0.228024
N7    N     N_2   0.350185 0.135129 0.419042 -0.285718
H89   H     H_    0.378161 0.093454 0.379846 0.228947
C71   C     C_3   0.273325 0.105619 0.463619 -0.790281
H90   H     H_    0.210547 0.092043 0.425176 0.234023
H91   H     H_    0.245200 0.150766 0.506228 0.245595
H92   H     H_    0.301661 0.050095 0.493692 0.242477
N8    N     N_2   0.651280 0.864264 0.580088 -0.288896
H93   H     H_    0.676865 0.912809 0.554338 0.226761
C72   C     C_3   0.630060 0.878826 0.659491 -0.787045
H94   H     H_    0.695190 0.901941 0.688971 0.236265
H95   H     H_    0.614804 0.822664 0.687658 0.248111
H96   H     H_    0.565103 0.923853 0.664913 0.238525

loop_
_geom_bond_atom_site_label_1
_geom_bond_atom_site_label_2
_ccdc_geom_bond_type
O4    Zn1   S    
C22   O8    A    
C38   H5    S    
C4    C36   A    
C64   H70   S    
C52   H39   S    
O11   C43   S    
C41   H13   S    
O13   C49   S    
C24   C27   T    
C62   H64   S    
C40   H11   S    
C7    C8    T    
C69   H83   S    
C44   H19   S    
C25   C28   S    
C13   N5    S    
C15   N7    S    
C26   C27   S    
C56   H50   S    
C43   H18   S    
C66   H75   S    
C2    O2    A    
O18   C66   S    
N3    C55   S    
C51   H36   S    
C31   O13   S    
N7    C71   S    
C41   C42   S    
C29   O11   S    
O14   C52   S    
C39   H8    S    
C49   C50   S    
C70   H86   S    
C51   H37   S    
C68   H78   S    
C42   H15   S    
C38   C39   S    
C53   H40   S    
C71   H92   S    
C65   H73   S    
C17   C19   S    
C65   H72   S    
C19   C20   T    
C2    O4    A    
C72   H95   S    
C43   C44   S    
C49   H32   S    
C58   C59   S    
C52   H38   S    
C47   C48   S    
C3    C35   A    
C69   H84   S    
C1    O3    A    
C21   O5    A    
C14   N6    S    
C37   C38   S    
C54   H44   S    
C55   H47   S    
C39   H9    S    
C44   H20   S    
C41   H12   S    
C40   C41   S    
C4    O16   S    
N5    H81   S    
C21   O7    A    
C64   C65   S    
C67   H77   S    
C68   H79   S    
C42   H14   S    
C61   C62   S    
O1    Zn1   S    
C25   C26   D    
C37   H4    S    
C1    C34   S    
O7    Zn2   S    
C5    C29   A    
C46   H25   S    
C71   H91   S    
C43   H17   S    
C40   H10   S    
N8    H93   S    
C68   H80   S    
N4    H49   S    
C66   C67   S    
O16   C60   S    
C59   H58   S    
C60   C61   S    
C48   H28   S    
C5    C7    S    
C61   H62   S    
C6    C8    S    
C39   H7    S    
C46   H24   S    
C12   O18   S    
C6    C30   A    
O9    C37   S    
C32   C34   A    
C65   H71   S    
C12   N2    A    
C42   H16   S    
C57   H54   S    
N8    C72   S    
O10   C40   S    
C16   N8    S    
C56   H51   S    
C48   H29   S    
C61   H63   S    
C69   H82   S    
C63   C64   S    
O5    Zn1   S    
O17   C63   S    
C72   H96   S    
C49   H31   S    
C62   H66   S    
C31   C33   A    
C23   C28   T    
O12   C46   S    
C11   N1    A    
C9    C11   A    
C53   C54   S    
N5    C69   S    
C10   C12   A    
O2    Zn2   S    
C2    C33   S    
C11   O17   S    
O8    Zn1   S    
C22   O6    A    
C63   H68   S    
C38   H6    S    
C13   C15   A    
C67   H76   S    
C52   C53   S    
C14   C16   A    
C35   N3    S    
C4    C6    A    
C37   H3    S    
C45   H23   S    
C54   H42   S    
C46   C47   S    
C9    C17   A    
C15   C17   A    
C70   H88   S    
C62   H65   S    
C3    O15   S    
C55   H48   S    
C1    O1    A    
C47   H27   S    
C45   H21   S    
C3    C5    A    
C18   C20   S    
C9    H1    S    
C55   H46   S    
N1    Zn1   S    
O3    Zn2   S    
O6    Zn2   S    
C26   O9    S    
C50   H33   S    
C10   H2    S    
C60   H61   S    
C57   H53   S    
O15   C57   S    
C71   H90   S    
C29   C31   A    
C60   H60   S    
C59   H59   S    
C48   H30   S    
C30   C32   A    
C44   C45   S    
N7    H89   S    
C58   H55   S    
C10   C18   A    
C56   H52   S    
N2    Zn2   S    
C36   N4    S    
C33   C35   A    
C45   H22   S    
C34   C36   A    
C25   O10   S    
C30   O12   S    
C51   H35   S    
C53   H41   S    
C13   N1    A    
C66   H74   S    
N4    C56   S    
C14   N2    A    
N6    H85   S    
C57   C58   S    
C70   H87   S    
C50   C51   S    
C47   H26   S    
C67   C68   S    
C16   C18   A    
C72   H94   S    
C21   C24   S    
C64   H69   S    
C58   H56   S    
C22   C23   S    
C59   H57   S    
C32   O14   S    
C63   H67   S    
C54   H43   S    
N3    H45   S    
C50   H34   S    
N6    C70   S    
