data_mof_unit_6123.cif
_audit_creation_date              2012-12-11T21:22:55-0500
_audit_creation_method            fapswitch 2.2
_symmetry_space_group_name_H-M    P1
_symmetry_Int_Tables_number       1
_space_group_crystal_system       triclinic
_cell_length_a                    8.281728
_cell_length_b                    18.771222
_cell_length_c                    18.963798
_cell_angle_alpha                 104.15007
_cell_angle_beta                  92.827468
_cell_angle_gamma                 91.59064
_cell_volume                      2852.73457474

loop_
_atom_site_label
_atom_site_type_symbol
_atom_type_description
_atom_site_fract_x
_atom_site_fract_y
_atom_site_fract_z
_atom_type_partial_charge
Ba1   Ba    Ba6+2 0.155460 0.532000 0.467920 1.645892
Ba2   Ba    Ba6+2 0.654730 0.467990 0.532020 1.654745
C1    C     C_3   0.361894 0.698952 0.211568 -0.104373
C2    C     C_R   0.085865 0.913030 0.573822 0.035370
C3    C     C_R   0.236557 0.940643 0.608113 -0.088720
C4    C     C_3   0.907028 0.724869 0.327211 0.356829
C5    C     C_R   0.298769 0.009297 0.604083 -0.090833
C6    C     C_R   0.208728 0.053158 0.567952 0.035521
C7    C     C_R   0.054957 0.027371 0.535088 0.016479
C8    C     C_R   0.269128 0.122990 0.566012 -0.123885
C9    C     C_R   0.175121 0.170092 0.534880 -0.044338
C10   C     C_R   0.021049 0.144123 0.500617 0.003487
C11   C     C_R   0.962121 0.072268 0.500401 -0.002037
C12   C     C_3   0.381858 0.678693 0.284870 0.348851
C13   C     C_R   0.228783 0.243070 0.538457 -0.031532
C14   C     C_R   0.128251 0.289307 0.510297 -0.285969
C15   C     C_R   0.980835 0.263829 0.472326 0.033066
C16   C     C_3   0.939775 0.799612 0.311843 -0.364726
C17   C     C_R   0.926383 0.189599 0.466311 -0.061103
C18   C     C_R   0.841665 0.930017 0.503898 -0.001525
C19   C     C_R   0.783525 0.858044 0.503876 -0.000891
C20   C     C_R   0.879885 0.812449 0.537551 -0.046476
C21   C     C_R   0.026747 0.842491 0.575171 -0.055518
C22   C     C_R   0.779754 0.159595 0.428236 -0.037498
C23   C     C_3   0.445014 0.699323 0.648677 0.349766
C24   C     C_R   0.716296 0.089888 0.431203 0.039302
C25   C     C_R   0.808787 0.045857 0.467202 -0.024182
C26   C     C_R   0.748374 0.975023 0.469472 0.010728
C27   C     C_R   0.560854 0.063592 0.399592 0.147479
C28   C     C_3   0.810414 0.367069 0.309340 0.316024
C29   C     C_R   0.501406 0.993829 0.403349 -0.100393
C30   C     C_R   0.594357 0.949238 0.437321 0.009880
C31   C     C_R   0.629483 0.831864 0.469770 -0.039899
C32   C     C_R   0.535040 0.878946 0.438741 -0.107208
C33   C     C_R   0.576121 0.758875 0.466538 -0.002637
C34   C     C_3   0.415798 0.780822 0.670487 -0.385910
C35   C     C_R   0.676798 0.713098 0.495281 -0.287039
C36   C     C_R   0.826014 0.738322 0.531818 0.008163
C37   C     C_R   0.384510 0.511967 0.805809 -0.131410
C38   C     C_R   0.316241 0.527527 0.741188 0.018568
C39   C     C_R   0.148376 0.435981 0.811529 -0.204684
C40   C     C_3   0.790684 0.344772 0.226631 -0.404335
C41   C     C_R   0.075469 0.457190 0.752465 0.017966
C42   C     C_R   0.637537 0.551562 0.185810 -0.160158
C43   C     C_R   0.702525 0.553465 0.256003 0.004151
C44   C     C_R   0.449024 0.454837 0.196453 -0.149946
C45   C     C_3   0.892560 0.280810 0.679093 0.417115
C46   C     C_R   0.483742 0.473059 0.271880 0.061418
C47   C     C_R   0.302923 0.464066 0.842876 0.006518
C48   C     C_R   0.154802 0.505483 0.719305 -0.058705
C49   C     C_R   0.516143 0.497460 0.151833 -0.004097
C50   C     C_R   0.614823 0.520730 0.301113 -0.252641
C51   C     C_R   0.154130 0.368333 0.945584 -0.077069
C52   C     C_3   0.865673 0.705551 0.707330 0.222453
C53   C     C_R   0.045940 0.354624 0.995237 -0.061440
C54   C     C_R   0.054478 0.398775 0.065864 -0.069630
C55   C     C_R   0.181210 0.451077 0.088355 -0.107400
C56   C     C_3   0.880309 0.208300 0.701116 -0.369941
C57   C     C_R   0.307546 0.455188 0.042416 0.018331
C58   C     C_R   0.273091 0.426138 0.966312 0.040221
C59   C     C_R   0.467558 0.481750 0.070212 -0.010326
C60   C     C_R   0.584503 0.482379 0.017257 0.042484
C61   C     C_R   0.534851 0.466573 0.941314 0.005642
C62   C     C_R   0.371504 0.448811 0.915684 -0.018674
C63   C     C_R   0.752284 0.495725 0.036411 -0.079399
C64   C     C_3   0.838200 0.787754 0.724106 -0.409109
C65   C     C_R   0.860272 0.505606 0.985601 -0.076471
C66   C     C_R   0.811003 0.487585 0.912742 -0.048256
C67   C     C_3   0.383673 0.284178 0.709402 0.314026
C68   C     C_R   0.654088 0.460605 0.891109 -0.079728
C69   C     C_3   0.284907 0.303718 0.357198 0.320503
C70   C     C_3   0.214399 0.227481 0.319308 -0.406714
C71   C     C_3   0.445261 0.268924 0.780884 -0.345457
C72   C     C_R   0.994310 0.956619 0.537247 0.007415
H1    H     H_    0.309272 0.627023 0.281033 0.074524
H2    H     H_    0.185040 0.337867 0.381158 0.014652
H3    H     H_    0.374966 0.299368 0.401163 0.047416
H4    H     H_    0.235472 0.714597 0.202641 0.144822
H5    H     H_    0.113659 0.231909 0.279959 0.137381
H6    H     H_    0.168158 0.199256 0.359605 0.053799
H7    H     H_    0.308836 0.193998 0.289026 0.144807
H8    H     H_    0.511267 0.669478 0.295892 -0.067042
H9    H     H_    0.384962 0.650312 0.166952 0.066243
H10   H     H_    0.559661 0.690469 0.621354 -0.076036
H11   H     H_    0.350103 0.673254 0.608132 0.108821
H12   H     H_    0.685915 0.305103 0.208893 0.127051
H13   H     H_    0.502765 0.809636 0.715183 0.112843
H14   H     H_    0.430869 0.803622 0.622393 0.063550
H15   H     H_    0.291751 0.789682 0.689584 0.120112
H16   H     H_    0.882689 0.842862 0.352598 0.073662
H17   H     H_    0.834026 0.273024 0.623565 0.078611
H18   H     H_    0.023032 0.295649 0.677788 -0.129572
H19   H     H_    0.751564 0.190126 0.700880 0.141542
H20   H     H_    0.943091 0.165515 0.662134 0.069908
H21   H     H_    0.938189 0.214841 0.756545 0.101922
H22   H     H_    0.271618 0.249583 0.690486 -0.022704
H23   H     H_    0.770122 0.393887 0.205187 0.064738
H24   H     H_    0.357580 0.343396 0.718674 0.015004
H25   H     H_    0.352601 0.282600 0.821547 0.059170
H26   H     H_    0.557468 0.302485 0.802179 0.145451
H27   H     H_    0.962283 0.725809 0.382062 0.079048
H28   H     H_    0.471321 0.209806 0.772479 0.106208
H29   H     H_    0.306730 0.909519 0.638431 0.064038
H30   H     H_    0.416423 0.028658 0.630438 0.068044
H31   H     H_    0.169488 0.345514 0.514786 0.075974
H32   H     H_    0.388468 0.140540 0.590758 0.100246
H33   H     H_    0.097841 0.811047 0.604795 0.094452
H34   H     H_    0.902034 0.318918 0.203874 0.120056
H35   H     H_    0.711842 0.190810 0.397148 0.129673
H36   H     H_    0.381908 0.974162 0.379371 0.066748
H37   H     H_    0.415400 0.861334 0.414378 0.108983
H38   H     H_    0.773845 0.715772 0.326868 -0.077789
H39   H     H_    0.635931 0.656830 0.490820 0.073045
H40   H     H_    0.498968 0.539550 0.826869 0.089689
H41   H     H_    0.073863 0.400269 0.832799 0.076264
H42   H     H_    0.690740 0.588297 0.156639 0.075178
H43   H     H_    0.368855 0.407551 0.173774 0.074009
H44   H     H_    0.656093 0.527691 0.357509 0.065227
H45   H     H_    0.898012 0.691825 0.759848 0.046388
H46   H     H_    0.150796 0.329848 0.893001 0.055246
H47   H     H_    0.953639 0.310943 0.978463 0.068598
H48   H     H_    0.965397 0.391469 0.103594 0.076941
H49   H     H_    0.071938 0.812425 0.314882 0.149376
H50   H     H_    0.185451 0.485151 0.142804 0.128556
H51   H     H_    0.805752 0.496595 0.089270 0.077713
H52   H     H_    0.985223 0.522336 0.002139 0.083148
H53   H     H_    0.896045 0.492382 0.873341 0.076740
H54   H     H_    0.623066 0.433785 0.835183 0.128753
H55   H     H_    0.888354 0.799793 0.256696 0.112108
H56   H     H_    0.757693 0.671017 0.684876 0.067249
H57   H     H_    0.695994 0.388786 0.331527 0.005975
H58   H     H_    0.907796 0.410607 0.325186 0.082465
H59   H     H_    0.453812 0.805024 0.250880 0.204362
H60   H     H_    0.591979 0.743877 0.215127 0.176167
H61   H     H_    0.422005 0.150741 0.406295 0.180209
H62   H     H_    0.358461 0.078474 0.338781 0.168172
H63   H     H_    0.127441 0.575220 0.650835 0.192861
H64   H     H_    0.962582 0.555113 0.686203 0.185765
H65   H     H_    0.955348 0.819358 0.739493 0.124113
H66   H     H_    0.758937 0.802945 0.770506 0.096530
H67   H     H_    0.780110 0.802724 0.676191 0.076340
N1    N     N_3   0.473291 0.759624 0.208043 -0.494938
N2    N     N_3   0.462079 0.108375 0.365009 -0.512844
N3    N     N_3   0.067070 0.531577 0.663709 -0.433863
O1    O     O_2   0.114280 0.679350 0.549180 -0.458119
O2    O     O_2   0.745081 0.474738 0.747929 -0.501068
O3    O     O_3   0.813907 0.334955 0.729015 -0.595105
O4    O     O_3   0.866400 0.589600 0.543550 -0.465066
O5    O     O_3   0.444420 0.455520 0.411210 -0.481271
O6    O     O_2   0.612810 0.550740 0.677950 -0.450356
O7    O     O_3   0.444711 0.670373 0.710281 -0.649536
O8    O     O_2   0.559311 0.247002 0.523535 -0.493339
O9    O     O_3   0.502684 0.265597 0.658891 -0.579439
O10   O     O_3   0.362150 0.623490 0.415650 -0.483930
O11   O     O_2   0.240336 0.753051 0.472075 -0.486816
O12   O     O_3   0.361748 0.332370 0.305462 -0.632585
O13   O     O_3   0.996397 0.687889 0.663459 -0.632350
O14   O     O_3   0.326073 0.735544 0.339772 -0.612884
O15   O     O_2   0.197490 0.449210 0.322030 -0.473894
O16   O     O_3   0.950520 0.583920 0.376610 -0.476272
O17   O     O_2   0.030883 0.529299 0.244203 -0.508012
O18   O     O_3   0.975175 0.670281 0.273731 -0.596555
O19   O     O_2   0.696020 0.320600 0.450800 -0.455060
O20   O     O_3   0.943900 0.410390 0.456390 -0.491320
O21   O     O_3   0.448150 0.376500 0.584290 -0.454597
O22   O     O_3   0.849244 0.305288 0.334760 -0.641513
O23   O     O_3   0.365880 0.544470 0.588730 -0.475522
O24   O     O_3   0.859790 0.416060 0.623340 -0.442826
P1    P     P_3+3 0.941030 0.670050 0.569830 0.975270
P2    P     P_3+3 0.370400 0.428500 0.331430 0.982492
P3    P     P_3+3 0.913123 0.584523 0.285925 0.928492
P4    P     P_3+3 0.869270 0.329940 0.430110 0.971355
P5    P     P_3+3 0.872973 0.420459 0.715453 0.966070
P6    P     P_3+3 0.377193 0.718284 0.424505 0.937327
P7    P     P_3+3 0.432814 0.574146 0.681952 0.950042
P8    P     P_3+3 0.431784 0.282015 0.576282 0.948375

loop_
_geom_bond_atom_site_label_1
_geom_bond_atom_site_label_2
_ccdc_geom_bond_type
C34   H15   S    
Ba2   O6    S    
C71   H26   S    
C53   C54   A    
C53   H47   S    
O22   P4    S    
O15   P2    D    
C45   H18   S    
Ba1   O1    S    
C49   C59   S    
C67   H22   S    
C3    H29   S    
C15   P4    S    
C5    C6    A    
C64   H67   S    
C34   H14   S    
O21   P8    S    
O9    P8    S    
H59   N1    S    
C35   C36   A    
C13   P8    S    
C12   O14   S    
C33   C35   A    
C56   H19   S    
C22   C24   A    
C70   H5    S    
C69   H2    S    
C28   H58   S    
C55   C57   A    
C19   C31   A    
Ba1   O23   S    
Ba2   O4    S    
C13   C14   A    
C20   C36   A    
O2    P5    D    
Ba1   P2    S    
C54   C55   A    
Ba1   Ba2   S    
C4    H27   S    
Ba1   P1    S    
C7    C11   A    
O13   P1    S    
C9    C13   A    
O14   P6    S    
O18   P3    S    
C4    O18   S    
Ba1   O20   S    
C14   C15   A    
C63   C65   A    
C23   H10   S    
C67   C71   S    
C40   H12   S    
Ba2   P4    S    
C2    C72   A    
C70   H7    S    
C16   H49   S    
C67   H24   S    
Ba2   O5    S    
H61   N2    S    
O6    P7    D    
C57   C58   A    
C47   C62   S    
C52   H45   S    
C32   H37   S    
C39   C41   A    
C59   C60   A    
C1    N1    S    
C45   H17   S    
C39   H41   S    
C52   H56   S    
C43   P3    S    
C39   C47   A    
C51   C58   A    
C48   N3    S    
O4    P1    S    
C44   C46   A    
C51   C53   A    
C34   H13   S    
O24   P5    S    
C4    C16   S    
O1    P1    D    
C57   C59   A    
O7    P7    S    
O10   P6    S    
C65   C66   A    
C16   H16   S    
Ba1   O15   S    
C28   O22   S    
C40   H23   S    
Ba2   O20   S    
C37   C38   A    
C3    C5    A    
C2    C21   A    
C6    C7    A    
C18   C26   A    
C43   C50   A    
C30   C32   A    
C44   C49   A    
C67   O9    S    
O5    P2    S    
C44   H43   S    
C63   H51   S    
C56   H21   S    
C27   N2    S    
C60   C61   A    
H60   N1    S    
C29   C30   A    
C66   H53   S    
C61   C68   A    
C26   C30   A    
C27   C29   A    
C37   H40   S    
C21   H33   S    
O16   P3    S    
C23   H11   S    
C31   C32   A    
C24   C25   A    
C18   C72   A    
C10   C11   A    
Ba1   O5    S    
O19   P4    D    
Ba2   O21   S    
C1    C12   S    
C14   H31   S    
C46   P2    S    
C42   C49   A    
C66   C68   A    
C71   H28   S    
C37   C47   A    
H63   N3    S    
C5    H30   S    
C1    H9    S    
C65   H52   S    
C7    C72   A    
C12   H8    S    
C15   C17   A    
Ba2   O24   S    
C69   H3    S    
C42   C43   A    
O11   P6    D    
C36   P1    S    
O23   P7    S    
C68   H54   S    
C71   H25   S    
O20   P4    S    
C60   C63   A    
C33   P6    S    
C4    H38   S    
Ba1   O16   S    
C28   C40   S    
C22   H35   S    
C2    C3    A    
C16   H55   S    
Ba2   O19   S    
C38   P7    S    
C9    C10   A    
O3    P5    S    
C41   C48   A    
C52   C64   S    
H62   N2    S    
C52   O13   S    
C23   O7    S    
C58   C62   A    
C12   H1    S    
C17   C22   A    
C56   H20   S    
C69   C70   S    
C70   H6    S    
C45   O3    S    
H64   N3    S    
C45   C56   S    
C41   P5    S    
C38   C48   A    
C69   O12   S    
C10   C17   A    
O12   P2    S    
C31   C33   A    
C29   H36   S    
Ba1   O10   S    
C64   H65   S    
C8    H32   S    
C8    C9    A    
C23   C34   S    
C61   C62   A    
O8    P8    D    
C46   C50   A    
O17   P3    D    
C64   H66   S    
C18   C19   A    
C42   H42   S    
C24   C27   A    
C6    C8    A    
C51   H46   S    
C25   C26   A    
C20   C21   A    
C11   C25   A    
Ba1   O4    S    
C19   C20   A    
C1    H4    S    
C40   H34   S    
Ba2   O23   S    
C35   H39   S    
C28   H57   S    
C54   H48   S    
C55   H50   S    
C50   H44   S    
