data_mof_unit_41041.cif
_audit_creation_date              2012-12-11T17:36:18-0500
_audit_creation_method            fapswitch 2.2
_symmetry_space_group_name_H-M    P1
_symmetry_Int_Tables_number       1
_space_group_crystal_system       triclinic
_cell_length_a                    25.851301
_cell_length_b                    7.043238
_cell_length_c                    21.740463
_cell_angle_alpha                 90.000033
_cell_angle_beta                  96.318321
_cell_angle_gamma                 90.000053
_cell_volume                      3934.3910932

loop_
_atom_site_label
_atom_site_type_symbol
_atom_type_description
_atom_site_fract_x
_atom_site_fract_y
_atom_site_fract_z
_atom_type_partial_charge
O1    O     O_R   0.208650 0.594520 0.175450 -0.536087
O2    O     O_R   0.791350 0.405480 0.824550 -0.534022
O3    O     O_R   0.291350 0.094520 0.324550 -0.536087
O4    O     O_R   0.708650 0.905480 0.675450 -0.534023
O5    O     O_R   0.192980 0.260780 0.300160 -0.508522
O6    O     O_R   0.807020 0.739220 0.699840 -0.537946
O7    O     O_R   0.307020 0.760780 0.199840 -0.508521
O8    O     O_R   0.692980 0.239220 0.800160 -0.537941
C1    C     C_R   0.179702 0.432019 0.319375 0.713967
C2    C     C_R   0.821668 0.567671 0.682444 0.699147
C3    C     C_R   0.320298 0.932019 0.180625 0.713967
C4    C     C_R   0.678332 0.067671 0.817556 0.699144
O9    O     O_R   0.202550 0.264660 0.174420 -0.537777
O10   O     O_R   0.797450 0.735340 0.825580 -0.536538
O11   O     O_R   0.297450 0.764660 0.325580 -0.537776
O12   O     O_R   0.702550 0.235340 0.674420 -0.536536
O13   O     O_R   0.300990 0.096480 0.197920 -0.545400
O14   O     O_R   0.699010 0.903520 0.802080 -0.538571
O15   O     O_R   0.199010 0.596480 0.302080 -0.545400
O16   O     O_R   0.800990 0.403520 0.697920 -0.538571
C5    C     C_R   0.191322 0.433041 0.151392 0.676687
C6    C     C_R   0.808609 0.566951 0.848618 0.687465
C7    C     C_R   0.308678 0.933041 0.348608 0.676686
C8    C     C_R   0.691391 0.066951 0.651382 0.687467
O17   O     O_3   0.282290 0.427760 0.257860 -0.364682
O18   O     O_3   0.717710 0.572240 0.742140 -0.367609
O19   O     O_3   0.217710 0.927760 0.242140 -0.364683
O20   O     O_3   0.782290 0.072240 0.757860 -0.367609
V1    V     V_3+5 0.244010 0.152080 0.248540 1.430094
V2    V     V_3+5 0.755990 0.847920 0.751460 1.392810
V3    V     V_3+5 0.255990 0.652080 0.251460 1.430094
V4    V     V_3+5 0.744010 0.347920 0.748540 1.392815
C9    C     C_R   0.657599 0.062195 0.592233 -0.039201
C10   C     C_R   0.342374 0.937676 0.407889 -0.037019
C11   C     C_R   0.842401 0.562196 0.907767 -0.039202
C12   C     C_R   0.157625 0.437675 0.092111 -0.037020
C13   C     C_R   0.645901 0.131126 0.482710 -0.162143
C14   C     C_R   0.354209 0.866332 0.517282 -0.162230
C15   C     C_R   0.854100 0.631132 0.017289 -0.162144
C16   C     C_R   0.145791 0.366327 0.982718 -0.162231
C17   C     C_R   0.677909 0.119599 0.538363 -0.166941
C18   C     C_R   0.322272 0.877067 0.461566 -0.176360
C19   C     C_R   0.822091 0.619604 0.961637 -0.166939
C20   C     C_R   0.177727 0.377063 0.038434 -0.176359
C21   C     C_R   0.604461 0.016632 0.590185 -0.218282
C22   C     C_R   0.395347 0.986038 0.410193 -0.211636
C23   C     C_R   0.895539 0.516631 0.909815 -0.218283
C24   C     C_R   0.104653 0.486039 0.089807 -0.211636
C25   C     C_R   0.570557 0.030359 0.533980 0.086627
C26   C     C_R   0.429288 0.971640 0.466363 0.084369
C27   C     C_R   0.929443 0.530359 0.966020 0.086627
C28   C     C_R   0.070712 0.471640 0.033637 0.084369
C29   C     C_R   0.592655 0.088689 0.480085 0.139316
C30   C     C_R   0.407291 0.911487 0.520122 0.142048
C31   C     C_R   0.907345 0.588693 0.019915 0.139316
C32   C     C_R   0.092708 0.411483 0.979878 0.142048
C33   C     C_R   0.515682 0.991070 0.529378 0.059488
C34   C     C_R   0.484137 0.011468 0.471014 0.057550
C35   C     C_R   0.984318 0.491070 0.970622 0.059488
C36   C     C_R   0.015863 0.511469 0.028986 0.057549
C37   C     C_R   0.508558 0.069741 0.419225 -0.187401
C38   C     C_R   0.491293 0.932241 0.581131 -0.190592
C39   C     C_R   0.991442 0.569745 0.080775 -0.187400
C40   C     C_R   0.008707 0.432237 0.918870 -0.190591
C41   C     C_R   0.561560 0.106836 0.423821 -0.201837
C42   C     C_R   0.438361 0.893747 0.576425 -0.205647
C43   C     C_R   0.938440 0.606842 0.076178 -0.201838
C44   C     C_R   0.061639 0.393742 0.923576 -0.205647
H1    H     H_    0.578410 0.151557 0.382651 0.122703
H2    H     H_    0.421568 0.847906 0.617510 0.118800
H3    H     H_    0.921590 0.651566 0.117348 0.122703
H4    H     H_    0.078432 0.347898 0.882490 0.118799
H5    H     H_    0.408827 0.028925 0.367156 0.095608
H6    H     H_    0.590858 0.976325 0.633410 0.090433
H7    H     H_    0.091174 0.528929 0.132844 0.095608
H8    H     H_    0.909141 0.476321 0.866590 0.090435
H9    H     H_    0.281778 0.836205 0.460253 0.097952
H10   H     H_    0.718653 0.157261 0.539565 0.105992
H11   H     H_    0.218222 0.336199 0.039748 0.097953
H12   H     H_    0.781347 0.657268 0.960434 0.105992
H13   H     H_    0.662737 0.176329 0.441606 0.113069
H14   H     H_    0.337477 0.819141 0.558235 0.109333
H15   H     H_    0.837263 0.676338 0.058393 0.113069
H16   H     H_    0.162522 0.319134 0.941766 0.109334
H17   H     H_    0.487768 0.088488 0.373968 0.123575
H18   H     H_    0.512102 0.913216 0.626369 0.119524
H19   H     H_    0.012232 0.588494 0.126032 0.123575
H20   H     H_    0.987898 0.413211 0.873632 0.119523
C45   C     C_R   0.429305 0.792929 0.081754 -0.247206
C46   C     C_R   0.573737 0.196401 0.924482 -0.203253
C47   C     C_R   0.070695 0.292927 0.418245 -0.247206
C48   C     C_R   0.926263 0.696398 0.575516 -0.203254
H21   H     H_    0.449352 0.666815 0.068994 0.145423
H22   H     H_    0.556732 0.319591 0.943510 0.161416
H23   H     H_    0.050647 0.166813 0.431004 0.145423
H24   H     H_    0.943267 0.819587 0.556488 0.161415
C49   C     C_R   0.386969 0.777665 0.117291 0.296588
C50   C     C_R   0.609187 0.217432 0.880219 0.294317
C51   C     C_R   0.113030 0.277664 0.382708 0.296591
C52   C     C_R   0.890812 0.717430 0.619780 0.294320
C53   C     C_R   0.361836 0.940895 0.136755 -0.148686
C54   C     C_R   0.634941 0.056131 0.858785 -0.194034
C55   C     C_R   0.138164 0.440893 0.363245 -0.148687
C56   C     C_R   0.865059 0.556131 0.641215 -0.194027
C57   C     C_R   0.374578 0.113488 0.110651 -0.282608
C58   C     C_R   0.617410 0.877025 0.876288 -0.240209
C59   C     C_R   0.125422 0.613486 0.389349 -0.282609
C60   C     C_R   0.882589 0.377024 0.623712 -0.240217
H25   H     H_    0.352027 0.233203 0.120206 0.169293
H26   H     H_    0.634154 0.752434 0.858554 0.170400
H27   H     H_    0.147973 0.733202 0.379794 0.169293
H28   H     H_    0.865845 0.252433 0.641445 0.170399
C61   C     C_R   0.413870 0.129023 0.070825 0.320683
C62   C     C_R   0.577363 0.856988 0.914691 0.330742
C63   C     C_R   0.086129 0.629021 0.429175 0.320683
C64   C     C_R   0.922636 0.356985 0.585308 0.330738
C65   C     C_R   0.443435 0.968709 0.059023 0.025301
C66   C     C_R   0.557891 0.017567 0.942348 -0.014680
C67   C     C_R   0.056564 0.468707 0.440976 0.025301
C68   C     C_R   0.942108 0.517563 0.557651 -0.014680
C69   C     C_1   0.485013 0.982572 0.019349 -0.038625
C70   C     C_1   0.518602 0.999793 0.985002 -0.047758
C71   C     C_1   0.014986 0.482568 0.480650 -0.038625
C72   C     C_1   0.981397 0.499788 0.514997 -0.047758
N1    N     N_2   0.365729 0.597631 0.127026 -0.496701
H29   H     H_    0.393056 0.491578 0.131890 0.264046
C73   C     C_3   0.317977 0.558415 0.087014 -0.466140
H30   H     H_    0.293357 0.459219 0.110538 0.178168
H31   H     H_    0.326927 0.496574 0.042703 0.190812
H32   H     H_    0.294357 0.688638 0.076388 0.171122
N2    N     N_2   0.614706 0.400025 0.854720 -0.489772
H33   H     H_    0.652208 0.451032 0.859999 0.257176
C74   C     C_3   0.586749 0.425399 0.793635 -0.467701
H34   H     H_    0.602591 0.332146 0.759094 0.177574
H35   H     H_    0.589989 0.574817 0.778430 0.177015
H36   H     H_    0.544906 0.390989 0.794471 0.183695
N3    N     N_2   0.134271 0.097630 0.372973 -0.496702
H37   H     H_    0.106943 0.991576 0.368109 0.264045
C75   C     C_3   0.182023 0.058413 0.412984 -0.466144
H38   H     H_    0.206643 0.959222 0.389459 0.178171
H39   H     H_    0.173073 0.996565 0.457294 0.190812
H40   H     H_    0.205642 0.188636 0.423613 0.171122
N4    N     N_2   0.885295 0.900024 0.645279 -0.489767
H41   H     H_    0.847794 0.951034 0.640002 0.257178
C76   C     C_3   0.913256 0.925400 0.706363 -0.467739
H42   H     H_    0.897401 0.832203 0.740910 0.177593
H43   H     H_    0.910033 0.074835 0.721557 0.177025
H44   H     H_    0.955095 0.890921 0.705530 0.183692
N5    N     N_2   0.422859 0.305994 0.042464 -0.534844
H45   H     H_    0.461566 0.344754 0.047308 0.248409
C77   C     C_3   0.399648 0.322640 0.978976 -0.575548
H46   H     H_    0.401885 0.472662 0.963797 0.199902
H47   H     H_    0.358114 0.278811 0.974576 0.198103
H48   H     H_    0.420774 0.232812 0.947997 0.197595
N6    N     N_2   0.554911 0.675867 0.922245 -0.493268
H49   H     H_    0.552477 0.641938 0.967991 0.243826
C78   C     C_3   0.505644 0.648814 0.884399 -0.535601
H50   H     H_    0.474991 0.740333 0.900803 0.185198
H51   H     H_    0.492884 0.499008 0.887066 0.189618
H52   H     H_    0.509452 0.683456 0.835251 0.200096
N7    N     N_2   0.077141 0.805992 0.457536 -0.534844
H53   H     H_    0.038433 0.844751 0.452692 0.248408
C79   C     C_3   0.100351 0.822638 0.521024 -0.575548
H54   H     H_    0.098114 0.972660 0.536203 0.199903
H55   H     H_    0.141886 0.778811 0.525423 0.198103
H56   H     H_    0.079226 0.732809 0.552003 0.197594
N8    N     N_2   0.945088 0.175864 0.577754 -0.493267
H57   H     H_    0.947521 0.141934 0.532008 0.243826
C80   C     C_3   0.994355 0.148808 0.615600 -0.535588
H58   H     H_    0.025008 0.240327 0.599196 0.185195
H59   H     H_    0.007115 0.999002 0.612932 0.189619
H60   H     H_    0.990547 0.183448 0.664748 0.200095

loop_
_geom_bond_atom_site_label_1
_geom_bond_atom_site_label_2
_ccdc_geom_bond_type
O17   V3    S    
C51   C55   A    
O1    C5    A    
C78   H50   S    
N6    C78   S    
C9    C21   A    
C80   H58   S    
C16   H16   S    
O3    C7    A    
C79   H54   S    
C10   C18   A    
O1    V3    S    
O15   V3    S    
N7    H53   S    
C25   C33   A    
C71   C72   T    
N8    C80   S    
C5    C12   S    
C42   H2    S    
O7    C3    A    
C6    C11   S    
C38   H18   S    
C35   C40   A    
C26   C30   A    
C58   C62   A    
C36   C39   A    
C46   C66   A    
C57   C61   A    
C79   H55   S    
C23   H8    S    
C14   C18   A    
N5    C77   S    
C76   H42   S    
O4    C8    A    
C75   H40   S    
C25   C29   A    
C44   H4    S    
O19   V1    S    
N4    H41   S    
C48   H24   S    
O13   V1    S    
O2    V4    S    
C66   C70   S    
C77   H48   S    
O3    V1    S    
C65   C69   S    
C28   C36   A    
N7    C79   S    
C68   C72   S    
C1    O15   A    
C52   C56   A    
C15   C31   A    
C2    O16   A    
C16   C32   A    
C50   N2    S    
O2    C6    A    
C74   H36   S    
C77   H46   S    
C64   N8    S    
C54   C58   A    
C10   C22   A    
C21   C25   A    
C11   C19   A    
C16   C20   A    
C43   H3    S    
C1    C55   S    
C13   C29   A    
C34   C37   A    
O11   C7    A    
C11   C23   A    
C35   C36   A    
O12   C8    A    
C14   H14   S    
O17   V1    S    
C80   H59   S    
C24   H7    S    
C13   H13   S    
O10   V2    S    
C76   H43   S    
C46   H22   S    
O5    V1    S    
C53   C57   A    
C39   C43   A    
O7    V3    S    
C38   C42   A    
O19   V3    S    
C26   C34   A    
C61   N5    S    
C33   C38   A    
C79   H56   S    
C49   N1    S    
N8    H57   S    
O18   V4    S    
C15   C19   A    
C19   H12   S    
C50   C54   A    
C45   H21   S    
C64   C68   A    
C45   C49   A    
C21   H6    S    
O8    V4    S    
C63   N7    S    
C73   H31   S    
C4    C54   S    
C17   H10   S    
C37   C41   A    
N3    C75   S    
C31   C43   A    
C14   C30   A    
O20   V4    S    
O8    C4    A    
C7    C10   S    
O9    C5    A    
C3    C53   S    
C59   C63   A    
C69   C70   T    
C62   C66   A    
C37   H17   S    
C61   C65   A    
O6    V2    S    
C45   C65   A    
O18   V2    S    
C78   H52   S    
C63   C67   A    
C74   H34   S    
C80   H60   S    
C47   C67   A    
C12   C20   A    
C27   C35   A    
C78   H51   S    
C73   H30   S    
C40   C44   A    
C62   N6    S    
C56   C60   A    
C76   H44   S    
C29   C41   A    
C48   C52   A    
C74   H35   S    
O16   V4    S    
O9    V1    S    
N4    C76   S    
C57   H25   S    
C3    O13   A    
C39   H19   S    
C59   H27   S    
C20   H11   S    
O5    C1    A    
N2    C74   S    
C52   N4    S    
O6    C2    A    
C23   C27   A    
C75   H38   S    
O11   V3    S    
C30   C42   A    
C67   C71   S    
O12   V4    S    
N3    H37   S    
C22   C26   A    
C8    C9    S    
C9    C17   A    
O10   C6    A    
C2    C56   S    
C48   C68   A    
C73   H32   S    
C15   H15   S    
C32   C44   A    
N5    H45   S    
C75   H39   S    
C60   C64   A    
C33   C34   A    
N1    H29   S    
C41   H1    S    
O20   V2    S    
C46   C50   A    
C12   C24   A    
C27   C31   A    
C77   H47   S    
C13   C17   A    
N2    H33   S    
C49   C53   A    
O14   V2    S    
C47   H23   S    
C60   H28   S    
C24   C28   A    
C18   H9    S    
C58   H26   S    
C4    O14   A    
N6    H49   S    
N1    C73   S    
C51   N3    S    
C55   C59   A    
C47   C51   A    
C40   H20   S    
C22   H5    S    
O4    V2    S    
C28   C32   A    
