data_mof_unit_54259.cif
_audit_creation_date              2012-12-11T15:43:43-0500
_audit_creation_method            fapswitch 2.2
_symmetry_space_group_name_H-M    P1
_symmetry_Int_Tables_number       1
_space_group_crystal_system       monoclinic
_cell_length_a                    14.574231
_cell_length_b                    16.113093
_cell_length_c                    6.919825
_cell_angle_alpha                 90.0
_cell_angle_beta                  99.204396
_cell_angle_gamma                 90.0
_cell_volume                      1604.09979358

loop_
_atom_site_label
_atom_site_type_symbol
_atom_type_description
_atom_site_fract_x
_atom_site_fract_y
_atom_site_fract_z
_atom_type_partial_charge
O1    O     O_R   0.831700 0.662810 0.581550 -0.511538
O2    O     O_R   0.168300 0.337190 0.418450 -0.513425
O3    O     O_R   0.168300 0.162810 0.418450 -0.511539
O4    O     O_R   0.831700 0.837190 0.581550 -0.513423
O5    O     O_R   0.842890 0.834390 0.255500 -0.534848
O6    O     O_R   0.157110 0.165610 0.744500 -0.544482
O7    O     O_R   0.157110 0.334390 0.744500 -0.534849
O8    O     O_R   0.842890 0.665610 0.255500 -0.544483
O9    O     O_R   0.661690 0.835580 0.024130 -0.544604
O10   O     O_R   0.338310 0.164420 0.975870 -0.549081
O11   O     O_R   0.338310 0.335580 0.975870 -0.544603
O12   O     O_R   0.661690 0.664420 0.024130 -0.549082
C1    C     C_R   0.863213 0.866245 0.430655 0.801581
C2    C     C_R   0.136892 0.133687 0.569401 0.790818
C3    C     C_R   0.136787 0.366245 0.569345 0.801584
C4    C     C_R   0.863108 0.633687 0.430599 0.790818
C5    C     C_R   0.069077 0.063409 0.535584 -0.226522
C6    C     C_R   0.931197 0.936398 0.464657 -0.216193
C7    C     C_R   0.930923 0.563409 0.464416 -0.226526
C8    C     C_R   0.068803 0.436398 0.535343 -0.216194
H1    H     H_    0.019416 0.882978 0.277356 0.187569
H2    H     H_    0.980810 0.116892 0.722622 0.191067
H3    H     H_    0.980583 0.382977 0.722641 0.187568
H4    H     H_    0.019192 0.616892 0.277381 0.191069
C9    C     C_R   0.010492 0.934380 0.373490 -0.251967
C10   C     C_R   0.989799 0.065398 0.626807 -0.291859
C11   C     C_R   0.989507 0.434380 0.626508 -0.251971
C12   C     C_R   0.010202 0.565398 0.373195 -0.291858
O13   O     O_3   0.687240 0.750000 0.366320 -0.392977
O14   O     O_3   0.312760 0.250000 0.633680 -0.392976
V1    V     V_3+5 0.757720 0.750000 0.115230 1.583550
V2    V     V_3+5 0.242280 0.250000 0.884770 1.583548
O15   O     O_R   0.650500 0.664000 0.690740 -0.530946
O16   O     O_R   0.349500 0.336000 0.309260 -0.536046
O17   O     O_R   0.349500 0.164000 0.309260 -0.530946
O18   O     O_R   0.650500 0.836000 0.690740 -0.536046
C13   C     C_R   0.628008 0.636023 0.853123 0.828080
C14   C     C_R   0.372134 0.363858 0.146857 0.810843
C15   C     C_R   0.371992 0.136023 0.146877 0.828081
C16   C     C_R   0.627866 0.863858 0.853143 0.810845
C17   C     C_R   0.079809 0.995883 0.408780 0.427033
C18   C     C_R   0.920460 0.003917 0.591399 0.488751
C19   C     C_R   0.920190 0.495883 0.591218 0.427040
C20   C     C_R   0.079540 0.503918 0.408604 0.488752
V3    V     V_3+5 0.735670 0.750000 0.607790 1.625674
V4    V     V_3+5 0.264330 0.250000 0.392210 1.625670
O19   O     O_3   0.806150 0.750000 0.906560 -0.354182
O20   O     O_3   0.193850 0.250000 0.093440 -0.354184
C21   C     C_2   0.558432 0.931542 0.843099 -0.294594
C22   C     C_2   0.441058 0.068032 0.157089 -0.251143
C23   C     C_2   0.441568 0.431542 0.156901 -0.294591
C24   C     C_2   0.558942 0.568032 0.842910 -0.251143
C25   C     C_2   0.534286 0.965807 0.005759 -0.075595
C26   C     C_2   0.465454 0.033923 0.994503 -0.093424
C27   C     C_2   0.465713 0.465807 0.994240 -0.075594
C28   C     C_2   0.534546 0.533923 0.005496 -0.093425
H5    H     H_    0.472001 0.045055 0.300468 0.133666
H6    H     H_    0.526991 0.954181 0.699764 0.132678
H7    H     H_    0.527999 0.545055 0.699532 0.133665
H8    H     H_    0.473009 0.454181 0.300236 0.132678
S1    S     S_3+6 0.180585 0.983169 0.298301 0.024102
O21   O     O_2   0.265758 0.004948 0.442084 -0.335435
O22   O     O_2   0.189135 0.894974 0.232480 -0.305305
O23   O     O_3   0.173553 0.046114 0.102846 -0.493594
H9    H     H_    0.116060 0.028870 0.015748 0.327804
S2    S     S_3+6 0.818732 0.017297 0.698000 0.004782
O24   O     O_2   0.823034 0.960902 0.872154 -0.339514
O25   O     O_2   0.811389 0.105661 0.763880 -0.316985
O26   O     O_3   0.724656 0.993907 0.532473 -0.523708
H10   H     H_    0.671983 0.021692 0.580302 0.347025
S3    S     S_3+6 0.819414 0.483169 0.701695 0.024098
O27   O     O_2   0.734241 0.504948 0.557912 -0.335436
O28   O     O_2   0.810863 0.394973 0.767512 -0.305308
O29   O     O_3   0.826446 0.546112 0.897152 -0.493598
H11   H     H_    0.883935 0.528863 0.984256 0.327808
S4    S     S_3+6 0.181270 0.517298 0.302008 0.004784
O30   O     O_2   0.176968 0.460907 0.127849 -0.339514
O31   O     O_2   0.188614 0.605664 0.236138 -0.316983
O32   O     O_3   0.275345 0.493905 0.467535 -0.523707
H12   H     H_    0.328019 0.521689 0.419707 0.347025
H13   H     H_    0.434333 0.056240 0.850627 0.162227
H14   H     H_    0.565744 0.943749 0.149644 0.160719
H15   H     H_    0.565667 0.556240 0.149373 0.162227
H16   H     H_    0.434256 0.443749 0.850356 0.160719

loop_
_geom_bond_atom_site_label_1
_geom_bond_atom_site_label_2
_ccdc_geom_bond_type
O6    V2    S    
C27   C28   S    
S1    O23   S    
O15   V3    S    
S2    O25   D    
S4    O32   S    
C17   S1    S    
C25   C26   S    
O2    V4    S    
C22   C26   D    
C1    C6    S    
C5    C10   A    
O8    V1    S    
S4    O31   D    
C6    C18   A    
S2    O26   S    
C16   C21   S    
O12   C13   A    
C20   S4    S    
O4    C1    A    
S1    O22   D    
O16   V4    S    
H3    C11   S    
O5    C1    A    
O7    C3    A    
S2    O24   D    
O8    C4    A    
V1    O19   S    
V2    O20   S    
C2    C5    S    
O26   H10   S    
C6    C9    A    
C8    C20   A    
C7    C19   A    
O4    V3    S    
V3    O19   S    
C3    C8    S    
V4    O20   S    
O29   H11   S    
O18   C16   A    
S4    O30   D    
C9    C17   A    
S3    O28   D    
C13   C24   S    
C14   C23   S    
C12   C20   A    
O9    C16   A    
O15   C13   A    
C21   H6    S    
O13   V3    S    
C25   H14   S    
O11   C14   A    
O17   C15   A    
C7    C12   A    
C24   H7    S    
O10   V2    S    
O6    C2    A    
O18   V3    S    
O1    C4    A    
O2    C3    A    
O3    C2    A    
O11   V2    S    
O12   V1    S    
C10   C18   A    
C28   H15   S    
H1    C9    S    
C19   S3    S    
O7    V2    S    
O16   C14   A    
C22   H5    S    
O14   V4    S    
H4    C12   S    
S3    O29   S    
C8    C11   A    
O3    V4    S    
O23   H9    S    
S3    O27   D    
O13   V1    S    
O14   V2    S    
O1    V3    S    
C4    C7    S    
C21   C25   D    
C23   C27   D    
S1    O21   D    
C5    C17   A    
O9    V1    S    
O32   H12   S    
C11   C19   A    
C15   C22   S    
H2    C10   S    
C18   S2    S    
O10   C15   A    
C23   H8    S    
C27   H16   S    
O17   V4    S    
C26   H13   S    
C24   C28   D    
O5    V1    S    
