data_mof_unit_28313.cif
_audit_creation_date              2012-12-10T16:51:16-0500
_audit_creation_method            fapswitch 2.2
_symmetry_space_group_name_H-M    P1
_symmetry_Int_Tables_number       1
_space_group_crystal_system       triclinic
_cell_length_a                    27.799756
_cell_length_b                    8.692758
_cell_length_c                    7.575002
_cell_angle_alpha                 103.440388
_cell_angle_beta                  96.398029
_cell_angle_gamma                 95.113019
_cell_volume                      1756.7526636

loop_
_atom_site_label
_atom_site_type_symbol
_atom_type_description
_atom_site_fract_x
_atom_site_fract_y
_atom_site_fract_z
_atom_type_partial_charge
C1    C     C_R   0.498419 0.199723 0.452757 0.878989
C2    C     C_R   0.501581 0.800277 0.547243 0.878995
C3    C     C_R   0.100398 0.491973 0.473669 -0.031945
C4    C     C_R   0.899599 0.507959 0.526287 -0.031945
C5    C     C_R   0.119839 0.346283 0.424597 -0.169531
C6    C     C_R   0.880159 0.653650 0.575358 -0.169532
C7    C     C_R   0.087637 0.205525 0.344720 -0.103132
C8    C     C_R   0.912362 0.794408 0.655235 -0.103130
C9    C     C_R   0.131617 0.636033 0.510799 -0.032823
C10   C     C_R   0.868381 0.363900 0.489158 -0.032825
C11   C     C_R   0.353720 0.491546 0.493405 -0.208599
C12   C     C_R   0.646279 0.508424 0.506586 -0.208608
C13   C     C_R   0.969061 0.356078 0.472978 0.079734
C14   C     C_R   0.030936 0.643853 0.526977 0.079733
C15   C     C_R   0.981488 0.650092 0.558346 -0.044270
C16   C     C_R   0.018510 0.349840 0.441610 -0.044269
C17   C     C_R   0.950204 0.505104 0.517877 0.039034
C18   C     C_R   0.049794 0.494827 0.482078 0.039034
C19   C     C_R   0.938239 0.218679 0.474350 -0.049516
C20   C     C_R   0.061758 0.781253 0.525605 -0.049516
C21   C     C_R   0.888353 0.220455 0.470559 -0.081216
C22   C     C_R   0.111644 0.779478 0.529397 -0.081210
C23   C     C_R   0.407311 0.496480 0.497747 0.848487
C24   C     C_R   0.592688 0.503512 0.502251 0.848487
C25   C     C_R   0.036960 0.207281 0.353254 0.364110
C26   C     C_R   0.963038 0.792650 0.646703 0.364113
C27   C     C_2   0.497754 0.031068 0.427195 -0.324527
C28   C     C_2   0.502246 0.968932 0.572805 -0.324526
C29   C     C_R   0.171193 0.348954 0.448950 0.572788
C30   C     C_R   0.828805 0.650980 0.551005 0.572788
C31   C     C_R   0.181987 0.632556 0.517520 0.640296
C32   C     C_R   0.818010 0.367377 0.482440 0.640293
C33   C     C_R   0.284284 0.537710 0.661735 0.475271
C34   C     C_R   0.715712 0.462242 0.338240 0.475281
C35   C     C_R   0.334505 0.538522 0.659576 -0.266189
C36   C     C_R   0.665492 0.461448 0.340408 -0.266186
C37   C     C_R   0.320958 0.440710 0.327661 0.401370
C38   C     C_R   0.679044 0.559234 0.672326 0.401390
C39   C     C_R   0.271005 0.440898 0.331457 -0.161583
C40   C     C_R   0.728996 0.559033 0.668520 -0.161601
C41   C     C_R   0.252444 0.489357 0.496562 0.182858
C42   C     C_R   0.747554 0.510580 0.503409 0.182856
Cu1   Cu    Cu3+1 0.505380 0.517380 0.684380 1.019712
Cu2   Cu    Cu3+1 0.494620 0.482620 0.315620 1.019710
H1    H     H_    0.246112 0.403059 0.204619 0.210444
H2    H     H_    0.753890 0.596857 0.795355 0.210444
H3    H     H_    0.641509 0.422848 0.211487 0.223977
H4    H     H_    0.358487 0.577137 0.788500 0.223970
H5    H     H_    0.865720 0.109407 0.458527 0.208887
H6    H     H_    0.134278 0.890526 0.541431 0.208888
H7    H     H_    0.952270 0.108754 0.483605 0.209901
H8    H     H_    0.047728 0.891178 0.516350 0.209901
H9    H     H_    0.493586 0.957835 0.287695 0.188123
H10   H     H_    0.506414 0.042165 0.712305 0.188135
N1    N     N_R   0.200787 0.490565 0.492886 -0.434276
N2    N     N_R   0.799211 0.509369 0.507074 -0.434275
N3    N     N_2   0.486510 0.456430 0.038510 -0.223980
N4    N     N_2   0.513490 0.543570 0.961490 -0.223981
O1    O     O_R   0.503500 0.286120 0.619780 -0.635382
O2    O     O_R   0.496500 0.713880 0.380220 -0.635380
O3    O     O_R   0.494410 0.256780 0.308360 -0.533012
O4    O     O_R   0.505590 0.743220 0.691640 -0.533039
O5    O     O_R   0.434810 0.514700 0.655690 -0.637363
O6    O     O_R   0.565190 0.485300 0.344310 -0.637363
O7    O     O_R   0.425720 0.485350 0.344280 -0.508189
O8    O     O_R   0.574280 0.514650 0.655720 -0.508159
O9    O     O_2   0.191568 0.212146 0.434497 -0.514386
O10   O     O_2   0.808430 0.787787 0.565454 -0.514386
O11   O     O_2   0.787973 0.230205 0.451306 -0.468962
O12   O     O_2   0.212024 0.769730 0.548655 -0.468963
Cl1   Cl    Cl    0.339032 0.370778 0.110450 -0.505266
Cl2   Cl    Cl    0.660974 0.629145 0.889546 -0.505218
C43   C     C_2   0.452759 0.327154 0.930768 0.696794
H11   H     H_    0.440917 0.311470 0.788393 0.068207
O13   O     O_2   0.434748 0.228666 0.002865 -0.508852
C44   C     C_2   0.547249 0.672825 0.069224 0.696754
H12   H     H_    0.559075 0.688550 0.211615 0.068202
O14   O     O_2   0.565286 0.771246 0.997093 -0.508792
C45   C     C_2   0.106188 0.067452 0.225529 0.574789
H13   H     H_    0.136046 0.088244 0.149866 0.102355
O15   O     O_2   0.088856 0.930281 0.209904 -0.496876
C46   C     C_2   0.893810 0.932483 0.774424 0.574773
H14   H     H_    0.863951 0.911693 0.850080 0.102359
O16   O     O_2   0.911144 0.069653 0.790056 -0.496873
Cl3   Cl    Cl    0.738035 0.403482 0.127386 -0.511800
Cl4   Cl    Cl    0.261958 0.596466 0.872584 -0.511807
Cl5   Cl    Cl    0.996897 0.042605 0.213906 -0.534488
Cl6   Cl    Cl    0.003101 0.957323 0.786054 -0.534486

loop_
_geom_bond_atom_site_label_1
_geom_bond_atom_site_label_2
_ccdc_geom_bond_type
C8    C26   A    
C43   H11   S    
C14   C18   A    
C34   C42   A    
Cu1   Cu2   S    
C21   H5    S    
N4    C44   S    
C39   C41   A    
Cu2   O6    S    
C40   H2    S    
C3    C18   A    
C8    C46   S    
C7    C45   S    
C19   C21   A    
C44   O14   D    
C1    O1    A    
C2    O2    A    
C9    C22   A    
C25   Cl5   S    
C36   H3    S    
N3    C43   S    
C11   C37   A    
C41   N1    S    
Cu1   N4    S    
C42   N2    S    
C29   O9    S    
C31   O12   S    
C12   C36   A    
C24   O8    A    
C39   H1    S    
C23   O5    A    
C24   O6    A    
C43   O13   D    
Cu2   O7    S    
C35   H4    S    
C5    C29   A    
C10   C21   A    
C37   C39   A    
C38   Cl2   S    
C13   C19   A    
Cu1   O5    S    
C14   C20   A    
C22   H6    S    
C44   H12   S    
C4    C6    A    
C5    C7    A    
C28   H10   S    
C15   C26   A    
C6    C8    A    
C29   N1    A    
C30   N2    A    
C34   Cl3   S    
C33   Cl4   S    
C3    C9    A    
C10   C32   A    
Cu2   N3    S    
C4    C17   A    
C26   Cl6   S    
C6    C30   A    
C20   C22   A    
C46   O16   D    
C37   Cl1   S    
C4    C10   A    
C45   O15   D    
C16   C25   A    
C15   C17   A    
C40   C42   A    
C3    C5    A    
C1    O3    A    
C27   H9    S    
C32   O11   S    
Cu1   O1    S    
Cu2   O3    S    
C12   C24   S    
C7    C25   A    
C13   C17   A    
C33   C41   A    
C23   O7    A    
C11   C35   A    
C20   H8    S    
C38   C40   A    
N3    N4    D    
Cu2   O2    S    
Cu1   O8    S    
C11   C23   S    
C33   C35   A    
C34   C36   A    
C12   C38   A    
C9    C31   A    
C45   H13   S    
C19   H7    S    
C16   C18   A    
C46   H14   S    
C13   C16   A    
C27   C28   D    
C1    C27   S    
C14   C15   A    
C2    C28   S    
C31   N1    A    
C32   N2    A    
C30   O10   S    
C2    O4    A    
Cu1   O4    S    
