data_mof_unit_46502.cif
_audit_creation_date              2012-12-11T14:47:26-0500
_audit_creation_method            fapswitch 2.2
_symmetry_space_group_name_H-M    P1
_symmetry_Int_Tables_number       1
_space_group_crystal_system       triclinic
_cell_length_a                    19.477294
_cell_length_b                    6.965668
_cell_length_c                    19.430154
_cell_angle_alpha                 90.000296
_cell_angle_beta                  95.837155
_cell_angle_gamma                 89.999973
_cell_volume                      2622.46647048

loop_
_atom_site_label
_atom_site_type_symbol
_atom_type_description
_atom_site_fract_x
_atom_site_fract_y
_atom_site_fract_z
_atom_type_partial_charge
O1    O     O_R   0.673510 0.377480 0.186100 -0.525621
O2    O     O_R   0.326490 0.622520 0.813900 -0.525618
O3    O     O_R   0.826490 0.877480 0.313900 -0.525616
O4    O     O_R   0.173510 0.122520 0.686100 -0.525618
O5    O     O_R   0.807790 0.705750 0.184090 -0.539765
O6    O     O_R   0.192210 0.294250 0.815910 -0.539759
O7    O     O_R   0.692210 0.205750 0.315910 -0.539760
O8    O     O_R   0.307790 0.794250 0.684090 -0.539765
C1    C     C_1   0.478182 0.994457 0.521259 0.021765
C2    C     C_1   0.521814 0.005547 0.478738 0.021781
C3    C     C_1   0.021816 0.494456 0.978740 0.021740
C4    C     C_1   0.978184 0.505545 0.021261 0.021749
C5    C     C_R   0.830865 0.538298 0.166259 0.768259
C6    C     C_R   0.169135 0.461702 0.833741 0.768262
C7    C     C_R   0.669134 0.038299 0.333740 0.768239
C8    C     C_R   0.330865 0.961701 0.666259 0.768263
O9    O     O_R   0.672870 0.707110 0.178120 -0.518693
O10   O     O_R   0.327130 0.292890 0.821880 -0.518693
O11   O     O_R   0.827130 0.207110 0.321880 -0.518666
O12   O     O_R   0.172870 0.792890 0.678120 -0.518707
O13   O     O_R   0.690610 0.878650 0.307880 -0.503022
O14   O     O_R   0.309390 0.121350 0.692120 -0.503010
O15   O     O_R   0.809390 0.378650 0.192120 -0.503012
O16   O     O_R   0.190610 0.621350 0.807880 -0.503015
C9    C     C_R   0.647436 0.538841 0.161472 0.782371
C10   C     C_R   0.352564 0.461159 0.838528 0.782377
C11   C     C_R   0.852565 0.038840 0.338528 0.782381
C12   C     C_R   0.147436 0.961159 0.661471 0.782382
C13   C     C_1   0.382986 0.971557 0.614384 -0.157121
C14   C     C_1   0.617012 0.028446 0.385614 -0.157161
C15   C     C_1   0.117013 0.471558 0.885616 -0.157117
C16   C     C_1   0.882987 0.528443 0.114385 -0.157141
O17   O     O_3   0.755980 0.544260 0.292580 -0.359997
O18   O     O_3   0.244020 0.455740 0.707420 -0.360015
O19   O     O_3   0.744020 0.044260 0.207420 -0.360010
O20   O     O_3   0.255980 0.955740 0.792580 -0.360004
V1    V     V_3+5 0.748890 0.818640 0.242100 1.606370
V2    V     V_3+5 0.251110 0.181360 0.757900 1.606383
V3    V     V_3+5 0.751110 0.318640 0.257900 1.606412
V4    V     V_3+5 0.248890 0.681360 0.742100 1.606355
C17   C     C_R   0.085446 0.965334 0.609438 -0.224515
C18   C     C_R   0.914555 0.034664 0.390563 -0.224510
C19   C     C_R   0.414554 0.465332 0.890563 -0.224517
C20   C     C_R   0.585445 0.534667 0.109439 -0.224516
C21   C     C_1   0.426486 0.981545 0.571714 0.017186
C22   C     C_1   0.573511 0.018458 0.428283 0.017207
C23   C     C_1   0.073513 0.481546 0.928285 0.017165
C24   C     C_1   0.926487 0.518455 0.071715 0.017172
C25   C     C_R   0.026472 0.168253 0.433766 -0.238388
C26   C     C_R   0.973524 0.831769 0.566242 -0.238404
C27   C     C_R   0.473526 0.668251 0.066237 -0.238395
C28   C     C_R   0.526471 0.331744 0.933766 -0.238395
C29   C     C_R   0.971526 0.155444 0.381752 0.433430
C30   C     C_R   0.028469 0.844587 0.618257 0.433436
C31   C     C_R   0.528471 0.655434 0.118253 0.433418
C32   C     C_R   0.471528 0.344564 0.881749 0.433418
C33   C     C_R   0.916357 0.918692 0.450972 -0.079938
C34   C     C_R   0.083648 0.081278 0.549024 -0.079926
C35   C     C_R   0.583645 0.418712 0.049027 -0.079937
C36   C     C_R   0.416353 0.581284 0.950976 -0.079938
C37   C     C_R   0.972438 0.936142 0.504120 0.031537
C38   C     C_R   0.027564 0.063850 0.495881 0.031598
C39   C     C_R   0.527562 0.436143 0.995882 0.031577
C40   C     C_R   0.472436 0.563852 0.004121 0.031579
H1    H     H_    0.069038 0.261205 0.424769 0.190474
H2    H     H_    0.930952 0.738849 0.575247 0.190472
H3    H     H_    0.430959 0.761197 0.075235 0.190462
H4    H     H_    0.569038 0.238795 0.924768 0.190460
C41   C     C_R   0.139680 0.222559 0.541821 0.096341
C42   C     C_R   0.206586 0.161598 0.531351 -0.138423
C43   C     C_R   0.258348 0.296649 0.523413 -0.095942
C44   C     C_R   0.243610 0.492767 0.525408 -0.079673
C45   C     C_R   0.177022 0.554100 0.535132 -0.088338
C46   C     C_R   0.125323 0.419973 0.543834 -0.062543
H5    H     H_    0.218656 0.010325 0.529172 0.071009
H6    H     H_    0.309797 0.249391 0.515256 0.117441
H7    H     H_    0.283634 0.597167 0.519002 0.102375
H8    H     H_    0.165288 0.705469 0.535525 0.090571
H9    H     H_    0.073830 0.469492 0.551018 0.133237
C47   C     C_R   0.860343 0.777337 0.458162 0.096450
C48   C     C_R   0.874753 0.579929 0.456228 -0.062504
C49   C     C_R   0.823075 0.445735 0.464926 -0.088450
C50   C     C_R   0.756452 0.506989 0.474556 -0.079630
C51   C     C_R   0.741657 0.703098 0.476465 -0.095868
C52   C     C_R   0.793399 0.838220 0.468538 -0.138198
H10   H     H_    0.926274 0.530471 0.449114 0.133167
H11   H     H_    0.834853 0.294374 0.464602 0.090664
H12   H     H_    0.716442 0.402536 0.480956 0.102340
H13   H     H_    0.690178 0.750294 0.484547 0.117388
H14   H     H_    0.781283 0.989489 0.470648 0.070784
C53   C     C_R   0.360326 0.722586 0.958175 0.096380
C54   C     C_R   0.293408 0.661644 0.968624 -0.138373
C55   C     C_R   0.241653 0.796718 0.976561 -0.095924
C56   C     C_R   0.256409 0.992839 0.974583 -0.079658
C57   C     C_R   0.323007 0.054152 0.964878 -0.088370
C58   C     C_R   0.374699 0.920002 0.956178 -0.062528
H15   H     H_    0.281324 0.510369 0.970788 0.070954
H16   H     H_    0.190196 0.749475 0.984705 0.117427
H17   H     H_    0.216390 0.097257 0.980989 0.102362
H18   H     H_    0.334755 0.205522 0.964499 0.090590
H19   H     H_    0.426201 0.969505 0.949009 0.133226
C59   C     C_R   0.639671 0.277410 0.041828 0.096389
C60   C     C_R   0.625296 0.079989 0.043823 -0.062530
C61   C     C_R   0.676988 0.945839 0.035123 -0.088369
C62   C     C_R   0.743589 0.007155 0.025418 -0.079653
C63   C     C_R   0.758347 0.203281 0.023442 -0.095926
C64   C     C_R   0.706592 0.338355 0.031381 -0.138359
H20   H     H_    0.573792 0.030484 0.050992 0.133227
H21   H     H_    0.665238 0.794464 0.035502 0.090589
H22   H     H_    0.783608 0.902736 0.019011 0.102356
H23   H     H_    0.809806 0.250528 0.015298 0.117420
H24   H     H_    0.718680 0.489634 0.029221 0.070939
S1    S     S_3+6 0.021974 0.711026 0.695199 -0.017508
O21   O     O_2   0.062843 0.528713 0.692296 -0.356766
O22   O     O_2   0.049744 0.826315 0.757294 -0.348151
O23   O     O_3   0.939067 0.654895 0.702722 -0.500611
H25   H     H_    0.940396 0.575390 0.745109 0.372602
S2    S     S_3+6 0.978013 0.289060 0.304820 -0.017505
O24   O     O_2   0.950247 0.173808 0.242715 -0.348119
O25   O     O_2   0.937137 0.471354 0.307741 -0.356783
O26   O     O_3   0.060917 0.345228 0.297301 -0.500615
H26   H     H_    0.059575 0.424989 0.254974 0.372596
S3    S     S_3+6 0.478020 0.210979 0.804812 -0.017512
O27   O     O_2   0.437149 0.028673 0.807723 -0.356848
O28   O     O_2   0.450252 0.326245 0.742711 -0.348070
O29   O     O_3   0.560927 0.154837 0.797291 -0.500611
H27   H     H_    0.559581 0.074911 0.755004 0.372602
S4    S     S_3+6 0.521980 0.789024 0.195190 -0.017519
O30   O     O_2   0.549749 0.673761 0.257291 -0.348079
O31   O     O_2   0.562852 0.971329 0.192276 -0.356847
O32   O     O_3   0.439074 0.845169 0.202711 -0.500613
H28   H     H_    0.440420 0.925084 0.245000 0.372599

loop_
_geom_bond_atom_site_label_1
_geom_bond_atom_site_label_2
_ccdc_geom_bond_type
C34   C38   A    
C62   H22   S    
C1    C21   S    
C55   C56   A    
O5    V1    S    
C45   C46   A    
C5    C16   S    
C3    C23   S    
C57   C58   A    
O10   C10   A    
C6    C15   S    
C4    C24   S    
S4    O30   D    
C48   C49   A    
S3    O27   D    
O17   V3    S    
C25   H1    S    
O18   V4    S    
O19   V1    S    
C17   C34   A    
C41   C42   A    
C18   C29   A    
C43   H6    S    
O12   V4    S    
C25   C29   A    
S3    O28   D    
C63   C64   A    
C20   C35   A    
C49   H11   S    
O14   V2    S    
C30   S1    S    
C12   C17   S    
O23   H25   S    
C5    O15   A    
C64   H24   S    
C6    O16   A    
S2    O24   D    
C44   H7    S    
C53   C58   A    
C2    C22   S    
C45   H8    S    
O6    V2    S    
C42   C43   A    
O11   C11   A    
C1    C2    T    
O5    C5    A    
C48   H10   S    
C28   H4    S    
S1    O23   S    
O7    C7    A    
C50   H12   S    
O8    C8    A    
C15   C23   T    
C58   H19   S    
O1    C9    A    
C16   C24   T    
C33   C47   S    
C59   C60   A    
C9    C20   S    
C61   C62   A    
O4    C12   A    
C54   H15   S    
S2    O25   D    
C63   H23   S    
C41   C46   A    
C32   S3    S    
O20   V4    S    
C51   C52   A    
C53   C54   A    
C29   S2    S    
C47   C48   A    
S3    O29   S    
O9    V1    S    
O12   C12   A    
C8    C13   S    
C18   C33   A    
C13   C21   T    
S2    O26   S    
O18   V2    S    
O19   V3    S    
C47   C52   A    
O6    C6    A    
C50   C51   A    
C3    C4    T    
C59   C64   A    
O2    C10   A    
C27   H3    S    
C26   H2    S    
O26   H26   S    
C60   H20   S    
O11   V3    S    
C19   C36   A    
C10   C19   S    
O4    V2    S    
C56   C57   A    
C46   H9    S    
C51   H13   S    
O32   H28   S    
S4    O32   S    
C42   H5    S    
C7    C14   S    
S1    O21   D    
C36   C53   S    
C8    O14   A    
C25   C38   A    
C57   H18   S    
C35   C59   S    
C14   C22   T    
C27   C40   A    
C44   C45   A    
C28   C39   A    
S4    O31   D    
C52   H14   S    
C34   C41   S    
C33   C37   A    
C62   C63   A    
C35   C39   A    
C36   C40   A    
O9    C9    A    
O3    C11   A    
O10   V2    S    
C43   C44   A    
C26   C30   A    
C11   C18   S    
C61   H21   S    
C56   H17   S    
O29   H27   S    
O15   V3    S    
O20   V2    S    
C54   C55   A    
O16   V4    S    
C20   C31   A    
C27   C31   A    
C37   C38   A    
O17   V1    S    
C17   C30   A    
O1    V3    S    
C39   C40   A    
O2    V4    S    
C19   C32   A    
C7    O13   A    
O13   V1    S    
C31   S4    S    
O3    V1    S    
C49   C50   A    
C60   C61   A    
C26   C37   A    
O7    V3    S    
O8    V4    S    
C55   H16   S    
C28   C32   A    
S1    O22   D    
