data_mof_unit_62868.cif
_audit_creation_date              2012-12-10T20:05:25-0500
_audit_creation_method            fapswitch 2.2
_symmetry_space_group_name_H-M    P1
_symmetry_Int_Tables_number       1
_space_group_crystal_system       triclinic
_cell_length_a                    15.88005
_cell_length_b                    15.87954
_cell_length_c                    34.584764
_cell_angle_alpha                 90.000021
_cell_angle_beta                  90.000035
_cell_angle_gamma                 89.999345
_cell_volume                      8721.16693499

loop_
_atom_site_label
_atom_site_type_symbol
_atom_type_description
_atom_site_fract_x
_atom_site_fract_y
_atom_site_fract_z
_atom_type_partial_charge
C1    C     C_R   0.500000 1.000000 0.356072 0.569447
C2    C     C_R   0.660022 0.839978 0.750000 0.508134
C3    C     C_R   0.944971 0.643101 0.020137 -0.088377
C4    C     C_R   0.642114 0.057518 0.979862 -0.088363
C5    C     C_R   0.357886 0.942482 0.020138 -0.088363
C6    C     C_R   0.944971 0.643101 0.979863 -0.088377
C7    C     C_R   0.055029 0.356899 0.020137 -0.088377
C8    C     C_R   0.839978 0.339978 0.250000 0.508137
C9    C     C_R   0.160022 0.660022 0.750000 0.508137
C10   C     C_R   0.660022 0.839978 0.250000 0.508133
C11   C     C_R   0.339978 0.160022 0.750000 0.508133
C12   C     C_R   0.160022 0.660022 0.250000 0.508137
C13   C     C_R   0.839978 0.339978 0.750000 0.508137
C14   C     C_R   0.339979 0.839978 0.750000 0.513767
C15   C     C_R   0.660021 0.160022 0.250000 0.513766
C16   C     C_R   0.839978 0.660022 0.750000 0.513687
C17   C     C_R   0.500000 1.000000 0.643928 0.569447
C18   C     C_R   0.160021 0.339978 0.250000 0.513687
C19   C     C_R   0.660021 0.160022 0.750000 0.513766
C20   C     C_R   0.339979 0.839978 0.250000 0.513767
C21   C     C_R   0.160021 0.339978 0.750000 0.513687
C22   C     C_R   0.839979 0.660022 0.250000 0.513687
C23   C     C_1   0.276672 0.776671 0.250000 0.012653
C24   C     C_1   0.723328 0.223329 0.750000 0.012653
C25   C     C_1   0.223328 0.276671 0.250000 0.012596
C26   C     C_1   0.776672 0.723329 0.750000 0.012596
C27   C     C_1   0.723328 0.223329 0.250000 0.012653
C28   C     C_R   1.000000 0.500000 0.356071 0.569860
C29   C     C_1   0.276672 0.776671 0.750000 0.012653
C30   C     C_1   0.776672 0.723329 0.250000 0.012596
C31   C     C_1   0.223328 0.276671 0.750000 0.012596
C32   C     C_1   0.276671 0.223330 0.750000 0.009947
C33   C     C_1   0.723329 0.776670 0.250000 0.009947
C34   C     C_1   0.223329 0.723330 0.750000 0.009993
C35   C     C_1   0.776671 0.276670 0.250000 0.009993
C36   C     C_1   0.723329 0.776670 0.750000 0.009947
C37   C     C_1   0.276671 0.223330 0.250000 0.009947
C38   C     C_1   0.776671 0.276670 0.750000 0.009993
C39   C     C_R   1.000000 0.500000 0.643929 0.569860
C40   C     C_1   0.223329 0.723330 0.250000 0.009993
C41   C     C_R   0.928214 0.527162 0.418902 0.320033
C42   C     C_R   0.071786 0.472838 0.581098 0.320033
C43   C     C_R   0.473464 0.927977 0.418907 0.320071
C44   C     C_R   0.526536 0.072023 0.581093 0.320071
C45   C     C_R   0.071786 0.472838 0.418902 0.320034
C46   C     C_R   0.928214 0.527162 0.581098 0.320034
C47   C     C_R   0.526536 0.072023 0.418907 0.320071
C48   C     C_R   0.473464 0.927977 0.581092 0.320071
C49   C     C_R   0.571176 0.028708 0.918890 0.319960
C50   C     C_R   1.000000 0.500000 0.856071 0.570166
C51   C     C_R   0.428823 0.971292 0.081110 0.319960
C52   C     C_R   0.972522 0.571666 0.918900 0.320043
C53   C     C_R   0.027477 0.428333 0.081100 0.320043
C54   C     C_R   0.428824 0.971292 0.918890 0.319960
C55   C     C_R   0.571176 0.028708 0.081110 0.319960
C56   C     C_R   0.027477 0.428334 0.918900 0.320043
C57   C     C_R   0.972522 0.571666 0.081100 0.320043
C58   C     C_R   0.000000 0.500000 0.398549 0.030201
C59   C     C_R   1.000000 0.500000 0.601451 0.030201
C60   C     C_R   0.500000 1.000000 0.398552 0.030037
C61   C     C_R   1.000000 0.500000 0.143929 0.570166
C62   C     C_R   0.500000 1.000000 0.601448 0.030037
C63   C     C_R   0.500000 1.000000 0.898543 0.030692
C64   C     C_R   0.500000 1.000000 0.101457 0.030692
C65   C     C_R   1.000000 0.500000 0.898548 0.030346
C66   C     C_R   1.000000 0.500000 0.101452 0.030346
C67   C     C_R   0.072130 0.472741 0.459340 0.016407
C68   C     C_R   0.927870 0.527259 0.540660 0.016407
C69   C     C_R   0.526624 0.072367 0.459342 0.016390
C70   C     C_R   0.473376 0.927633 0.540658 0.016390
C71   C     C_R   0.927870 0.527258 0.459340 0.016407
C72   C     C_R   0.500000 0.000000 0.856069 0.571004
C73   C     C_R   0.072130 0.472742 0.540660 0.016407
C74   C     C_R   0.473376 0.927633 0.459342 0.016390
C75   C     C_R   0.526623 0.072367 0.540658 0.016390
C76   C     C_R   0.428488 0.971154 0.959334 0.016468
C77   C     C_R   0.571512 0.028846 0.040666 0.016468
C78   C     C_R   0.027598 0.427997 0.959338 0.016436
C79   C     C_R   0.972402 0.572003 0.040662 0.016436
C80   C     C_R   0.571512 0.028846 0.959334 0.016468
C81   C     C_R   0.428488 0.971154 0.040666 0.016468
C82   C     C_R   0.972402 0.572003 0.959338 0.016436
C83   C     C_R   0.500000 1.000000 0.143931 0.571004
C84   C     C_R   0.027598 0.427997 0.040662 0.016436
C85   C     C_R   1.000000 0.500000 0.479646 -0.038437
C86   C     C_R   1.000000 0.500000 0.520354 -0.038437
C87   C     C_R   0.500000 0.000000 0.479647 -0.038462
C88   C     C_R   0.500000 0.000000 0.520353 -0.038462
C89   C     C_R   0.500000 0.000000 0.979643 -0.038370
C90   C     C_R   0.500000 1.000000 0.020357 -0.038370
C91   C     C_R   1.000000 0.500000 0.979645 -0.038426
C92   C     C_R   1.000000 0.500000 0.020355 -0.038426
C93   C     C_R   0.143360 0.445667 0.479864 -0.088398
C94   C     C_R   0.339978 0.160022 0.250000 0.508134
C95   C     C_R   0.856640 0.554332 0.520136 -0.088398
C96   C     C_R   0.553065 0.143835 0.479865 -0.088410
C97   C     C_R   0.446935 0.856165 0.520135 -0.088410
C98   C     C_R   0.856640 0.554332 0.479863 -0.088397
C99   C     C_R   0.143360 0.445668 0.520136 -0.088397
C100  C     C_R   0.446935 0.856165 0.479865 -0.088410
C101  C     C_R   0.553065 0.143835 0.520135 -0.088410
C102  C     C_R   0.357886 0.942482 0.979862 -0.088363
C103  C     C_R   0.642114 0.057518 0.020138 -0.088363
C104  C     C_R   0.055029 0.356899 0.979863 -0.088377
F1    F     F_    0.859168 0.555009 0.399446 -0.603158
F2    F     F_    0.360436 0.941942 0.100588 -0.603619
F3    F     F_    0.944386 0.640590 0.899440 -0.603297
F4    F     F_    0.055614 0.359410 0.100560 -0.603297
F5    F     F_    0.360436 0.941942 0.899411 -0.603619
F6    F     F_    0.639564 0.058058 0.100589 -0.603619
F7    F     F_    0.055614 0.359410 0.899440 -0.603297
F8    F     F_    0.944386 0.640590 0.100560 -0.603297
F9    F     F_    0.140832 0.444991 0.600553 -0.603158
F10   F     F_    0.446238 0.858671 0.399460 -0.603005
F11   F     F_    0.553761 0.141329 0.600540 -0.603005
F12   F     F_    0.140832 0.444991 0.399447 -0.603159
F13   F     F_    0.859168 0.555009 0.600553 -0.603159
F14   F     F_    0.553762 0.141329 0.399460 -0.603006
F15   F     F_    0.446238 0.858671 0.600540 -0.603006
F16   F     F_    0.639564 0.058058 0.899412 -0.603619
H1    H     H_    0.199368 0.424449 0.464869 0.193492
H2    H     H_    0.697633 0.079991 0.035133 0.193364
H3    H     H_    0.076532 0.300992 0.964869 0.193440
H4    H     H_    0.923468 0.699008 0.035131 0.193440
H5    H     H_    0.697633 0.079991 0.964867 0.193364
H6    H     H_    0.302367 0.920009 0.035133 0.193364
H7    H     H_    0.923468 0.699008 0.964870 0.193440
H8    H     H_    0.076532 0.300992 0.035130 0.193440
H9    H     H_    0.800632 0.575551 0.535131 0.193492
H10   H     H_    0.573788 0.200029 0.464871 0.193532
H11   H     H_    0.426212 0.799971 0.535129 0.193532
H12   H     H_    0.800632 0.575551 0.464869 0.193492
H13   H     H_    0.199368 0.424449 0.535131 0.193492
H14   H     H_    0.426212 0.799971 0.464870 0.193532
H15   H     H_    0.573788 0.200029 0.535130 0.193532
H16   H     H_    0.302367 0.920009 0.964867 0.193364
O1    O     O_3   0.500000 0.000000 0.250000 -0.490141
O2    O     O_R   0.500000 0.930770 0.662510 -0.478801
O3    O     O_R   0.930770 0.500000 0.337490 -0.479003
O4    O     O_R   0.069230 0.500000 0.662510 -0.479003
O5    O     O_R   0.000000 0.430770 0.837490 -0.479077
O6    O     O_R   1.000000 0.569230 0.162510 -0.479078
O7    O     O_R   0.569230 0.000000 0.837490 -0.479523
O8    O     O_R   0.430770 0.000000 0.162510 -0.479523
O9    O     O_R   1.000000 0.569230 0.837490 -0.479078
O10   O     O_R   1.000000 0.430770 0.162510 -0.479078
O11   O     O_R   0.430770 0.000000 0.837490 -0.479523
O12   O     O_3   0.500000 0.000000 0.750000 -0.490141
O13   O     O_R   0.569230 0.000000 0.162510 -0.479523
O14   O     O_R   0.402530 0.166640 0.272980 -0.526975
O15   O     O_R   0.597470 0.833360 0.727020 -0.526975
O16   O     O_R   0.833360 0.402530 0.272980 -0.527164
O17   O     O_R   0.166640 0.597470 0.727020 -0.527164
O18   O     O_R   0.597470 0.833360 0.272980 -0.526975
O19   O     O_R   0.402530 0.166640 0.727020 -0.526975
O20   O     O_R   0.166640 0.597470 0.272980 -0.527164
O21   O     O_R   0.833360 0.402530 0.727020 -0.527164
O22   O     O_R   0.402530 0.833360 0.727020 -0.518830
O23   O     O_3   1.000000 0.500000 0.250000 -0.490176
O24   O     O_R   0.597470 0.166640 0.272980 -0.518830
O25   O     O_R   0.833360 0.597470 0.727020 -0.518705
O26   O     O_R   0.166640 0.402530 0.272980 -0.518705
O27   O     O_R   0.597470 0.166640 0.727020 -0.518830
O28   O     O_R   0.402530 0.833360 0.272980 -0.518830
O29   O     O_R   0.166640 0.402530 0.727020 -0.518705
O30   O     O_R   0.833360 0.597470 0.272980 -0.518705
O31   O     O_R   0.902530 0.666640 0.772980 -0.518787
O32   O     O_R   0.097470 0.333360 0.227020 -0.518787
O33   O     O_R   0.333360 0.902530 0.772980 -0.518596
O34   O     O_3   1.000000 0.500000 0.750000 -0.490176
O35   O     O_R   0.666640 0.097470 0.227020 -0.518596
O36   O     O_R   0.097470 0.333360 0.772980 -0.518787
O37   O     O_R   0.902530 0.666640 0.227020 -0.518787
O38   O     O_R   0.666640 0.097470 0.772980 -0.518596
O39   O     O_R   0.333360 0.902530 0.227020 -0.518596
O40   O     O_R   0.902530 0.333360 0.227020 -0.527231
O41   O     O_R   0.097470 0.666640 0.772980 -0.527231
O42   O     O_R   0.333360 0.097470 0.227020 -0.527525
O43   O     O_R   0.666640 0.902530 0.772980 -0.527525
O44   O     O_R   0.097470 0.666640 0.227020 -0.527231
O45   O     O_R   0.500000 0.930770 0.337490 -0.478800
O46   O     O_R   0.902530 0.333360 0.772980 -0.527231
O47   O     O_R   0.666640 0.902530 0.227020 -0.527525
O48   O     O_R   0.333360 0.097470 0.772980 -0.527525
O49   O     O_R   0.500000 0.069230 0.662510 -0.478800
O50   O     O_R   0.069230 0.500000 0.337490 -0.479004
O51   O     O_R   0.930770 0.500000 0.662510 -0.479004
O52   O     O_R   0.500000 0.069230 0.337490 -0.478801
Zn1   Zn    Zn3+2 0.401050 0.000000 0.217300 1.006014
Zn2   Zn    Zn3+2 0.098950 0.500000 0.282700 1.006120
Zn3   Zn    Zn3+2 0.500000 0.901050 0.717300 1.006207
Zn4   Zn    Zn3+2 0.500000 0.098950 0.282700 1.006207
Zn5   Zn    Zn3+2 0.098950 0.500000 0.717300 1.006120
Zn6   Zn    Zn3+2 0.901050 0.500000 0.282700 1.006120
Zn7   Zn    Zn3+2 0.500000 0.098950 0.717300 1.006207
Zn8   Zn    Zn3+2 0.500000 0.901050 0.282700 1.006208
Zn9   Zn    Zn3+2 0.598950 0.000000 0.782700 1.006014
Zn10  Zn    Zn3+2 1.000000 0.401050 0.217300 1.006082
Zn11  Zn    Zn3+2 1.000000 0.598950 0.782700 1.006082
Zn12  Zn    Zn3+2 0.598950 0.000000 0.217300 1.006014
Zn13  Zn    Zn3+2 0.401050 0.000000 0.782700 1.006015
Zn14  Zn    Zn3+2 1.000000 0.598950 0.217300 1.006082
Zn15  Zn    Zn3+2 1.000000 0.401050 0.782700 1.006082
Zn16  Zn    Zn3+2 0.901050 0.500000 0.717300 1.006120

loop_
_geom_bond_atom_site_label_1
_geom_bond_atom_site_label_2
_ccdc_geom_bond_type
O23   Zn6   S    
C87   C88   A    
C12   C40   S    
C49   C63   A    
C95   H9    S    
C46   C59   A    
C72   O7    A    
C68   C86   A    
C57   C79   A    
O25   Zn16  S    
O2    Zn3   S    
C45   F12   S    
C57   C66   A    
C69   C96   A    
C70   C88   A    
C10   O18   A    
C13   C38   S    
C5    C102  A    
C95   C98   A    
C56   C78   A    
C104  H3    S    
C85   C86   A    
C28   O3    A    
C41   F1    S    
C4    H5    S    
C14   O22   A    
C53   C84   A    
C6    C82   A    
O6    Zn14  S    
C8    O16   A    
C93   H1    S    
C41   C58   A    
C4    C80   A    
O44   Zn14  S    
C43   F10   S    
C83   O8    A    
C55   C77   A    
O12   Zn9   S    
C57   F8    S    
O8    Zn1   S    
C16   O31   A    
C56   C65   A    
C20   O28   A    
C4    C103  A    
C21   O29   A    
C99   H13   S    
C94   O42   A    
C80   C89   A    
O45   Zn8   S    
C47   C69   A    
O12   Zn7   S    
C25   C37   T    
C47   C60   A    
C71   C85   A    
C15   C27   S    
C61   C66   S    
O23   Zn10  S    
C8    O40   A    
C44   F11   S    
C17   O49   A    
C42   C73   A    
C5    H6    S    
C45   C67   A    
C24   C38   T    
O1    Zn12  S    
C17   O2    A    
C7    H8    S    
O4    Zn5   S    
C51   C81   A    
C56   F7    S    
O34   Zn16  S    
C69   C87   A    
O3    Zn6   S    
C11   O19   A    
C76   C89   A    
C41   C71   A    
O18   Zn8   S    
C3    C6    A    
C43   C74   A    
O15   Zn3   S    
C7    C84   A    
O1    Zn8   S    
C9    O17   A    
C96   C101  A    
C16   C26   S    
C10   O47   A    
O23   Zn2   S    
C18   C25   S    
O49   Zn7   S    
C14   O33   A    
C13   O21   A    
O34   Zn11  S    
C100  H14   S    
O12   Zn13  S    
C48   F15   S    
C101  H15   S    
C76   C102  A    
O7    Zn9   S    
C71   C98   A    
C77   C90   A    
C67   C85   A    
C68   C95   A    
C51   C64   A    
C78   C104  A    
O46   Zn15  S    
O30   Zn6   S    
O11   Zn13  S    
C52   F3    S    
C20   O39   A    
C1    C60   S    
C48   C70   A    
C91   C92   A    
O42   Zn1   S    
C1    O45   A    
O23   Zn14  S    
C74   C100  A    
O43   Zn9   S    
C44   C62   A    
O33   Zn13  S    
O51   Zn16  S    
C82   C91   A    
C46   F13   S    
O37   Zn14  S    
C47   F14   S    
C8    C35   S    
C22   O30   A    
O10   Zn10  S    
C44   C75   A    
C61   O10   A    
C64   C83   S    
C46   C68   A    
O35   Zn12  S    
C28   O50   A    
C17   C62   S    
O1    Zn4   S    
C5    C81   A    
C75   C88   A    
C42   F9    S    
C48   C62   A    
C31   C32   T    
C20   C23   S    
O27   Zn7   S    
C16   O25   A    
C39   C59   S    
C55   C64   A    
C21   C31   S    
O28   Zn8   S    
C79   C92   A    
C15   O35   A    
O21   Zn16  S    
C19   O27   A    
C52   C82   A    
C53   C66   A    
C97   H11   S    
O34   Zn15  S    
O32   Zn10  S    
C43   C60   A    
O1    Zn1   S    
C81   C90   A    
C50   O9    A    
C26   C36   T    
C12   O44   A    
C70   C97   A    
C11   C32   S    
C7    C104  A    
C55   F6    S    
O41   Zn11  S    
C9    C34   S    
C74   C87   A    
O36   Zn15  S    
C54   C76   A    
C77   C103  A    
C2    O43   A    
C12   O20   A    
C14   C29   S    
C45   C58   A    
C21   O36   A    
O26   Zn2   S    
C97   C100  A    
C9    O41   A    
C3    H4    S    
C96   H10   S    
C1    O52   A    
C2    C36   S    
C2    O15   A    
C73   C99   A    
C93   C99   A    
C39   O4    A    
O38   Zn9   S    
C18   O32   A    
O48   Zn13  S    
C22   C30   S    
C30   C33   T    
C11   O48   A    
O5    Zn15  S    
O40   Zn10  S    
O29   Zn5   S    
C42   C59   A    
O39   Zn1   S    
O34   Zn5   S    
C22   O37   A    
C50   O5    A    
O9    Zn11  S    
C28   C58   S    
C78   C91   A    
C94   O14   A    
C72   O11   A    
O47   Zn12  S    
C49   C80   A    
O16   Zn6   S    
O52   Zn4   S    
C27   C35   T    
C3    C79   A    
C19   C24   S    
C19   O38   A    
C39   O51   A    
C15   O24   A    
O22   Zn3   S    
C18   O26   A    
C53   F4    S    
O12   Zn3   S    
C51   F2    S    
C29   C34   T    
C67   C93   A    
C37   C94   S    
C10   C33   S    
C6    H7    S    
C50   C65   S    
C102  H16   S    
C73   C86   A    
O19   Zn7   S    
O13   Zn12  S    
O24   Zn4   S    
O14   Zn4   S    
C49   F16   S    
C61   O6    A    
O17   Zn5   S    
C63   C72   S    
C54   F5    S    
C13   O46   A    
C54   C63   A    
C98   H12   S    
C75   C101  A    
O31   Zn11  S    
O50   Zn2   S    
C84   C92   A    
C89   C90   A    
C103  H2    S    
C52   C65   A    
C23   C40   T    
C83   O13   A    
O20   Zn2   S    
