data_mof_unit_47999.cif
_audit_creation_date              2012-12-10T17:14:09-0500
_audit_creation_method            fapswitch 2.2
_symmetry_space_group_name_H-M    P1
_symmetry_Int_Tables_number       1
_space_group_crystal_system       triclinic
_cell_length_a                    15.906947
_cell_length_b                    13.000329
_cell_length_c                    11.686169
_cell_angle_alpha                 98.818077
_cell_angle_beta                  93.198686
_cell_angle_gamma                 90.877856
_cell_volume                      2383.66436036

loop_
_atom_site_label
_atom_site_type_symbol
_atom_type_description
_atom_site_fract_x
_atom_site_fract_y
_atom_site_fract_z
_atom_type_partial_charge
C1    C     C_R   0.503529 0.299531 0.479882 0.805058
C2    C     C_3   0.955731 0.491219 0.628259 0.285611
C3    C     C_3   0.916467 0.502036 0.501087 0.116562
C4    C     C_3   0.951142 0.605263 0.461690 -0.067789
C5    C     C_3   0.048523 0.614003 0.489981 -0.107185
C6    C     C_1   0.824094 0.500850 0.498565 0.013245
C7    C     C_1   0.175791 0.501547 0.502528 0.046166
C8    C     C_1   0.251109 0.500787 0.502372 -0.191711
C9    C     C_R   0.536674 0.811736 0.527861 -0.163612
C10   C     C_R   0.512625 0.186639 0.470255 -0.083360
C11   C     C_R   0.485024 0.017691 0.354798 -0.202778
C12   C     C_R   0.340363 0.500090 0.500814 0.846420
C13   C     C_R   0.477703 0.124621 0.369840 -0.239148
C14   C     C_R   0.555300 0.139911 0.558767 0.095446
C15   C     C_R   0.551807 0.030216 0.549204 0.046605
C16   C     C_R   0.522764 0.969560 0.443139 0.137224
C17   C     C_R   0.533054 0.861304 0.427291 0.067455
C18   C     C_R   0.564113 0.872403 0.635557 0.120939
C19   C     C_R   0.576856 0.979180 0.642401 -0.191916
C20   C     C_R   0.406613 0.422193 0.029130 -0.343019
C21   C     C_R   0.417738 0.427237 0.149533 0.102434
C22   C     C_R   0.542997 0.528720 0.153150 0.030887
C23   C     C_R   0.513047 0.699739 0.519736 0.794732
C24   C     C_R   0.534250 0.526297 0.031681 0.049801
C25   C     C_R   0.464994 0.472332 0.968382 0.022574
C26   C     C_R   0.456707 0.469649 0.845983 0.319206
C27   C     C_R   0.582310 0.572117 0.851778 0.027565
C28   C     C_R   0.592837 0.576624 0.972506 -0.341565
C29   C     C_R   0.659598 0.499886 0.499206 0.798803
C30   C     C_3   0.053588 0.473979 0.620066 -0.074205
C31   C     C_3   0.044799 0.416207 0.398580 0.279331
C32   C     C_3   0.946140 0.407567 0.411977 -0.157056
C33   C     C_1   0.748772 0.500088 0.497933 -0.196855
C34   C     C_3   0.083396 0.501995 0.501535 0.111516
Cu1   Cu    Cu3+1 0.506190 0.507730 0.615930 0.944343
Cu2   Cu    Cu3+1 0.493810 0.492270 0.384070 0.939113
H1    H     H_    0.940991 0.596625 0.366461 0.171071
H2    H     H_    0.458290 0.972407 0.275224 0.151272
H3    H     H_    0.600849 0.021499 0.724583 0.173187
H4    H     H_    0.445289 0.159113 0.301571 0.165354
H5    H     H_    0.064667 0.390441 0.621315 0.151971
H6    H     H_    0.628535 0.610168 0.807232 0.132058
H7    H     H_    0.352174 0.379525 0.985213 0.138770
H8    H     H_    0.646682 0.618856 0.019131 0.144225
H9    H     H_    0.372268 0.388666 0.194925 0.131176
H10   H     H_    0.596459 0.569098 0.202284 0.110805
H11   H     H_    0.932961 0.336117 0.448987 0.150748
H12   H     H_    0.056424 0.662590 0.576555 0.199155
N1    N     N_R   0.515490 0.519350 0.790130 -0.171938
N2    N     N_R   0.484510 0.480650 0.209890 -0.182767
O1    O     O_R   0.504390 0.354460 0.582000 -0.552983
O2    O     O_R   0.493940 0.341410 0.386200 -0.587694
O3    O     O_R   0.384660 0.506540 0.597940 -0.544776
O4    O     O_R   0.374210 0.493480 0.402140 -0.580323
O5    O     O_R   0.506060 0.658590 0.613800 -0.587890
O6    O     O_R   0.495610 0.645540 0.418000 -0.592506
O7    O     O_R   0.625790 0.506520 0.597860 -0.601084
O8    O     O_R   0.615340 0.493460 0.402060 -0.581280
N3    N     N_3   0.917895 0.402896 0.675242 -0.605226
H13   H     H_    0.852543 0.409003 0.676961 0.218716
H14   H     H_    0.931109 0.330704 0.628304 0.185978
N4    N     N_3   0.103184 0.527110 0.723433 -0.584109
H15   H     H_    0.116555 0.604892 0.718116 0.225093
H16   H     H_    0.161061 0.490771 0.730742 0.218008
N5    N     N_3   0.940882 0.586452 0.709844 -0.587919
H17   H     H_    0.963854 0.577214 0.793195 0.263483
H18   H     H_    0.875977 0.594079 0.717347 0.196842
C35   C     C_3   0.553707 0.804740 0.307628 -0.373332
C36   C     C_3   0.623330 0.860078 0.252655 -0.864100
H19   H     H_    0.601078 0.932360 0.222833 0.261664
H20   H     H_    0.678437 0.878998 0.315531 0.257993
H21   H     H_    0.644214 0.807961 0.175536 0.236189
H22   H     H_    0.581033 0.728391 0.314308 0.225869
H23   H     H_    0.496144 0.793198 0.248392 0.203930
N6    N     N_3   0.584346 0.828367 0.738556 -0.598824
H24   H     H_    0.626874 0.768504 0.719635 0.221513
H25   H     H_    0.529285 0.800274 0.768936 0.248720
C37   C     C_3   0.612704 0.204282 0.653364 -0.391064
C38   C     C_3   0.568955 0.235479 0.766539 -0.753878
H26   H     H_    0.596429 0.310427 0.812982 0.242423
H27   H     H_    0.500623 0.244226 0.749017 0.258301
H28   H     H_    0.577508 0.176505 0.825047 0.218313
H29   H     H_    0.670565 0.161060 0.670847 0.182008
H30   H     H_    0.637307 0.274948 0.622576 0.205332
N7    N     N_3   0.387014 0.414897 0.779451 -0.532406
H31   H     H_    0.385562 0.337674 0.794015 0.181055
H32   H     H_    0.331447 0.449724 0.807574 0.193062
N8    N     N_3   0.065538 0.445320 0.285743 -0.572725
H33   H     H_    0.051775 0.383684 0.218323 0.215897
H34   H     H_    0.030972 0.507588 0.264454 0.191054
N9    N     N_3   0.083471 0.314182 0.405487 -0.581295
H35   H     H_    0.061396 0.278851 0.472650 0.174390
H36   H     H_    0.065623 0.261912 0.330514 0.213933
N10   N     N_3   0.895132 0.391935 0.301224 -0.585771
H37   H     H_    0.898898 0.454988 0.256335 0.219814
H38   H     H_    0.915372 0.325747 0.248372 0.221187
C39   C     C_3   0.095287 0.675670 0.406503 -0.407275
C40   C     C_3   0.156007 0.759699 0.472088 -0.868072
H39   H     H_    0.120786 0.819037 0.527879 0.246299
H40   H     H_    0.203437 0.724769 0.526960 0.256003
H41   H     H_    0.189431 0.798972 0.409228 0.251111
H42   H     H_    0.132486 0.623959 0.345228 0.244062
H43   H     H_    0.049538 0.715023 0.353356 0.211615
C41   C     C_3   0.905878 0.708419 0.507582 -0.369902
C42   C     C_3   0.841238 0.740105 0.418007 -0.893108
H44   H     H_    0.873047 0.756805 0.340401 0.246838
H45   H     H_    0.792792 0.677530 0.390875 0.263309
H46   H     H_    0.809284 0.811570 0.456228 0.248960
H47   H     H_    0.872717 0.702984 0.586965 0.227996
H48   H     H_    0.952370 0.774119 0.529942 0.214656

loop_
_geom_bond_atom_site_label_1
_geom_bond_atom_site_label_2
_ccdc_geom_bond_type
C32   N10   S    
C18   N6    S    
Cu1   O3    S    
Cu1   Cu2   S    
C3    C6    S    
C39   C40   S    
C7    C8    T    
N7    H31   S    
C15   C19   A    
C42   H45   S    
Cu2   O8    S    
C36   H19   S    
C41   H47   S    
C20   C25   A    
C35   H23   S    
C15   C16   A    
C29   C33   S    
C18   C19   A    
C36   H20   S    
C41   C42   S    
C13   H4    S    
N4    H16   S    
C35   C36   S    
C37   H29   S    
C4    H1    S    
N5    H18   S    
Cu1   N1    S    
C30   H5    S    
C39   H42   S    
Cu2   O2    S    
C22   N2    A    
N8    H33   S    
C2    N5    S    
N3    H13   S    
N10   H37   S    
C21   N2    A    
C42   H46   S    
C21   H9    S    
N7    H32   S    
C5    H12   S    
N3    H14   S    
C30   C34   S    
Cu1   O5    S    
C23   O6    A    
C24   C25   A    
C10   C14   A    
C26   N1    A    
N9    H35   S    
C38   H27   S    
C37   C38   S    
C9    C23   S    
C35   H22   S    
C28   H8    S    
C36   H21   S    
N6    H24   S    
N4    H15   S    
Cu2   O6    S    
N9    H36   S    
C1    O1    A    
C11   C16   A    
C31   C32   S    
C8    C12   S    
C5    C34   S    
C31   C34   S    
C20   C21   A    
N10   H38   S    
N6    H25   S    
C39   H43   S    
C12   O3    A    
C19   H3    S    
C9    C17   A    
C22   H10   S    
N8    H34   S    
C40   H39   S    
C40   H40   S    
C30   N4    S    
Cu1   O1    S    
C7    C34   S    
C22   C24   A    
C3    C4    S    
C20   H7    S    
Cu2   N2    S    
C17   C35   S    
C31   N8    S    
C2    N3    S    
C1    C10   S    
C24   C28   A    
C29   O7    A    
C4    C5    S    
C10   C13   A    
C38   H28   S    
C23   O5    A    
C40   H41   S    
C42   H44   S    
C31   N9    S    
C6    C33   T    
Cu1   O7    S    
C2    C30   S    
C2    C3    S    
C25   C26   A    
C41   H48   S    
C11   C13   A    
C27   H6    S    
C16   C17   A    
C26   N7    S    
C4    C41   S    
C32   H11   S    
C5    C39   S    
C14   C37   S    
C3    C32   S    
C1    O2    A    
Cu2   O4    S    
C38   H26   S    
C37   H30   S    
C9    C18   A    
C29   O8    A    
N5    H17   S    
C27   C28   A    
C14   C15   A    
C11   H2    S    
C12   O4    A    
C27   N1    A    
