data_mof_unit_9700.cif
_audit_creation_date              2012-10-26T19:40:27-0400
_audit_creation_method            fapswitch 2.2
_symmetry_space_group_name_H-M    P1
_symmetry_Int_Tables_number       1
_space_group_crystal_system       triclinic
_cell_length_a                    9.759907
_cell_length_b                    10.924963
_cell_length_c                    13.650935
_cell_angle_alpha                 90.7341
_cell_angle_beta                  74.155464
_cell_angle_gamma                 88.743015
_cell_volume                      1399.646428

loop_
_atom_site_label
_atom_site_type_symbol
_atom_type_description
_atom_site_fract_x
_atom_site_fract_y
_atom_site_fract_z
_atom_type_partial_charge
C1    C     C_R   0.499574 0.734494 0.498379 0.564401
C2    C     C_R   0.388592 0.496589 0.812003 0.014219
C3    C     C_2   0.621052 0.063248 0.489352 0.219116
C4    C     C_R   0.425709 0.502475 0.699311 0.541531
C5    C     C_2   0.500961 0.132982 0.507069 -0.036188
C6    C     C_2   0.612478 0.929413 0.500102 -0.159979
C7    C     C_2   0.500139 0.866496 0.490724 -0.114518
C8    C     C_2   0.060521 0.594046 0.525854 0.363010
C9    C     C_2   0.920068 0.596984 0.501343 0.029111
C10   C     C_R   0.501265 0.265370 0.500576 0.574272
C11   C     C_R   0.574630 0.510684 0.302171 0.567917
C12   C     C_R   0.448724 0.501519 0.976319 0.057124
C13   C     C_R   0.797306 0.560894 0.032757 0.263127
C14   C     C_R   0.615163 0.532256 0.191975 0.001007
C15   C     C_R   0.258928 0.444059 0.860986 -0.060042
C16   C     C_R   0.224388 0.418273 0.963908 -0.134287
C17   C     C_R   0.317451 0.446353 0.021192 -0.058833
C18   C     C_R   0.486952 0.523532 0.869938 -0.028294
C19   C     C_R   0.549018 0.526108 0.032641 -0.024759
C20   C     C_R   0.694205 0.540366 0.979667 0.004892
C21   C     C_R   0.732125 0.538861 0.873515 0.311908
C22   C     C_R   0.627619 0.560169 0.824657 -0.086068
C23   C     C_R   0.509290 0.537425 0.139082 0.164239
C24   C     C_R   0.757937 0.553869 0.139661 0.183675
Cu1   Cu    Cu3+1 0.361370 0.499980 0.499980 1.078244
Cu2   Cu    Cu3+1 0.638630 0.500020 0.500020 1.058680
H1    H     H_    0.396505 0.093346 0.530447 0.077517
H2    H     H_    0.665924 0.593344 0.748785 0.196723
H3    H     H_    0.904101 0.651612 0.169567 0.329790
H4    H     H_    0.897752 0.850040 0.621489 0.337763
H5    H     H_    0.950561 0.346014 0.668318 0.356387
H6    H     H_    0.000171 0.580351 0.020355 0.343341
H7    H     H_    0.369839 0.636368 0.237006 0.346583
H8    H     H_    0.828172 0.051724 0.451606 0.329267
H9    H     H_    0.704235 0.881436 0.513395 0.136457
H10   H     H_    0.409761 0.910423 0.472741 0.149113
H11   H     H_    0.125621 0.431337 0.459381 0.184316
H12   H     H_    0.871363 0.685583 0.495462 0.148080
H13   H     H_    0.892445 0.418314 0.510497 0.236314
H14   H     H_    0.188690 0.413773 0.817453 0.219321
H15   H     H_    0.289116 0.415886 0.098918 0.195008
H16   H     H_    0.126312 0.372509 0.999008 0.171998
N1    N     N_2   0.152660 0.501340 0.501130 -0.349911
N2    N     N_2   0.846520 0.501370 0.501160 -0.343356
O1    O     O_R   0.382960 0.678040 0.499980 -0.428411
O2    O     O_2   0.179829 0.712301 0.660231 -0.169767
O3    O     O_2   0.149477 0.824770 0.512915 -0.347959
O4    O     O_3   0.926515 0.784280 0.661675 -0.502943
O5    O     O_2   0.006393 0.552481 0.772660 -0.183572
O6    O     O_2   0.930044 0.364673 0.866733 -0.305401
O7    O     O_3   0.863018 0.396394 0.697936 -0.537265
O8    O     O_3   0.932917 0.592893 0.978727 -0.618051
O9    O     O_3   0.369318 0.567929 0.188645 -0.690049
O10   O     O_3   0.752941 0.116983 0.463216 -0.653254
O11   O     O_R   0.617100 0.678080 0.500020 -0.533382
O12   O     O_R   0.325800 0.499940 0.650950 -0.448303
O13   O     O_R   0.559930 0.499980 0.650990 -0.504043
O14   O     O_R   0.382900 0.321920 0.499980 -0.527648
O15   O     O_R   0.617040 0.321960 0.500020 -0.423613
O16   O     O_R   0.440070 0.500020 0.349010 -0.503763
O17   O     O_R   0.674200 0.500060 0.349050 -0.431393
O18   O     O_3   0.855261 0.574785 0.194324 -0.674518
S1    S     S_3+6 0.086307 0.730510 0.590457 0.080180
S2    S     S_3+6 0.889529 0.462553 0.802603 0.044943

loop_
_geom_bond_atom_site_label_1
_geom_bond_atom_site_label_2
_ccdc_geom_bond_type
C12   C17   A    
H11   N1    S    
C2    C4    S    
Cu1   O12   S    
H8    O10   S    
C6    C7    D    
Cu1   O16   S    
Cu1   O1    S    
C2    C18   A    
C13   O8    S    
O6    S2    D    
C7    H10   S    
C19   C23   A    
C19   C20   A    
C8    N1    D    
O2    S1    D    
C3    C5    D    
C3    C6    S    
Cu2   O11   S    
Cu1   N1    S    
C18   C22   A    
C10   O15   A    
C1    O11   A    
Cu2   N2    S    
C5    C10   S    
O5    S2    D    
C22   H2    S    
C21   C22   A    
C20   C21   A    
C4    O13   A    
O3    S1    D    
C2    C15   A    
C1    O1    A    
H13   N2    S    
C12   C19   A    
H4    O4    S    
C9    H12   S    
Cu2   O13   S    
C14   C23   A    
C23   O9    S    
C11   O17   A    
H7    O9    S    
C3    O10   S    
C17   H15   S    
C15   H14   S    
Cu1   O14   S    
C8    S1    S    
C14   C24   A    
C15   C16   A    
C16   H16   S    
C6    H9    S    
C8    C9    S    
Cu2   O15   S    
C12   C18   A    
C11   C14   S    
H3    O18   S    
H6    O8    S    
O4    S1    S    
C24   O18   S    
C10   O14   A    
C13   C20   A    
C1    C7    S    
Cu1   Cu2   S    
C5    H1    S    
Cu2   O17   S    
C4    O12   A    
O7    S2    S    
C11   O16   A    
C13   C24   A    
H5    O7    S    
C16   C17   A    
C9    N2    D    
C21   S2    S    
