data_mof_unit_38827.cif
_audit_creation_date              2012-10-26T19:03:52-0400
_audit_creation_method            fapswitch 2.2
_symmetry_space_group_name_H-M    P1
_symmetry_Int_Tables_number       1
_space_group_crystal_system       triclinic
_cell_length_a                    15.989242
_cell_length_b                    12.997824
_cell_length_c                    11.714698
_cell_angle_alpha                 100.737181
_cell_angle_beta                  94.268027
_cell_angle_gamma                 94.356352
_cell_volume                      2375.3071588

loop_
_atom_site_label
_atom_site_type_symbol
_atom_type_description
_atom_site_fract_x
_atom_site_fract_y
_atom_site_fract_z
_atom_type_partial_charge
C1    C     C_R   0.498320 0.298887 0.477462 0.537905
C2    C     C_R   0.497980 0.185214 0.463331 -0.021089
C3    C     C_R   0.496566 0.012375 0.342573 -0.145932
C4    C     C_R   0.340057 0.498184 0.499710 0.525578
C5    C     C_R   0.496385 0.120803 0.352708 -0.140444
C6    C     C_R   0.499990 0.140906 0.563079 -0.129664
C7    C     C_R   0.502356 0.033310 0.554418 0.049862
C8    C     C_R   0.499086 0.968150 0.443009 0.002845
C9    C     C_R   0.498676 0.859944 0.433850 -0.154628
C10   C     C_R   0.499081 0.880700 0.644151 -0.129002
C11   C     C_R   0.507252 0.989814 0.655476 0.243678
C12   C     C_3   0.948875 0.417311 0.577041 0.160416
C13   C     C_R   0.437457 0.374190 0.016083 -0.037213
C14   C     C_R   0.439303 0.393588 0.141201 0.423824
C15   C     C_R   0.524605 0.553759 0.158629 -0.004953
C16   C     C_R   0.499295 0.701226 0.522011 0.538027
C17   C     C_R   0.522872 0.541404 0.035191 -0.045788
C18   C     C_R   0.475854 0.453920 0.962942 -0.093151
C19   C     C_R   0.468274 0.450488 0.839750 -0.032473
C20   C     C_R   0.569687 0.597288 0.858878 0.426251
C21   C     C_R   0.570206 0.613439 0.983146 0.218595
C22   C     C_R   0.659971 0.500436 0.500477 0.530953
C23   C     C_3   0.917875 0.499208 0.502196 0.020072
C24   C     C_3   0.048523 0.416479 0.585421 0.264519
C25   C     C_3   0.040936 0.455283 0.371802 0.511767
C26   C     C_3   0.939078 0.461890 0.368562 0.287017
C27   C     C_1   0.749593 0.499881 0.501657 -0.078905
C28   C     C_3   0.082559 0.496454 0.504380 0.049629
C29   C     C_3   0.848284 0.283971 0.607006 -0.019240
C30   C     C_3   0.824046 0.165974 0.573865 -0.385617
C31   C     C_3   0.083090 0.447587 0.719776 -0.201023
C32   C     C_3   0.179569 0.451784 0.748252 -0.266890
C33   C     C_3   0.201445 0.445112 0.875441 -0.493972
C34   C     C_3   0.961980 0.614360 0.565280 0.437178
C35   C     C_3   0.917603 0.790718 0.566279 0.018400
C36   C     C_3   0.919506 0.866714 0.481832 -0.416247
C37   C     C_3   0.607194 0.078246 0.797906 -0.022685
C38   C     C_3   0.626644 0.195109 0.849590 -0.386786
C39   C     C_3   0.064968 0.235445 0.607029 0.018891
C40   C     C_3   0.062849 0.126413 0.531349 -0.397280
C41   C     C_3   0.636578 0.756580 0.833263 0.016862
C42   C     C_3   0.677572 0.801375 0.737285 -0.386330
C43   C     C_3   0.393480 0.272130 0.939019 -0.259254
C44   C     C_3   0.403786 0.167267 0.980631 -0.266261
C45   C     C_3   0.063896 0.617209 0.556619 0.247760
C46   C     C_3   0.353633 0.075758 0.895769 -0.438136
C47   C     C_3   0.693409 0.678047 0.091451 -0.036711
C48   C     C_3   0.738639 0.774007 0.173531 -0.390720
C49   C     C_3   0.312865 0.329725 0.189405 -0.017136
C50   C     C_3   0.273368 0.262987 0.268385 -0.369753
C51   C     C_3   0.134645 0.496689 0.228945 -0.003787
C52   C     C_3   0.172693 0.590012 0.182581 -0.423195
C53   C     C_3   0.029138 0.254719 0.300456 0.086988
C54   C     C_3   0.003142 0.220870 0.170011 -0.410288
C55   C     C_3   0.813968 0.347789 0.265820 0.002123
C56   C     C_1   0.825112 0.499203 0.502210 -0.008019
C57   C     C_3   0.764337 0.250744 0.289443 -0.360768
C58   C     C_3   0.910543 0.540765 0.285702 -0.173157
C59   C     C_3   0.926488 0.505585 0.155329 -0.278054
C60   C     C_3   0.855290 0.524832 0.070942 -0.502199
C61   C     C_3   0.104899 0.726567 0.756973 0.023333
C62   C     C_3   0.188861 0.763376 0.829127 -0.417293
C63   C     C_3   0.099608 0.695410 0.477359 -0.160201
C64   C     C_3   0.137241 0.808222 0.531996 -0.306050
C65   C     C_3   0.173018 0.864535 0.440178 -0.482599
C66   C     C_3   0.868943 0.635172 0.725888 -0.009430
C67   C     C_1   0.175136 0.492968 0.502372 0.053705
C68   C     C_3   0.874489 0.707475 0.844725 -0.410899
C69   C     C_1   0.250451 0.494534 0.500129 -0.060561
C70   C     C_R   0.498360 0.815439 0.534143 -0.056780
Cu1   Cu    Cu3+1 0.506190 0.507730 0.615930 0.968128
Cu2   Cu    Cu3+1 0.493810 0.492270 0.384070 0.964064
H1    H     H_    0.932283 0.446088 0.666763 0.072657
H2    H     H_    0.873736 0.300735 0.700411 0.087412
H3    H     H_    0.878247 0.122815 0.596094 0.127204
H4    H     H_    0.770904 0.144136 0.623143 0.092144
H5    H     H_    0.804802 0.141821 0.479229 0.155318
H6    H     H_    0.172006 0.507213 0.932941 0.148951
H7    H     H_    0.178334 0.366891 0.891890 0.130345
H8    H     H_    0.270800 0.457020 0.896355 0.144842
H9    H     H_    0.207247 0.387350 0.691777 0.171221
H10   H     H_    0.211158 0.526603 0.734459 0.214594
H11   H     H_    0.059618 0.520747 0.763828 0.176247
H12   H     H_    0.497859 0.810552 0.348187 0.140061
H13   H     H_    0.052658 0.391323 0.767969 0.081125
H14   H     H_    0.966332 0.817625 0.638964 0.139579
H15   H     H_    0.855465 0.795679 0.601376 0.129733
H16   H     H_    0.863571 0.847448 0.416991 0.147022
H17   H     H_    0.918210 0.948224 0.530558 0.086394
H18   H     H_    0.976802 0.861960 0.434239 0.149515
H19   H     H_    0.647965 0.059376 0.724688 0.113724
H20   H     H_    0.625905 0.033193 0.865999 0.136167
H21   H     H_    0.589830 0.219126 0.924906 0.153414
H22   H     H_    0.694616 0.211406 0.880197 0.086043
H23   H     H_    0.495014 0.847653 0.721380 0.131237
H24   H     H_    0.612505 0.243274 0.782985 0.152525
H25   H     H_    0.007734 0.238300 0.654455 0.148336
H26   H     H_    0.120319 0.243373 0.671805 0.116703
H27   H     H_    0.119722 0.120320 0.482464 0.142763
H28   H     H_    0.062003 0.066267 0.587403 0.085083
H29   H     H_    0.005424 0.109907 0.469299 0.141380
H30   H     H_    0.677585 0.787448 0.914606 0.160377
H31   H     H_    0.573576 0.785333 0.844384 0.133064
H32   H     H_    0.655191 0.755004 0.649748 0.184648
H33   H     H_    0.663902 0.883657 0.741164 0.083288
H34   H     H_    0.494712 0.963289 0.256641 0.116647
H35   H     H_    0.746695 0.801292 0.748869 0.104351
H36   H     H_    0.285051 0.081953 0.901038 0.121617
H37   H     H_    0.367778 0.075764 0.804506 0.199371
H38   H     H_    0.369336 0.000004 0.918964 0.150539
H39   H     H_    0.471119 0.152538 0.987531 0.183775
H40   H     H_    0.380171 0.165079 0.066072 0.198825
H41   H     H_    0.325761 0.282268 0.921591 0.118268
H42   H     H_    0.419653 0.258669 0.853307 0.148350
H43   H     H_    0.730276 0.656973 0.015471 0.146179
H44   H     H_    0.690036 0.611799 0.139391 0.124503
H45   H     H_    0.494771 0.153978 0.274418 0.152731
H46   H     H_    0.701864 0.796883 0.249606 0.159194
H47   H     H_    0.801888 0.755887 0.205622 0.097244
H48   H     H_    0.746115 0.840863 0.127228 0.139247
H49   H     H_    0.282785 0.300095 0.099927 0.100884
H50   H     H_    0.299405 0.412533 0.215478 0.139514
H51   H     H_    0.299343 0.291116 0.360323 0.172588
H52   H     H_    0.204524 0.267228 0.261865 0.134125
H53   H     H_    0.286272 0.179657 0.240836 0.132736
H54   H     H_    0.106730 0.435356 0.153817 0.152296
H55   H     H_    0.186055 0.466349 0.276679 0.168889
H56   H     H_    0.498213 0.190348 0.647867 0.161641
H57   H     H_    0.199553 0.653808 0.255312 0.150640
H58   H     H_    0.224624 0.565147 0.128982 0.097560
H59   H     H_    0.124329 0.620774 0.128294 0.134421
H60   H     H_    0.979591 0.239253 0.356932 0.248044
H61   H     H_    0.075196 0.199159 0.319188 0.129044
H62   H     H_    0.055085 0.243069 0.118925 0.126387
H63   H     H_    0.988957 0.134108 0.148128 0.079293
H64   H     H_    0.945911 0.255762 0.143701 0.156334
H65   H     H_    0.819121 0.334733 0.170585 0.119521
H66   H     H_    0.775552 0.414027 0.289293 0.133721
H67   H     H_    0.424684 0.393666 0.781414 0.127834
H68   H     H_    0.747106 0.265433 0.380594 0.164682
H69   H     H_    0.705311 0.232986 0.230297 0.091601
H70   H     H_    0.802148 0.182012 0.274441 0.146883
H71   H     H_    0.793945 0.489057 0.089996 0.138045
H72   H     H_    0.854197 0.610721 0.077783 0.142341
H73   H     H_    0.867159 0.490135 0.980195 0.136083
H74   H     H_    0.983177 0.551313 0.135663 0.181252
H75   H     H_    0.939051 0.422291 0.134687 0.180431
H76   H     H_    0.844454 0.558783 0.294392 0.125651
H77   H     H_    0.944267 0.619056 0.312563 0.171701
H78   H     H_    0.559261 0.621313 0.214846 0.163893
H79   H     H_    0.063484 0.699985 0.819492 0.179047
H80   H     H_    0.079678 0.793963 0.727891 0.125944
H81   H     H_    0.210014 0.699951 0.873054 0.147688
H82   H     H_    0.238357 0.784415 0.773998 0.152097
H83   H     H_    0.181438 0.833280 0.897007 0.088829
H84   H     H_    0.225655 0.823417 0.401556 0.152990
H85   H     H_    0.123356 0.867935 0.369812 0.142432
H86   H     H_    0.197700 0.946159 0.481691 0.144826
H87   H     H_    0.089590 0.856674 0.572174 0.146578
H88   H     H_    0.190165 0.806085 0.597489 0.185560
H89   H     H_    0.790683 0.325396 0.598092 0.139104
H90   H     H_    0.153948 0.661791 0.436501 0.168644
H91   H     H_    0.052940 0.702597 0.406315 0.174355
H92   H     H_    0.846429 0.555692 0.738590 0.129612
H93   H     H_    0.821435 0.660454 0.666617 0.160959
H94   H     H_    0.894810 0.789341 0.837089 0.124266
H95   H     H_    0.812369 0.705647 0.880151 0.124627
H96   H     H_    0.920652 0.681121 0.906294 0.138306
N1    N     N_R   0.515490 0.519350 0.790130 -0.239463
N2    N     N_R   0.484510 0.480650 0.209890 -0.239196
O1    O     O_R   0.504390 0.354460 0.582000 -0.529679
O2    O     O_3   0.924886 0.687999 0.503903 -0.611571
O3    O     O_3   0.519609 0.053888 0.765197 -0.591762
O4    O     O_3   0.072899 0.314021 0.537218 -0.521137
O5    O     O_3   0.632237 0.645734 0.805284 -0.542300
O6    O     O_3   0.612813 0.702087 0.053427 -0.603054
O7    O     O_3   0.400279 0.321023 0.196316 -0.542697
O8    O     O_3   0.072296 0.529078 0.304335 -0.640206
O9    O     O_3   0.074232 0.355565 0.328355 -0.549111
O10   O     O_3   0.895973 0.359279 0.326257 -0.542486
O11   O     O_3   0.116700 0.641656 0.665565 -0.585762
O12   O     O_R   0.493940 0.341410 0.386200 -0.442981
O13   O     O_3   0.950745 0.635689 0.687495 -0.606603
O14   O     O_R   0.384660 0.506540 0.597940 -0.505161
O15   O     O_R   0.374210 0.493480 0.402140 -0.490551
O16   O     O_R   0.506060 0.658590 0.613800 -0.480141
O17   O     O_R   0.495610 0.645540 0.418000 -0.517262
O18   O     O_R   0.625790 0.506520 0.597860 -0.449298
O19   O     O_R   0.615340 0.493460 0.402060 -0.511767
O20   O     O_3   0.908101 0.314449 0.532887 -0.513472

loop_
_geom_bond_atom_site_label_1
_geom_bond_atom_site_label_2
_ccdc_geom_bond_type
C36   H17   S    
C63   H90   S    
C66   C68   S    
C66   O13   S    
C31   H13   S    
C41   C42   S    
C35   C36   S    
Cu1   O18   S    
C14   N2    A    
C24   O4    S    
C40   H27   S    
C45   O11   S    
C7    C8    A    
C48   H48   S    
C53   C54   S    
C36   H16   S    
C25   C28   S    
C63   H91   S    
C32   H9    S    
C12   C23   S    
C29   C30   S    
C55   H66   S    
C57   H70   S    
C53   H61   S    
C52   H57   S    
C18   C19   A    
C65   H84   S    
C60   H71   S    
C35   H14   S    
C58   H76   S    
C33   H6    S    
C39   H25   S    
C20   O5    S    
C61   C62   S    
C54   H63   S    
C54   H62   S    
C31   H11   S    
C62   H83   S    
C64   H87   S    
C13   C18   A    
C1    C2    S    
C55   O10   S    
C23   C26   S    
C40   H29   S    
C30   H5    S    
C35   H15   S    
C47   C48   S    
C8    C9    A    
C46   H36   S    
Cu1   N1    S    
C16   C70   S    
C51   O8    S    
C42   H35   S    
C47   O6    S    
C66   H93   S    
C58   H77   S    
C21   O6    S    
C20   N1    A    
C41   O5    S    
C54   H64   S    
C59   C60   S    
C61   H79   S    
C13   C14   A    
C35   O2    S    
C52   H59   S    
C64   H88   S    
C2    C6    A    
C39   O4    S    
C53   O9    S    
C4    C69   S    
C42   H33   S    
C44   C46   S    
C48   H47   S    
C49   O7    S    
C3    H34   S    
C47   H44   S    
C28   C45   S    
C11   O3    S    
C37   H19   S    
C51   C52   S    
C29   H89   S    
C23   C56   S    
C28   C67   S    
C50   H52   S    
C9    C70   A    
C65   H85   S    
C3    C8    A    
C39   C40   S    
C34   C45   S    
C25   O8    S    
C33   H7    S    
C39   H26   S    
C48   H46   S    
C29   H2    S    
C25   C26   S    
C45   C63   S    
C17   C21   A    
C41   H31   S    
C15   N2    A    
C5    H45   S    
C67   C69   T    
Cu2   N2    S    
C4    O15   A    
C7    C11   A    
C43   C44   S    
C59   H74   S    
Cu2   O17   S    
C37   C38   S    
C30   H4    S    
C31   C32   S    
C23   C34   S    
C49   H49   S    
C38   H22   S    
C17   C18   A    
C66   H92   S    
C34   O13   S    
C50   H53   S    
C4    O14   A    
C22   O19   A    
C53   H60   S    
C26   C58   S    
C47   H43   S    
C44   H40   S    
C6    H56   S    
C22   C27   S    
C46   H38   S    
C44   H39   S    
Cu1   O1    S    
C2    C5    A    
C60   H73   S    
Cu1   O16   S    
C41   H30   S    
C10   C70   A    
Cu2   O19   S    
C13   C43   S    
C34   O2    S    
C36   H18   S    
C15   C17   A    
C52   H58   S    
C37   H20   S    
C27   C56   T    
C51   H54   S    
Cu1   O14   S    
C50   H51   S    
C24   C28   S    
C65   H86   S    
C3    C5    A    
C16   O17   A    
C42   H32   S    
C40   H28   S    
C1    O12   A    
C25   O9    S    
C33   H8    S    
C6    C7    A    
C26   O10   S    
C32   H10   S    
C12   C24   S    
C61   O11   S    
C55   H65   S    
C62   H81   S    
C57   H69   S    
C51   H55   S    
C64   C65   S    
C55   C57   S    
C58   C59   S    
C24   C31   S    
Cu2   O12   S    
Cu1   Cu2   S    
C43   H42   S    
C16   O16   A    
C43   H41   S    
C30   H3    S    
C19   N1    A    
C10   H23   S    
C49   H50   S    
C38   H21   S    
C1    O1    A    
C12   O20   S    
C22   O18   A    
C32   C33   S    
C61   H80   S    
Cu2   O15   S    
C68   H96   S    
C14   O7    S    
C10   C11   A    
C9    H12   S    
C37   O3    S    
C63   C64   S    
C68   H95   S    
C62   H82   S    
C20   C21   A    
C57   H68   S    
C19   H67   S    
C49   C50   S    
C46   H37   S    
C38   H24   S    
C29   O20   S    
C12   H1    S    
C15   H78   S    
C60   H72   S    
C68   H94   S    
C59   H75   S    
