data_mof_unit_64568.cif
_audit_creation_date              2013-03-05T16:20:15-0500
_audit_creation_method            fapswitch 2.2
_symmetry_space_group_name_H-M    P1
_symmetry_Int_Tables_number       1
_space_group_crystal_system       monoclinic
_cell_length_a                    44.392713
_cell_length_b                    38.884797
_cell_length_c                    21.63459
_cell_angle_alpha                 90.0
_cell_angle_beta                  60.918898
_cell_angle_gamma                 90.0
_cell_volume                      32637.5931829

loop_
_atom_site_label
_atom_site_type_symbol
_atom_site_description
_atom_site_fract_x
_atom_site_fract_y
_atom_site_fract_z
_atom_type_partial_charge
O1    O     O_R   0.050900 0.528720 0.449120 -0.591719
O2    O     O_R   0.949100 0.528720 0.550880 -0.591719
O3    O     O_R   0.550900 0.028720 0.449120 -0.597630
O4    O     O_R   0.449100 0.028720 0.550880 -0.597630
O5    O     O_R   0.050870 0.471230 0.449150 -0.616475
O6    O     O_R   0.949130 0.471230 0.550850 -0.616474
O7    O     O_R   0.550870 0.971230 0.449150 -0.612078
O8    O     O_R   0.449130 0.971230 0.550850 -0.612078
C1    C     C_R   0.067143 0.499973 0.433381 0.972075
C2    C     C_R   0.932856 0.499973 0.566618 0.972075
C3    C     C_R   0.567137 0.999962 0.433231 0.985127
C4    C     C_R   0.432863 0.999962 0.566769 0.985127
O9    O     O_R   0.000000 0.528720 0.591610 -0.590445
O10   O     O_R   1.000000 0.528720 0.408390 -0.590445
O11   O     O_R   0.500000 0.028720 0.591610 -0.610409
O12   O     O_R   0.500000 0.028720 0.408390 -0.610409
O13   O     O_R   0.999960 0.471230 0.591650 -0.632936
O14   O     O_R   0.000040 0.471230 0.408350 -0.632936
O15   O     O_R   0.499960 0.971230 0.591650 -0.628480
O16   O     O_R   0.500040 0.971230 0.408350 -0.628480
C5    C     C_R   0.999997 0.499952 0.619946 0.900552
C6    C     C_R   0.000003 0.499952 0.380054 0.900553
C7    C     C_R   0.499738 0.999937 0.620439 0.913789
C8    C     C_R   0.500262 0.999937 0.379561 0.913790
Zn1   Zn    Zn3+2 1.000000 0.538360 0.500000 1.101470
Zn2   Zn    Zn3+2 0.500000 0.038360 0.500000 1.064130
Zn3   Zn    Zn3+2 1.000000 0.461590 0.500000 1.034534
Zn4   Zn    Zn3+2 0.500000 0.961590 0.500000 1.041083
C9    C     C_R   0.978777 0.520566 0.740128 0.003750
C10   C     C_R   0.021223 0.520566 0.259872 0.003751
C11   C     C_R   0.508980 0.028247 0.710886 0.046140
C12   C     C_R   0.491019 0.028247 0.289114 0.046138
C13   C     C_R   0.000701 0.499717 0.684690 -0.033509
C14   C     C_R   0.999299 0.499717 0.315310 -0.033509
C15   C     C_R   0.499263 0.999563 0.686818 -0.060225
C16   C     C_R   0.500737 0.999563 0.313182 -0.060225
C17   C     C_R   0.023320 0.477769 0.694242 -0.129847
C18   C     C_R   0.976680 0.477769 0.305757 -0.129847
C19   C     C_R   0.489191 0.969731 0.729445 -0.173552
C20   C     C_R   0.510809 0.969731 0.270555 -0.173551
H1    H     H_    0.040970 0.461122 0.651919 0.172828
H2    H     H_    0.959030 0.461122 0.348081 0.172828
H3    H     H_    0.481121 0.946705 0.713322 0.183413
H4    H     H_    0.518879 0.946705 0.286678 0.183413
C21   C     C_R   0.023457 0.477892 0.758867 -0.172603
C22   C     C_R   0.976543 0.477892 0.241133 -0.172603
C23   C     C_R   0.489159 0.969798 0.794191 -0.170899
C24   C     C_R   0.510841 0.969798 0.205809 -0.170899
H5    H     H_    0.041173 0.461280 0.765840 0.167355
H6    H     H_    0.958827 0.461280 0.234160 0.167355
H7    H     H_    0.481190 0.946978 0.827087 0.164402
H8    H     H_    0.518810 0.946978 0.172913 0.164402
C25   C     C_R   0.000198 0.499151 0.814264 -0.098094
C26   C     C_R   0.999802 0.499151 0.185735 -0.098094
C27   C     C_R   0.499798 0.999412 0.815352 -0.078695
C28   C     C_R   0.500202 0.999412 0.184648 -0.078694
C29   C     C_R   0.978028 0.519746 0.802795 0.042328
C30   C     C_R   0.021972 0.519746 0.197205 0.042327
C31   C     C_R   0.509653 0.027955 0.772146 0.018368
C32   C     C_R   0.490347 0.027955 0.227853 0.018369
C33   C     C_3   0.950305 0.546094 0.834921 0.511537
C34   C     C_3   0.049695 0.546094 0.165079 0.511538
C35   C     C_3   0.521277 0.064278 0.765628 0.479344
C36   C     C_3   0.478723 0.064278 0.234372 0.479344
C37   C     C_3   0.950925 0.546788 0.763074 -0.494304
C38   C     C_3   0.049076 0.546788 0.236925 -0.494304
C39   C     C_3   0.520764 0.064700 0.694936 -0.423542
C40   C     C_3   0.479236 0.064700 0.305063 -0.423540
H9    H     H_    0.926022 0.536181 0.879750 0.089669
H10   H     H_    0.073978 0.536181 0.120250 0.089668
H11   H     H_    0.502083 0.081456 0.807163 0.066705
H12   H     H_    0.497917 0.081456 0.192837 0.066705
H13   H     H_    0.927174 0.536184 0.765241 0.166943
H14   H     H_    0.072825 0.536183 0.234758 0.166943
H15   H     H_    0.500614 0.081840 0.695420 0.168491
H16   H     H_    0.499385 0.081840 0.304580 0.168491
H17   H     H_    0.960346 0.571419 0.733808 0.261274
H18   H     H_    0.039654 0.571419 0.266192 0.261274
H19   H     H_    0.546704 0.067124 0.647764 0.286670
H20   H     H_    0.453296 0.067124 0.352235 0.286670
C41   C     C_R   0.377731 0.484532 0.072001 -0.214022
C42   C     C_R   0.622269 0.484532 0.927998 -0.214022
C43   C     C_R   0.877732 0.984902 0.071549 -0.213308
C44   C     C_R   0.122267 0.984902 0.928451 -0.213308
H21   H     H_    0.391856 0.472918 0.020092 0.217005
H22   H     H_    0.608144 0.472918 0.979908 0.217005
H23   H     H_    0.891870 0.973585 0.019353 0.217171
H24   H     H_    0.108130 0.973585 0.980647 0.217171
C45   C     C_R   0.342012 0.483838 0.106444 -0.178416
C46   C     C_R   0.657988 0.483838 0.893556 -0.178416
C47   C     C_R   0.842014 0.984242 0.105873 -0.178000
C48   C     C_R   0.157986 0.984242 0.894127 -0.178001
H25   H     H_    0.328985 0.472151 0.080414 0.194987
H26   H     H_    0.671015 0.472151 0.919586 0.194987
H27   H     H_    0.829018 0.972890 0.079461 0.195071
H28   H     H_    0.170982 0.972890 0.920539 0.195071
C49   C     C_R   0.323122 0.498744 0.173327 -0.111812
C50   C     C_R   0.676878 0.498744 0.826673 -0.111812
C51   C     C_R   0.823085 0.998779 0.173113 -0.111035
C52   C     C_R   0.176915 0.998779 0.826887 -0.111035
C53   C     C_R   0.340106 0.514185 0.207086 0.209923
C54   C     C_R   0.659894 0.514185 0.792914 0.209923
C55   C     C_R   0.840046 0.013770 0.207361 0.208928
C56   C     C_R   0.159954 0.013770 0.792639 0.208928
C57   C     C_R   0.376260 0.514481 0.172042 0.575728
C58   C     C_R   0.623739 0.514481 0.827958 0.575728
C59   C     C_R   0.876201 0.014060 0.172404 0.576921
C60   C     C_R   0.123799 0.014060 0.827596 0.576922
C61   C     C_R   0.395054 0.499743 0.104463 -0.226248
C62   C     C_R   0.604946 0.499743 0.895537 -0.226248
C63   C     C_R   0.895034 0.999720 0.104446 -0.226777
C64   C     C_R   0.104966 0.999720 0.895554 -0.226777
C65   C     C_R   0.268701 0.530511 0.211295 -0.122687
C66   C     C_R   0.731299 0.530511 0.788705 -0.122687
C67   C     C_R   0.768653 0.030849 0.212987 -0.121015
C68   C     C_R   0.231347 0.030849 0.787013 -0.121015
H29   H     H_    0.283161 0.554170 0.191682 0.159634
H30   H     H_    0.716839 0.554170 0.808318 0.159634
H31   H     H_    0.783106 0.054606 0.195026 0.159375
H32   H     H_    0.216894 0.054606 0.804974 0.159375
C69   C     C_R   0.232924 0.531225 0.243401 -0.035122
C70   C     C_R   0.767076 0.531225 0.756599 -0.035122
C71   C     C_R   0.732878 0.031630 0.245029 -0.034435
C72   C     C_R   0.267122 0.031630 0.754971 -0.034435
H33   H     H_    0.219914 0.555473 0.248407 0.172628
H34   H     H_    0.780086 0.555473 0.751593 0.172628
H35   H     H_    0.719867 0.056027 0.251682 0.171790
H36   H     H_    0.280133 0.056027 0.748318 0.171790
C73   C     C_R   0.214030 0.500794 0.269964 0.201570
C74   C     C_R   0.785969 0.500794 0.730036 0.201570
C75   C     C_R   0.713986 0.001057 0.269463 0.201716
C76   C     C_R   0.286014 0.001057 0.730537 0.201716
C77   C     C_R   0.231184 0.469551 0.263014 -0.082782
C78   C     C_R   0.768816 0.469551 0.736986 -0.082782
C79   C     C_R   0.731136 0.969625 0.260414 -0.080750
C80   C     C_R   0.268864 0.969625 0.739586 -0.080750
H37   H     H_    0.216812 0.445961 0.284079 0.163038
H38   H     H_    0.783188 0.445961 0.715921 0.163038
H39   H     H_    0.716761 0.945909 0.279830 0.163951
H40   H     H_    0.283239 0.945909 0.720170 0.163951
C81   C     C_R   0.266977 0.468782 0.230055 -0.113100
C82   C     C_R   0.733023 0.468782 0.769945 -0.113101
C83   C     C_R   0.766927 0.968807 0.227557 -0.114139
C84   C     C_R   0.233073 0.968807 0.772443 -0.114138
H41   H     H_    0.280072 0.444621 0.225379 0.168358
H42   H     H_    0.719928 0.444621 0.774621 0.168358
H43   H     H_    0.780014 0.944488 0.221305 0.169013
H44   H     H_    0.219986 0.944488 0.778695 0.169013
C85   C     C_R   0.285688 0.499336 0.205180 0.150376
C86   C     C_R   0.714312 0.499336 0.794820 0.150376
C87   C     C_R   0.785645 0.999476 0.204854 0.149769
C88   C     C_R   0.214355 0.999476 0.795146 0.149769
C89   C     C_R   0.156444 0.480322 0.289716 0.273103
C90   C     C_R   0.843555 0.480322 0.710284 0.273103
C91   C     C_R   0.656354 0.981479 0.287897 0.276164
C92   C     C_R   0.343646 0.981479 0.712103 0.276164
C93   C     C_R   0.120773 0.479244 0.333482 -0.292076
C94   C     C_R   0.879227 0.479244 0.666518 -0.292076
C95   C     C_R   0.620678 0.980248 0.331662 -0.287073
C96   C     C_R   0.379322 0.980248 0.668338 -0.287073
H45   H     H_    0.105251 0.463189 0.318903 0.213252
H46   H     H_    0.894749 0.463189 0.681096 0.213253
H47   H     H_    0.605096 0.964911 0.316050 0.209882
H48   H     H_    0.394904 0.964911 0.683950 0.209882
C97   C     C_R   0.104644 0.500007 0.393739 -0.285905
C98   C     C_R   0.895356 0.500007 0.606261 -0.285905
C99   C     C_R   0.604625 0.999971 0.393425 -0.284235
C100  C     C_R   0.395375 0.999971 0.606575 -0.284233
C101  C     C_R   0.124250 0.521948 0.412302 0.196006
C102  C     C_R   0.875750 0.521948 0.587698 0.196006
C103  C     C_R   0.624274 0.020927 0.413561 0.206088
C104  C     C_R   0.375726 0.020927 0.586438 0.206087
C105  C     C_R   0.160073 0.522593 0.369486 0.573406
C106  C     C_R   0.839927 0.522593 0.630514 0.573406
C107  C     C_R   0.660083 0.021771 0.370677 0.576635
C108  C     C_R   0.339917 0.021771 0.629323 0.576635
C109  C     C_R   0.176273 0.501844 0.308735 -0.236169
C110  C     C_R   0.823727 0.501844 0.691265 -0.236169
C111  C     C_R   0.676230 0.002093 0.308375 -0.239779
C112  C     C_R   0.323770 0.002093 0.691625 -0.239779
O17   O     O_R   0.971240 0.449020 0.028740 -0.620811
O18   O     O_R   0.028760 0.449020 0.971260 -0.620811
O19   O     O_R   0.471240 0.949020 0.028740 -0.618199
O20   O     O_R   0.528760 0.949020 0.971260 -0.618199
C113  C     C_R   0.000000 0.432715 0.000000 0.857108
C114  C     C_R   0.500000 0.932714 0.000000 0.851909
O21   O     O_R   0.971230 0.499930 0.937140 -0.625489
O22   O     O_R   0.028770 0.499930 0.062860 -0.625489
O23   O     O_R   0.471230 0.999930 0.937140 -0.626137
O24   O     O_R   0.528770 0.999930 0.062860 -0.626137
O25   O     O_R   0.028710 0.499970 0.879680 -0.610467
O26   O     O_R   0.971290 0.499970 0.120320 -0.610467
O27   O     O_R   0.528710 0.999970 0.879680 -0.574151
O28   O     O_R   0.471290 0.999970 0.120320 -0.574151
C115  C     C_R   0.999978 0.499873 0.879991 0.905808
C116  C     C_R   0.000022 0.499873 0.120009 0.905808
C117  C     C_R   0.499937 0.000158 0.880268 0.874196
C118  C     C_R   0.500062 0.000158 0.119732 0.874196
Zn5   Zn    Zn3+2 0.961590 0.499920 0.038380 1.038079
Zn6   Zn    Zn3+2 0.038410 0.499920 0.961620 1.038079
Zn7   Zn    Zn3+2 0.461590 0.999920 0.038380 1.064816
Zn8   Zn    Zn3+2 0.538410 0.999920 0.961620 1.064815
O29   O     O_R   0.971230 0.550840 0.028760 -0.610872
O30   O     O_R   0.028770 0.550840 0.971240 -0.610873
O31   O     O_R   0.471230 0.050840 0.028760 -0.606986
O32   O     O_R   0.528770 0.050840 0.971240 -0.606987
C119  C     C_R   1.000000 0.567148 0.000000 0.992212
C120  C     C_R   0.500000 0.067154 0.000000 0.933785
O33   O     O_R   0.499940 0.449000 0.051660 -0.573777
O34   O     O_R   0.500060 0.449000 0.948340 -0.573776
O35   O     O_R   0.999940 0.949000 0.051660 -0.572865
O36   O     O_R   0.000060 0.949000 0.948340 -0.572863
C121  C     C_R   0.500000 0.432726 0.000000 1.047095
C122  C     C_R   0.000000 0.932721 0.000000 1.046476
O37   O     O_R   0.449070 0.499910 0.102620 -0.556894
O38   O     O_R   0.550930 0.499910 0.897380 -0.556894
O39   O     O_R   0.949070 0.999910 0.102620 -0.556021
O40   O     O_R   0.050930 0.999910 0.897380 -0.556021
O41   O     O_R   0.449060 0.499970 0.999190 -0.625798
O42   O     O_R   0.550940 0.499970 0.000810 -0.625798
O43   O     O_R   0.949060 0.999970 0.999190 -0.625920
O44   O     O_R   0.050940 0.999970 0.000810 -0.625920
C123  C     C_R   0.432713 0.500050 0.067216 0.930123
C124  C     C_R   0.567287 0.500050 0.932783 0.930122
C125  C     C_R   0.932706 0.000041 0.067221 0.929098
C126  C     C_R   0.067294 0.000041 0.932779 0.929097
Zn9   Zn    Zn3+2 0.499980 0.499890 0.069080 1.110766
Zn10  Zn    Zn3+2 0.500020 0.499890 0.930920 1.110766
Zn11  Zn    Zn3+2 0.999980 0.999890 0.069080 1.112744
Zn12  Zn    Zn3+2 0.000020 0.999890 0.930920 1.112745
O45   O     O_R   0.500010 0.550820 0.051820 -0.615256
O46   O     O_R   0.499990 0.550820 0.948180 -0.615256
O47   O     O_R   0.000010 0.050820 0.051820 -0.615371
O48   O     O_R   0.999990 0.050820 0.948180 -0.615371
C127  C     C_R   0.500000 0.567076 0.000000 0.857455
C128  C     C_R   1.000000 0.067076 0.000000 0.856237
C129  C     C_R   0.486854 0.622561 0.063987 -0.152394
C130  C     C_R   0.513146 0.622561 0.936013 -0.152393
C131  C     C_R   0.986903 0.122563 0.063979 -0.152782
C132  C     C_R   0.013097 0.122563 0.936021 -0.152781
H49   H     H_    0.476291 0.609020 0.113970 0.184569
H50   H     H_    0.523709 0.609020 0.886030 0.184569
H51   H     H_    0.976379 0.109023 0.113958 0.184392
H52   H     H_    0.023621 0.109023 0.886042 0.184392
C133  C     C_R   0.486559 0.658296 0.064054 -0.139171
C134  C     C_R   0.513441 0.658296 0.935946 -0.139171
C135  C     C_R   0.986609 0.158298 0.064047 -0.139522
C136  C     C_R   0.013391 0.158298 0.935953 -0.139523
H53   H     H_    0.475462 0.671688 0.114234 0.160018
H54   H     H_    0.524538 0.671688 0.885766 0.160018
H55   H     H_    0.975552 0.171690 0.114223 0.159815
H56   H     H_    0.024448 0.171690 0.885777 0.159815
C137  C     C_R   0.500000 0.676457 0.000000 0.143323
C138  C     C_R   1.000000 0.176459 0.000000 0.143417
C139  C     C_R   0.500000 0.604553 0.000000 -0.047481
C140  C     C_R   1.000000 0.104554 0.000000 -0.047210
C141  C     C_R   0.492473 0.732310 0.953199 -0.215834
C142  C     C_R   0.507527 0.732310 0.046801 -0.215834
C143  C     C_R   0.992409 0.232311 0.953291 -0.216184
C144  C     C_R   0.007591 0.232311 0.046709 -0.216184
H57   H     H_    0.485764 0.718397 0.918223 0.189398
H58   H     H_    0.514236 0.718397 0.081777 0.189398
H59   H     H_    0.985652 0.218397 0.918388 0.189433
H60   H     H_    0.014348 0.218397 0.081612 0.189433
C145  C     C_R   0.992216 0.268191 0.952670 0.293184
C146  C     C_R   0.007784 0.268191 0.047330 0.293185
C147  C     C_R   0.492282 0.768190 0.952575 0.293921
C148  C     C_R   0.507718 0.768190 0.047425 0.293922
C149  C     C_R   0.000000 0.286222 0.000000 -0.195153
C150  C     C_R   0.500000 0.786221 0.000000 -0.194630
C151  C     C_R   0.500000 0.714268 0.000000 -0.016178
C152  C     C_R   1.000000 0.214269 0.000000 -0.016283
C153  C     C_R   0.971587 0.341486 0.051940 -0.046919
C154  C     C_R   0.028413 0.341486 0.948060 -0.046920
C155  C     C_R   0.471552 0.841484 0.051837 -0.046591
C156  C     C_R   0.528448 0.841484 0.948163 -0.046590
H61   H     H_    0.949585 0.327670 0.092166 0.148429
H62   H     H_    0.050415 0.327670 0.907834 0.148429
H63   H     H_    0.449523 0.827668 0.091984 0.150246
H64   H     H_    0.550477 0.827668 0.908016 0.150246
C157  C     C_R   0.971438 0.377225 0.051569 -0.163124
C158  C     C_R   0.028562 0.377225 0.948431 -0.163124
C159  C     C_R   0.471403 0.877222 0.051465 -0.160575
C160  C     C_R   0.528597 0.877222 0.948535 -0.160576
H65   H     H_    0.949265 0.390754 0.091972 0.163425
H66   H     H_    0.050735 0.390754 0.908027 0.163425
H67   H     H_    0.449202 0.890750 0.091786 0.169210
H68   H     H_    0.550798 0.890750 0.908214 0.169210
C161  C     C_R   0.000000 0.395242 0.000000 -0.042312
C162  C     C_R   0.500000 0.895241 0.000000 -0.048831
C163  C     C_R   0.000000 0.323684 0.000000 0.201659
C164  C     C_R   0.500000 0.823683 0.000000 0.199877
C165  C     C_R   0.519094 0.377225 0.025607 0.510837
C166  C     C_R   0.480906 0.377225 0.974393 0.510837
C167  C     C_R   0.018817 0.877203 0.026260 0.511792
C168  C     C_R   0.981183 0.877203 0.973740 0.511792
C169  C     C_R   0.519303 0.341459 0.025024 0.613024
C170  C     C_R   0.480697 0.341459 0.974976 0.613024
C171  C     C_R   0.019018 0.841437 0.025699 0.613998
C172  C     C_R   0.980982 0.841437 0.974301 0.613998
C173  C     C_R   0.500000 0.323611 0.000000 -0.305048
C174  C     C_R   0.000000 0.823588 0.000000 -0.306920
C175  C     C_R   0.500000 0.395258 0.000000 -0.520291
C176  C     C_R   0.000000 0.895243 0.000000 -0.521369
C177  C     C_R   0.471854 0.268036 0.054272 0.308106
C178  C     C_R   0.528146 0.268036 0.945728 0.308107
C179  C     C_R   0.971600 0.768009 0.053628 0.308894
C180  C     C_R   0.028400 0.768009 0.946372 0.308894
C181  C     C_R   0.971994 0.732123 0.052624 -0.135625
C182  C     C_R   0.028006 0.732123 0.947376 -0.135625
C183  C     C_R   0.472248 0.232150 0.053276 -0.140051
C184  C     C_R   0.527752 0.232150 0.946724 -0.140051
H69   H     H_    0.950702 0.718023 0.094066 0.217621
H70   H     H_    0.049298 0.718023 0.905934 0.217621
H71   H     H_    0.451165 0.218052 0.095204 0.218997
H72   H     H_    0.548835 0.218052 0.904796 0.218997
C185  C     C_R   0.000000 0.714199 0.000000 0.066526
C186  C     C_R   0.500000 0.214224 0.000000 0.060561
C187  C     C_R   0.500000 0.286086 0.000000 0.028837
C188  C     C_R   0.000000 0.786060 0.000000 0.028385
C189  C     C_R   0.028514 0.658385 0.994917 0.628039
C190  C     C_R   0.971486 0.658385 0.005083 0.628039
C191  C     C_R   0.528770 0.158408 0.993617 0.621328
C192  C     C_R   0.471230 0.158408 0.006383 0.621328
C193  C     C_R   0.028558 0.622638 0.994360 -0.205773
C194  C     C_R   0.971441 0.622638 0.005640 -0.205772
C195  C     C_R   0.528810 0.122662 0.993057 -0.246755
C196  C     C_R   0.471190 0.122662 0.006943 -0.246754
H73   H     H_    0.050656 0.609039 0.990763 0.221390
H74   H     H_    0.949344 0.609039 0.009237 0.221390
H75   H     H_    0.551124 0.109075 0.988406 0.208014
H76   H     H_    0.448876 0.109075 0.011594 0.208014
C197  C     C_R   1.000000 0.604637 0.000000 -0.236677
C198  C     C_R   0.500000 0.104653 0.000000 -0.220528
C199  C     C_R   1.000000 0.676501 0.000000 -0.170965
C200  C     C_R   0.500000 0.176525 0.000000 -0.158531
F1    F     F_    0.393059 0.529112 0.203725 -0.594371
F2    F     F_    0.606941 0.529112 0.796275 -0.594371
F3    F     F_    0.892954 0.028286 0.204571 -0.593320
F4    F     F_    0.107046 0.028286 0.795429 -0.593320
N1    N     N_R   0.171883 0.460253 0.225690 0.221640
O49   O     O_R   0.198021 0.472161 0.168581 -0.360366
O50   O     O_R   0.157372 0.431858 0.221801 -0.343031
N2    N     N_R   0.828117 0.460253 0.774309 0.221640
O51   O     O_R   0.801979 0.472161 0.831419 -0.360366
O52   O     O_R   0.842628 0.431858 0.778199 -0.343031
N3    N     N_R   0.671745 0.962499 0.222479 0.223441
O53   O     O_R   0.697940 0.975018 0.166258 -0.357032
O54   O     O_R   0.657158 0.934590 0.216572 -0.342319
N4    N     N_R   0.328255 0.962499 0.777521 0.223441
O55   O     O_R   0.302060 0.975019 0.833742 -0.357032
O56   O     O_R   0.342842 0.934590 0.783428 -0.342319
N5    N     N_R   0.108344 0.542315 0.475828 0.248901
O57   O     O_R   0.084337 0.529223 0.534578 -0.386543
O58   O     O_R   0.119892 0.572956 0.476791 -0.255414
N6    N     N_R   0.891656 0.542315 0.524172 0.248902
O59   O     O_R   0.915663 0.529223 0.465422 -0.386543
O60   O     O_R   0.880107 0.572956 0.523209 -0.255414
N7    N     N_R   0.608402 0.039854 0.478924 0.244371
O61   O     O_R   0.584589 0.025605 0.536401 -0.400066
O62   O     O_R   0.619880 0.070119 0.482804 -0.265702
N8    N     N_R   0.391598 0.039854 0.521076 0.244372
O63   O     O_R   0.415411 0.025605 0.463599 -0.400066
O64   O     O_R   0.380119 0.070119 0.517196 -0.265702
F5    F     F_    0.179446 0.541876 0.389427 -0.584562
F6    F     F_    0.820554 0.541876 0.610573 -0.584562
F7    F     F_    0.679497 0.040087 0.391983 -0.580661
F8    F     F_    0.320503 0.040087 0.608017 -0.580660
N9    N     N_R   0.983908 0.285691 0.904112 0.218381
O65   O     O_R   0.965954 0.313953 0.922328 -0.360279
O66   O     O_R   0.991035 0.271385 0.844139 -0.346412
N10   N     N_R   0.016092 0.285691 0.095888 0.218381
O67   O     O_R   0.034046 0.313953 0.077672 -0.360280
O68   O     O_R   0.008965 0.271385 0.155861 -0.346411
N11   N     N_R   0.484045 0.785690 0.903912 0.218742
O69   O     O_R   0.466099 0.813958 0.922046 -0.361518
O70   O     O_R   0.491234 0.771382 0.843906 -0.345792
N12   N     N_R   0.515955 0.785690 0.096088 0.218742
O71   O     O_R   0.533901 0.813958 0.077954 -0.361518
O72   O     O_R   0.508766 0.771382 0.156094 -0.345792
F9    F     F_    0.538154 0.394214 0.049497 -0.570701
F10   F     F_    0.461846 0.394214 0.950502 -0.570701
F11   F     F_    0.037620 0.894181 0.050784 -0.568902
F12   F     F_    0.962380 0.894181 0.949216 -0.568901
F13   F     F_    0.538045 0.324141 0.049242 -0.552920
F14   F     F_    0.461955 0.324141 0.950758 -0.552920
F15   F     F_    0.037484 0.824119 0.050577 -0.550175
F16   F     F_    0.962516 0.824119 0.949423 -0.550175
N13   N     N_R   0.442873 0.285517 0.110637 0.238978
O73   O     O_R   0.412583 0.271128 0.140682 -0.294175
O74   O     O_R   0.447091 0.313866 0.137472 -0.345633
N14   N     N_R   0.557127 0.285517 0.889363 0.238978
O75   O     O_R   0.587416 0.271128 0.859318 -0.294175
O76   O     O_R   0.552909 0.313866 0.862528 -0.345633
N15   N     N_R   0.942368 0.785493 0.109365 0.239921
O77   O     O_R   0.912077 0.771121 0.138450 -0.292771
O78   O     O_R   0.946307 0.813818 0.136666 -0.343542
N16   N     N_R   0.057631 0.785493 0.890635 0.239920
O79   O     O_R   0.087923 0.771121 0.861550 -0.292770
O80   O     O_R   0.053693 0.813818 0.863334 -0.343542
F17   F     F_    0.055940 0.675242 0.992111 -0.602288
F18   F     F_    0.944060 0.675242 0.007889 -0.602288
F19   F     F_    0.556469 0.175261 0.989543 -0.612709
F20   F     F_    0.443531 0.175261 0.010457 -0.612709
F21   F     F_    0.962291 0.576346 0.848955 -0.612451
F22   F     F_    0.037709 0.576346 0.151045 -0.612452
F23   F     F_    0.554264 0.066554 0.756733 -0.578687
F24   F     F_    0.445736 0.066554 0.243268 -0.578687
N17   N     N_R   0.321067 0.529179 0.276484 0.236549
O81   O     O_R   0.332659 0.556412 0.293025 -0.263329
O82   O     O_R   0.293172 0.514558 0.324926 -0.321196
N18   N     N_R   0.678933 0.529179 0.723516 0.236549
O83   O     O_R   0.667341 0.556412 0.706975 -0.263329
O84   O     O_R   0.706828 0.514558 0.675073 -0.321196
N19   N     N_R   0.820977 0.028272 0.277210 0.236410
O85   O     O_R   0.832498 0.055289 0.294578 -0.262619
O86   O     O_R   0.793145 0.013372 0.325218 -0.317013
N20   N     N_R   0.179023 0.028272 0.722789 0.236410
O87   O     O_R   0.167501 0.055289 0.705422 -0.262619
O88   O     O_R   0.206855 0.013372 0.674782 -0.317013

loop_
_geom_bond_atom_site_label_1
_geom_bond_atom_site_label_2
_geom_bond_distance
_ccdc_geom_bond_type
C51   C55   1.413502 A    
C77   H37   1.083303 S    
C177  C187  1.416449 A    
C27   C31   1.378199 A    
C82   H42   1.083363 S    
C154  C158  1.389746 A    
C56   C60   1.402942 A    
C80   H40   1.083301 S    
C36   H12   1.111482 S    
O9    Zn1   2.017080 S    
C133  H53   1.082845 S    
C79   H39   1.083301 S    
C94   C98   1.398791 A    
C44   C64   1.399932 A    
C141  H57   1.083060 S    
C166  C170  1.390785 A    
C143  H59   1.083063 S    
C182  H70   1.083553 S    
C15   C19   1.412516 A    
C5    C13   1.416191 S    
C9    C13   1.381400 A    
C132  H52   1.083318 S    
N10   O67   1.301146 A    
C34   H10   1.111274 S    
C11   C31   1.340167 A    
C156  H64   1.083379 S    
O44   Zn11  2.012760 S    
O33   C121  1.283234 A    
C193  H73   1.083418 S    
O4    C4    1.283469 A    
C68   C72   1.390473 A    
C144  H60   1.083064 S    
C83   C87   1.398954 A    
C160  C162  1.402909 A    
C3    C99   1.455326 S    
C74   C78   1.402524 A    
O48   C128  1.287221 A    
N5    O58   1.301253 A    
C28   C118  1.407752 S    
C97   C101  1.409409 A    
C26   C116  1.417533 S    
C63   C125  1.461620 S    
C39   H19   1.110871 S    
N14   O76   1.301130 A    
C180  C188  1.416444 A    
C34   C38   1.541424 S    
C99   C103  1.408558 A    
N9    O65   1.301150 A    
O16   Zn4   2.017089 S    
C50   C54   1.413416 A    
O28   Zn7   2.017445 S    
C133  C137  1.404056 A    
O13   C5    1.274009 A    
O7    Zn4   2.008850 S    
O42   Zn9   2.012760 S    
C174  C188  1.459276 S    
O18   C113  1.283341 A    
O15   C7    1.275964 A    
O38   C124  1.286305 A    
C105  F5    1.359632 S    
C91   N3    1.440340 S    
O4    Zn2   2.009997 S    
O9    C5    1.275561 A    
C142  C151  1.399260 A    
C166  C175  1.404860 A    
C189  C193  1.390064 A    
C73   C77   1.402524 A    
C148  C150  1.415423 A    
N13   O73   1.301538 A    
O8    Zn4   2.008854 S    
C66   C86   1.399543 A    
C17   C21   1.401105 A    
O26   C116  1.272232 A    
C19   C23   1.400066 A    
C102  C106  1.398484 A    
O23   C117  1.270359 A    
C20   C24   1.400063 A    
O17   C113  1.283344 A    
O34   Zn10  2.014578 S    
O3    Zn2   2.009994 S    
C191  C200  1.405367 A    
C44   H24   1.083416 S    
C19   H3    1.083129 S    
N11   O69   1.301145 A    
C29   C33   1.488557 S    
C134  C137  1.404058 A    
C43   C47   1.386270 A    
C31   C35   1.486687 S    
C32   C36   1.486687 S    
C195  H75   1.083332 S    
C92   C112  1.413274 A    
C27   C117  1.407752 S    
C103  C107  1.398272 A    
C171  F15   1.357966 S    
C95   C99   1.398519 A    
Zn12  O48   2.015176 S    
C191  C195  1.390026 A    
C96   C100  1.398517 A    
N4    O55   1.301431 A    
O3    C3    1.283469 A    
C33   C37   1.541424 S    
C24   H8    1.083643 S    
C67   C87   1.399715 A    
N7    O61   1.301132 A    
C90   C94   1.395831 A    
C131  H51   1.083318 S    
C153  C163  1.398205 A    
N17   O81   1.301260 A    
O40   C126  1.286490 A    
C195  C198  1.400690 A    
C136  H56   1.082848 S    
C192  C200  1.405372 A    
C120  C198  1.458122 S    
O43   C125  1.286319 A    
C65   H29   1.083376 S    
C141  C147  1.395341 A    
C53   N17   1.440462 S    
C147  N11   1.442001 S    
C52   C88   1.457855 S    
C69   H33   1.083283 S    
C190  C199  1.405427 A    
C35   F23   1.383968 S    
O38   Zn10  2.010006 S    
C107  F7    1.359626 S    
C36   C40   1.540647 S    
N18   O83   1.301260 A    
C155  C164  1.398188 A    
C147  C150  1.415427 A    
C76   C80   1.402462 A    
N8    O63   1.301134 A    
O22   Zn6   2.017256 S    
C38   H14   1.111661 S    
C183  C186  1.397065 A    
C48   H28   1.083818 S    
C72   C76   1.401850 A    
O5    Zn3   2.008850 S    
N19   O85   1.301258 A    
O43   Zn12  2.012760 S    
N19   O86   1.301341 A    
C105  C109  1.405973 A    
O41   Zn10  2.012760 S    
C155  C159  1.389730 A    
C61   C123  1.461111 S    
Zn6   O30   2.015029 S    
C79   C83   1.390281 A    
C21   C25   1.408162 A    
C165  C169  1.390785 A    
C55   N19   1.440370 S    
C142  H58   1.083060 S    
C180  C182  1.395554 A    
O7    C3    1.283184 A    
N20   O88   1.301341 A    
N1    O50   1.301487 A    
C159  C162  1.402912 A    
C6    C14   1.416191 S    
C89   C109  1.413014 A    
C132  C140  1.400718 A    
C67   C71   1.390473 A    
C10   C14   1.381400 A    
C91   C95   1.396163 A    
O13   Zn3   2.017083 S    
C92   C96   1.396163 A    
C57   F1    1.358870 S    
O25   Zn6   2.017443 S    
C169  F13   1.357962 S    
O19   C114  1.283350 A    
C93   C97   1.398791 A    
O24   Zn8   2.017256 S    
C156  C160  1.389734 A    
C119  C197  1.457740 S    
C173  C187  1.459179 S    
C180  N16   1.441906 S    
C68   H32   1.083373 S    
O5    C1    1.283692 A    
C71   H35   1.083290 S    
C168  C172  1.390790 A    
O8    C4    1.283184 A    
N6    O60   1.301253 A    
C170  F14   1.357962 S    
C66   H30   1.083376 S    
O15   Zn4   2.017083 S    
C76   C112  1.465597 S    
C9    C37   1.489356 S    
C98   C102  1.409409 A    
C67   H31   1.083375 S    
C184  C186  1.397063 A    
C39   H15   1.111462 S    
C114  C162  1.457153 S    
C167  F11   1.358162 S    
C132  C136  1.389576 A    
C168  C176  1.405001 A    
C57   C61   1.405809 A    
O14   C6    1.274008 A    
C59   C63   1.405929 A    
C146  C149  1.415428 A    
C55   C59   1.402942 A    
C12   C16   1.385496 A    
C182  C185  1.397048 A    
C81   H41   1.083363 S    
C2    C98   1.455695 S    
C40   H16   1.111465 S    
O34   C121  1.283240 A    
C129  H49   1.083318 S    
C130  C139  1.400698 A    
O10   C6    1.275562 A    
C89   N1    1.440316 S    
N12   O71   1.301145 A    
C127  C139  1.457305 S    
C84   C88   1.398954 A    
C178  N14   1.441940 S    
O28   C118  1.271183 A    
C177  N13   1.441940 S    
C108  F8    1.359627 S    
N10   O68   1.301547 A    
N16   O80   1.301137 A    
C17   H1    1.083478 S    
O47   C128  1.287217 A    
C101  N5    1.439206 S    
C18   C22   1.401105 A    
C47   H27   1.083821 S    
C135  C138  1.404048 A    
C20   H4    1.083131 S    
O35   C122  1.283334 A    
C65   C69   1.390457 A    
N2    O51   1.301434 A    
C169  C173  1.399998 A    
O45   C127  1.287208 A    
C44   C48   1.386270 A    
C47   C51   1.397692 A    
O1    Zn1   2.009994 S    
C41   H21   1.083432 S    
C104  C108  1.398272 A    
O39   C125  1.286490 A    
N9    O66   1.301547 A    
C64   C126  1.461620 S    
O17   Zn5   2.014330 S    
C30   C34   1.488560 S    
C43   H23   1.083416 S    
C189  C199  1.405423 A    
C104  N8    1.438496 S    
Zn9   O45   2.015176 S    
O42   C124  1.286234 A    
C62   C124  1.461111 S    
N5    O57   1.301439 A    
C50   C86   1.457296 S    
C96   H48   1.084156 S    
C186  C200  1.465930 S    
C149  C163  1.456714 S    
C183  H71   1.083550 S    
C150  C164  1.456691 S    
O32   C120  1.283847 A    
C131  C135  1.389572 A    
C145  C149  1.415430 A    
O40   Zn12  2.010006 S    
C196  C198  1.400694 A    
C74   C110  1.465620 S    
C121  C175  1.456924 S    
C91   C111  1.413275 A    
C194  H74   1.083418 S    
C141  C151  1.399264 A    
C165  C175  1.404855 A    
C106  C110  1.405971 A    
C165  F9    1.358163 S    
C72   H36   1.083290 S    
C41   C45   1.386277 A    
C142  C148  1.395341 A    
C33   F21   1.384256 S    
Zn5   O29   2.015029 S    
C102  N6    1.439206 S    
C166  F10   1.358163 S    
C172  C174  1.399974 A    
C46   H26   1.083824 S    
C122  C176  1.457301 S    
O12   Zn2   2.017082 S    
C38   H18   1.111638 S    
C159  H67   1.083178 S    
C160  H68   1.083176 S    
O1    C1    1.283259 A    
N3    O53   1.301431 A    
C25   C29   1.381658 A    
C23   H7    1.083642 S    
C135  H55   1.082851 S    
C42   H22   1.083432 S    
C73   C109  1.465620 S    
C45   H25   1.083824 S    
C153  H61   1.083379 S    
O27   Zn8   2.017443 S    
C60   C64   1.405931 A    
O21   Zn5   2.017256 S    
C170  C173  1.400003 A    
O19   Zn7   2.014330 S    
C144  C152  1.399257 A    
C155  H63   1.083376 S    
C4    C100  1.455326 S    
C78   C82   1.390212 A    
C37   H17   1.111639 S    
O30   C119  1.283736 A    
C21   H5    1.083451 S    
C192  C196  1.390026 A    
C22   C26   1.408160 A    
O18   Zn6   2.014330 S    
C8    C16   1.426016 S    
C128  C140  1.457340 S    
N4    O56   1.301487 A    
C35   H11   1.111483 S    
C36   F24   1.383967 S    
O36   C122  1.283339 A    
C7    C15   1.426016 S    
C90   C110  1.413015 A    
C56   N20   1.440369 S    
C25   C115  1.417533 S    
C43   C63   1.399933 A    
C12   C32   1.340167 A    
N12   O72   1.301539 A    
C93   H45   1.084128 S    
Zn10  O46   2.015176 S    
O24   C118  1.270359 A    
C130  H50   1.083318 S    
C181  H69   1.083553 S    
O35   Zn11  2.014578 S    
C71   C75   1.401853 A    
C129  C139  1.400696 A    
C179  C188  1.416445 A    
C69   C73   1.401912 A    
N14   O75   1.301538 A    
O6    C2    1.283692 A    
C167  C171  1.390790 A    
N15   O77   1.301532 A    
C172  F16   1.357965 S    
C77   C81   1.390212 A    
C42   C46   1.386277 A    
C153  C157  1.389746 A    
C82   C86   1.398790 A    
C1    C97   1.455695 S    
C80   C84   1.390281 A    
C177  C183  1.395541 A    
N8    O64   1.301231 A    
C137  C151  1.470250 S    
C138  C152  1.470230 S    
O20   C114  1.283346 A    
O2    Zn1   2.009997 S    
C103  N7    1.438494 S    
O10   Zn1   2.017082 S    
C89   C93   1.395831 A    
C13   C17   1.407523 A    
C11   C39   1.492142 S    
O41   C123  1.286234 A    
C28   C32   1.378199 A    
C100  C104  1.408557 A    
C26   C30   1.381656 A    
C131  C140  1.400716 A    
N13   O74   1.301130 A    
O33   Zn9   2.014578 S    
C168  F12   1.358162 S    
C40   H20   1.110871 S    
C51   C87   1.457854 S    
C193  C197  1.400628 A    
N18   O84   1.301330 A    
C84   H44   1.083363 S    
C81   C85   1.398790 A    
C190  C194  1.390064 A    
N1    O49   1.301434 A    
C83   H43   1.083363 S    
C42   C62   1.399782 A    
C60   F4    1.358845 S    
C18   H2    1.083480 S    
C75   C79   1.402459 A    
C136  C138  1.404050 A    
O44   C126  1.286319 A    
C54   N18   1.440462 S    
C37   H13   1.111663 S    
C90   N2    1.440316 S    
O26   Zn5   2.017445 S    
C34   F22   1.384253 S    
O39   Zn11  2.010006 S    
C181  C185  1.397049 A    
C52   C56   1.413502 A    
O16   C8    1.275963 A    
N17   O82   1.301332 A    
C154  C163  1.398203 A    
O37   Zn9   2.010006 S    
C192  F20   1.357884 S    
C12   C40   1.492143 S    
O11   C7    1.278586 A    
O12   C8    1.278587 A    
C194  C197  1.400633 A    
Zn11  O47   2.015176 S    
C178  C187  1.416448 A    
C130  C134  1.389581 A    
C171  C174  1.399969 A    
O25   C115  1.272233 A    
N11   O70   1.301541 A    
C53   C57   1.402877 A    
C35   C39   1.540649 S    
O20   Zn8   2.014330 S    
C9    C29   1.340319 A    
C129  C133  1.389581 A    
C58   F2    1.358870 S    
C65   C85   1.399543 A    
C16   C20   1.412517 A    
C92   N4    1.440340 S    
C75   C111  1.465597 S    
C14   C18   1.407523 A    
O11   Zn2   2.017080 S    
C107  C111  1.406029 A    
O23   Zn7   2.017256 S    
O29   C119  1.283739 A    
C196  H76   1.083332 S    
O46   C127  1.287212 A    
C178  C184  1.395541 A    
C184  H72   1.083550 S    
C45   C49   1.397650 A    
C179  C181  1.395554 A    
C66   C70   1.390457 A    
C70   H34   1.083283 S    
C143  C145  1.395337 A    
N3    O54   1.301486 A    
O36   Zn12  2.014578 S    
C158  C161  1.402903 A    
O6    Zn3   2.008854 S    
C108  C112  1.406030 A    
N7    O62   1.301234 A    
C190  F18   1.357881 S    
C10   C38   1.489356 S    
Zn7   O31   2.015029 S    
N2    O52   1.301487 A    
C158  H66   1.083193 S    
C95   H47   1.084153 S    
O2    C2    1.283259 A    
C68   C88   1.399715 A    
C146  N10   1.441992 S    
C48   C52   1.397693 A    
C23   C27   1.403177 A    
N20   O87   1.301260 A    
C134  H54   1.082845 S    
O31   C120  1.283850 A    
C33   H9    1.111273 S    
C24   C28   1.403177 A    
C101  C105  1.398484 A    
O21   C115  1.274172 A    
C154  H62   1.083379 S    
C113  C161  1.457122 S    
C49   C85   1.457296 S    
O14   Zn3   2.017089 S    
C41   C61   1.399782 A    
O37   C123  1.286305 A    
C78   H38   1.083304 S    
C189  F17   1.357881 S    
C22   H6    1.083453 S    
C145  N9    1.441992 S    
C191  F19   1.357884 S    
N15   O78   1.301139 A    
C185  C199  1.465871 S    
O27   C117  1.271184 A    
C10   C30   1.340319 A    
N6    O59   1.301439 A    
C46   C50   1.397650 A    
C54   C58   1.402877 A    
C11   C15   1.385496 A    
C106  F6    1.359632 S    
C59   F3    1.358847 S    
C94   H46   1.084127 S    
C156  C164  1.398184 A    
C148  N12   1.442001 S    
O22   C116  1.274172 A    
C58   C62   1.405809 A    
Zn8   O32   2.015029 S    
N16   O79   1.301535 A    
C144  C146  1.395337 A    
C70   C74   1.401912 A    
C49   C53   1.413416 A    
C143  C152  1.399261 A    
C157  C161  1.402905 A    
C167  C176  1.404996 A    
C157  H65   1.083193 S    
C179  N15   1.441908 S    
