data_mof_unit_42427.cif
_audit_creation_date              2012-12-11T17:37:47-0500
_audit_creation_method            fapswitch 2.2
_symmetry_space_group_name_H-M    P1
_symmetry_Int_Tables_number       1
_space_group_crystal_system       triclinic
_cell_length_a                    13.040168
_cell_length_b                    13.070715
_cell_length_c                    15.401457
_cell_angle_alpha                 116.342811
_cell_angle_beta                  63.725625
_cell_angle_gamma                 96.952006
_cell_volume                      2100.13516339

loop_
_atom_site_label
_atom_site_type_symbol
_atom_type_description
_atom_site_fract_x
_atom_site_fract_y
_atom_site_fract_z
_atom_type_partial_charge
C1    C     C_R   0.025936 0.833535 0.026706 -0.131841
C2    C     C_R   0.320611 0.522798 0.781208 -0.131852
C3    C     C_R   0.242697 0.481436 0.108393 -0.151516
C4    C     C_R   0.698776 0.411896 0.212712 -0.119676
C5    C     C_R   0.978234 0.306163 0.702439 -0.177859
C6    C     C_R   0.334343 0.543848 0.078204 0.045471
C7    C     C_R   0.923963 0.210386 0.700464 0.053978
C8    C     C_R   0.327440 0.443583 0.681414 0.041226
C9    C     C_R   0.084355 0.146003 0.970273 0.095698
C10   C     C_R   0.355585 0.878197 0.213895 -0.140753
C11   C     C_R   0.244061 0.892551 0.294742 -0.110965
C12   C     C_R   0.698640 0.450215 0.312666 0.061958
C13   C     C_R   0.167105 0.983947 0.329343 0.103147
C14   C     C_R   0.203285 0.060567 0.282301 -0.201502
C15   C     C_R   0.314395 0.044965 0.200722 -0.084419
C16   C     C_R   0.739767 0.575651 0.945650 -0.159279
C17   C     C_R   0.390531 0.953736 0.166465 -0.083271
C18   C     C_R   0.029526 0.099722 0.512654 -0.224555
C19   C     C_R   0.925204 0.121663 0.603629 0.067386
C20   C     C_R   0.835000 0.051753 0.601306 0.040192
C21   C     C_R   0.856205 0.953671 0.505870 -0.209659
C22   C     C_R   0.963421 0.929826 0.416275 0.089721
C23   C     C_R   0.637631 0.555441 0.016515 0.161602
C24   C     C_R   0.050506 0.004299 0.418833 0.034537
C25   C     C_R   0.662525 0.998748 0.729412 -0.230523
C26   C     C_R   0.553659 0.027179 0.818438 -0.007253
C27   C     C_R   0.502125 0.140055 0.872609 -0.166316
C28   C     C_R   0.959377 0.720448 0.315477 -0.105649
C29   C     C_R   0.557956 0.222702 0.838425 -0.129938
C30   C     C_R   0.665601 0.193829 0.749931 -0.115079
C31   C     C_R   0.719529 0.081761 0.694976 0.103734
C32   C     C_R   0.938711 0.472060 0.432962 -0.272321
C33   C     C_R   0.840628 0.410859 0.440559 -0.064559
C34   C     C_R   0.982534 0.827880 0.320620 0.037022
C35   C     C_R   0.731077 0.473544 0.506334 0.013395
C36   C     C_R   0.721521 0.589635 0.578055 -0.176151
C37   C     C_R   0.819143 0.647504 0.574418 -0.187441
C38   C     C_R   0.928318 0.591157 0.497054 -0.053354
C39   C     C_R   0.534760 0.419781 0.572054 -0.180138
C40   C     C_R   0.661595 0.476231 0.042671 -0.105742
C41   C     C_R   0.424726 0.422919 0.579030 0.050776
C42   C     C_R   0.408927 0.428406 0.495762 0.016479
C43   C     C_R   0.502830 0.421922 0.405096 -0.245482
C44   C     C_R   0.611814 0.429883 0.401748 0.067467
C45   C     C_R   0.320368 0.581122 0.013230 -0.139178
C46   C     C_R   0.628471 0.431511 0.487788 0.113652
C47   C     C_R   0.238310 0.378962 0.457490 -0.167041
C48   C     C_R   0.120795 0.401060 0.494628 -0.117911
C49   C     C_R   0.063364 0.506077 0.581021 -0.112673
C50   C     C_R   0.124975 0.593624 0.622507 -0.066522
C51   C     C_R   0.242729 0.572416 0.584886 -0.116153
C52   C     C_R   0.041658 0.819068 0.218161 -0.126626
C53   C     C_R   0.297505 0.462025 0.508240 0.111821
C54   C     C_2   0.428592 0.570233 0.108955 0.150662
C55   C     C_2   0.525503 0.594053 0.040951 -0.285442
C56   C     C_R   0.904389 0.201028 0.791814 -0.103112
C57   C     C_2   0.897135 0.964148 0.022744 -0.258294
C58   C     C_2   0.882811 0.055685 0.114250 -0.070825
C59   C     C_R   0.794452 0.507846 0.309713 -0.151609
C60   C     C_R   0.927551 0.748274 0.930102 -0.148512
C61   C     C_R   0.951881 0.853675 0.991827 0.153749
C62   C     C_2   0.493682 0.939679 0.855057 0.959641
C63   C     C_2   0.030897 0.656706 0.482036 0.982138
C64   C     C_2   0.854253 0.284280 0.377457 0.972933
C65   C     C_3   0.447584 0.649313 0.276806 -0.911088
C66   C     C_R   0.217188 0.423819 0.692624 -0.095553
C67   C     C_R   0.097299 0.251296 0.044124 -0.080289
C68   C     C_R   0.998958 0.167853 0.947753 -0.125402
H1    H     H_    0.071535 0.897198 0.065604 0.108457
H2    H     H_    0.415547 0.809443 0.188749 0.140735
H3    H     H_    0.218078 0.833670 0.331157 0.127849
H4    H     H_    0.644115 0.352142 0.182586 0.093200
H5    H     H_    0.145164 0.131920 0.308585 0.152074
H6    H     H_    0.341643 0.103980 0.164538 0.135572
H7    H     H_    0.099361 0.153408 0.516266 0.133074
H8    H     H_    0.789137 0.896868 0.500294 0.127240
H9    H     H_    0.703518 0.912393 0.687322 0.145877
H10   H     H_    0.418645 0.164638 0.941454 0.150131
H11   H     H_    0.517504 0.309406 0.880516 0.127662
H12   H     H_    0.855196 0.139609 0.819176 0.101771
H13   H     H_    0.706648 0.258976 0.724008 0.114582
H14   H     H_    0.748291 0.623510 0.901547 0.103707
H15   H     H_    0.023143 0.427466 0.375198 0.196703
H16   H     H_    0.637996 0.638034 0.630596 0.174121
H17   H     H_    0.808811 0.738146 0.627216 0.165626
H18   H     H_    0.545911 0.422178 0.638674 0.126047
H19   H     H_    0.487559 0.428040 0.343733 0.132558
H20   H     H_    0.280215 0.294172 0.397285 0.121066
H21   H     H_    0.072846 0.334127 0.461494 0.123241
H22   H     H_    0.970853 0.519648 0.616126 0.113757
H23   H     H_    0.191884 0.361674 0.632856 0.119953
H24   H     H_    0.080714 0.675876 0.687061 0.116792
H25   H     H_    0.919878 0.698376 0.381795 0.098015
H26   H     H_    0.288563 0.637758 0.623008 0.116170
H27   H     H_    0.526086 0.619392 0.982676 0.123600
H28   H     H_    0.858515 0.969071 0.974964 0.143223
H29   H     H_    0.915598 0.053111 0.166803 0.157884
H30   H     H_    0.603832 0.432204 0.087446 0.119867
H31   H     H_    0.078449 0.886258 0.195143 0.115272
H32   H     H_    0.822599 0.549974 0.370692 0.133273
H33   H     H_    0.882341 0.733478 0.882202 0.095975
H34   H     H_    0.157839 0.266388 0.077854 0.108675
H35   H     H_    0.363194 0.647206 0.989892 0.102297
H36   H     H_    0.350402 0.900240 0.955941 0.320776
H37   H     H_    0.201224 0.655291 0.399568 0.324759
H38   H     H_    0.780404 0.135190 0.354478 0.317364
H39   H     H_    0.354392 0.512533 0.228901 0.187844
H40   H     H_    0.444893 0.624905 0.338233 0.249597
H41   H     H_    0.382487 0.722921 0.317240 0.241190
H42   H     H_    0.534296 0.675898 0.240243 0.266919
H43   H     H_    0.968543 0.105336 0.891898 0.107714
H44   H     H_    0.390495 0.558818 0.801570 0.110468
H45   H     H_    0.218725 0.451352 0.169210 0.125114
H46   H     H_    0.994920 0.344024 0.648942 0.114897
H47   H     H_    0.476838 0.942011 0.103695 0.118768
N1    N     N_R   0.037320 0.720000 0.995830 -0.045861
N2    N     N_R   0.824900 0.517970 0.936430 -0.040583
N3    N     N_R   0.003190 0.648180 0.211390 -0.040222
N4    N     N_R   0.774330 0.457010 0.995830 -0.051103
N5    N     N_R   0.053760 0.709130 0.151980 -0.040765
N6    N     N_R   0.853840 0.498830 0.211390 -0.040991
N7    N     N_R   0.974250 0.667320 0.936430 -0.041732
N8    N     N_R   0.225670 0.542990 0.004170 -0.038298
N9    N     N_2   0.423469 0.552567 0.196082 -0.117288
N10   N     N_R   0.946240 0.290870 0.848020 -0.043596
N11   N     N_R   0.146160 0.501170 0.788610 -0.044943
N12   N     N_R   0.025750 0.332680 0.063570 -0.047138
N13   N     N_R   0.962680 0.280000 0.004170 -0.047454
N14   N     N_R   0.209230 0.553860 0.848010 -0.043341
N15   N     N_R   0.175100 0.482030 0.063570 -0.040800
N16   N     N_R   0.996810 0.351820 0.788610 -0.038199
N17   N     N_R   0.790770 0.446140 0.151990 -0.041866
Ni1   Ni    Ni4+2 0.130310 0.630310 0.000000 0.219490
Ni2   Ni    Ni4+2 0.869690 0.369690 0.000000 0.211953
Ni3   Ni    Ni4+2 0.985660 0.509480 0.863750 0.211382
Ni4   Ni    Ni4+2 0.014340 0.490520 0.136250 0.233038
O1    O     O_2   0.541326 0.843411 0.812564 -0.689384
O2    O     O_R   0.382121 0.967008 0.938401 -0.827075
O3    O     O_2   0.021622 0.759450 0.540350 -0.669050
O4    O     O_R   0.138566 0.601325 0.400488 -0.823229
O5    O     O_2   0.949417 0.234542 0.310079 -0.697442
O6    O     O_R   0.759340 0.220947 0.398329 -0.802027

loop_
_geom_bond_atom_site_label_1
_geom_bond_atom_site_label_2
_ccdc_geom_bond_type
N10   Ni2   S    
C25   C31   A    
C8    C66   A    
C18   H7    S    
C6    C45   A    
C5    H46   S    
C27   C29   A    
C3    N15   A    
C63   O4    S    
C35   C36   A    
C49   H22   S    
C27   H10   S    
C4    N17   A    
C45   N8    A    
C21   H8    S    
C2    H44   S    
C26   C27   A    
C29   C30   A    
N1    N7    A    
N8    Ni1   S    
C18   C24   A    
C7    C56   A    
C37   H17   S    
C36   C37   A    
C18   C19   A    
C67   N12   A    
N2    N4    A    
C42   C53   S    
C40   H30   S    
C30   C31   A    
C11   H3    S    
C64   O5    D    
C10   C17   A    
C23   C40   A    
C2    N14   A    
N5    Ni1   S    
C41   C42   A    
C65   N9    S    
C57   C61   S    
C34   C52   A    
C45   H35   S    
C12   C59   A    
C19   C20   A    
C57   H28   S    
C1    N1    A    
C32   C38   A    
C4    C12   A    
C68   N13   A    
C65   H40   S    
C47   C53   A    
C3    C6    A    
C28   C34   A    
C62   O1    D    
C21   C22   A    
C59   H32   S    
C58   H29   S    
H39   N9    S    
C6    C54   S    
C44   C46   A    
H38   O6    S    
C22   C34   S    
N15   Ni4   S    
N4    Ni2   S    
C14   H5    S    
C8    C41   S    
C39   C41   A    
C3    H45   S    
C5    C7    A    
N1    Ni1   S    
N11   N14   A    
C25   C26   A    
C1    H1    S    
C66   N11   A    
C13   C24   S    
C28   H25   S    
C51   C53   A    
C68   H43   S    
C43   C44   A    
C9    C67   A    
C37   C38   A    
N13   Ni2   S    
N10   N16   A    
C47   C48   A    
C29   H11   S    
C15   H6    S    
C16   H14   S    
C50   C51   A    
C56   N10   A    
N12   Ni4   S    
C60   N7    A    
C65   H41   S    
C39   C46   A    
N14   Ni1   S    
C52   N5    A    
C55   H27   S    
C48   C49   A    
C62   O2    S    
N11   Ni3   S    
C16   C23   A    
C7    C19   S    
C48   H21   S    
N8    N15   A    
C25   H9    S    
C65   H42   S    
C42   C43   A    
N6    N17   A    
N12   N13   A    
N2    Ni3   S    
C10   H2    S    
C4    H4    S    
N3    Ni4   S    
C17   H47   S    
C38   C63   S    
C50   H24   S    
C15   C17   A    
C32   H15   S    
C54   N9    S    
C54   C55   D    
C63   O3    D    
C2    C8    A    
C1    C61   A    
C23   C55   S    
C66   H23   S    
C52   H31   S    
N16   Ni3   S    
C56   H12   S    
C43   H19   S    
C47   H20   S    
C30   H13   S    
C26   C62   S    
C9    C68   A    
C12   C44   S    
C28   N3    A    
C16   N2    A    
C32   C33   A    
H37   O4    S    
C11   C13   A    
C57   C58   D    
C64   O6    S    
C36   H16   S    
C33   C64   S    
C33   C35   A    
H36   O2    S    
C22   C24   A    
N6    Ni4   S    
N3    N5    A    
N7    Ni3   S    
C10   C11   A    
C51   H26   S    
C59   N6    A    
C5    N16   A    
C40   N4    A    
C20   C21   A    
N17   Ni2   S    
C49   C50   A    
C14   C15   A    
C60   C61   A    
C39   H18   S    
C13   C14   A    
C35   C46   S    
C60   H33   S    
C67   H34   S    
C20   C31   S    
