data_mof_unit_12541.cif
_audit_creation_date              2012-12-11T15:35:30-0500
_audit_creation_method            fapswitch 2.2
_symmetry_space_group_name_H-M    P1
_symmetry_Int_Tables_number       1
_space_group_crystal_system       triclinic
_cell_length_a                    17.272525
_cell_length_b                    24.343017
_cell_length_c                    14.803525
_cell_angle_alpha                 89.308704
_cell_angle_beta                  125.111844
_cell_angle_gamma                 90.770527
_cell_volume                      5091.1945115

loop_
_atom_site_label
_atom_site_type_symbol
_atom_type_description
_atom_site_fract_x
_atom_site_fract_y
_atom_site_fract_z
_atom_type_partial_charge
C1    C     C_R   0.351321 0.151933 0.906494 -0.037076
C2    C     C_R   0.596552 0.124613 0.905809 -0.062936
C3    C     C_R   0.255127 0.545536 0.305844 -0.107935
C4    C     C_2   0.308409 0.173246 0.793390 0.941565
C5    C     C_2   0.352978 0.825304 0.808523 0.943863
C6    C     C_2   0.808322 0.673204 0.793346 0.941848
C7    C     C_2   0.852928 0.325319 0.808486 0.944223
C8    C     C_2   0.027793 0.933853 0.751051 1.035898
C9    C     C_2   0.033941 0.058687 0.760954 1.038331
C10   C     C_2   0.527516 0.434325 0.751628 1.033079
C11   C     C_2   0.533945 0.559131 0.760682 1.037822
C12   C     C_2   0.683702 0.153815 0.781625 1.001413
C13   C     C_R   0.097847 0.374188 0.908926 -0.059962
C14   C     C_2   0.796657 0.879498 0.903797 1.013017
C15   C     C_2   0.183863 0.653711 0.781729 1.000939
C16   C     C_2   0.298840 0.380248 0.906927 1.018319
C17   C     C_2   0.513727 0.828077 0.206090 0.923695
C18   C     C_2   0.520145 0.176455 0.199826 0.969485
C19   C     C_2   0.013711 0.328074 0.206087 0.924109
C20   C     C_2   0.020452 0.676456 0.199793 0.969649
C21   C     C_R   0.096580 0.624595 0.905823 -0.065690
C22   C     C_R   0.434483 0.000132 0.631123 0.017072
C23   C     C_R   0.934514 0.500136 0.631137 0.016562
C24   C     C_R   0.801045 0.999492 0.369359 -0.012872
C25   C     C_R   0.301020 0.499509 0.369409 -0.012091
C26   C     C_R   0.688727 0.134218 0.994887 0.040969
C27   C     C_R   0.686186 0.861666 0.002179 0.089297
C28   C     C_R   0.188757 0.634193 0.994914 0.038694
C29   C     C_R   0.361128 0.845882 0.907739 -0.082721
C30   C     C_R   0.186315 0.361831 0.002128 0.104729
C31   C     C_3   0.020555 0.944346 0.644881 -0.240559
C32   C     C_3   0.019409 0.049987 0.650339 -0.252996
C33   C     C_3   0.520347 0.444528 0.645403 -0.248184
C34   C     C_3   0.519495 0.550185 0.650173 -0.254445
C35   C     C_3   0.917413 0.944498 0.539001 -0.437266
C36   C     C_3   0.913439 0.047237 0.550511 -0.419675
C37   C     C_3   0.417198 0.444677 0.539473 -0.435079
C38   C     C_3   0.413551 0.547477 0.550276 -0.418878
C39   C     C_3   0.066719 0.001462 0.538584 -0.400472
C40   C     C_R   0.851354 0.651940 0.906505 -0.036554
C41   C     C_3   0.566702 0.501189 0.538755 -0.399763
C42   C     C_3   0.072258 0.998544 0.647588 0.165478
C43   C     C_3   0.572225 0.498582 0.647771 0.167644
C44   C     C_3   0.896934 0.999052 0.473164 0.329677
C45   C     C_3   0.396904 0.499085 0.473265 0.329091
C46   C     C_R   0.445020 0.846221 0.091409 -0.047923
C47   C     C_R   0.446309 0.153226 0.090521 -0.110749
C48   C     C_R   0.945020 0.346220 0.091404 -0.048546
C49   C     C_R   0.946452 0.653243 0.090531 -0.110881
C50   C     C_3   0.965065 0.004808 0.438114 -0.369986
C51   C     C_R   0.861122 0.345888 0.907732 -0.083310
C52   C     C_3   0.465074 0.504508 0.438231 -0.370729
C53   C     C_R   0.280540 0.733693 0.893125 -0.140319
C54   C     C_R   0.343324 0.281692 0.955748 -0.109180
C55   C     C_R   0.780477 0.233740 0.893101 -0.141425
C56   C     C_R   0.842468 0.781551 0.954669 -0.108081
C57   C     C_R   0.741813 0.182690 0.889066 -0.119639
C58   C     C_R   0.794507 0.827083 0.955327 -0.123949
C59   C     C_R   0.241900 0.682634 0.889122 -0.117489
C60   C     C_R   0.295513 0.327363 0.956513 -0.129289
C61   C     C_R   0.763812 0.159890 0.989294 0.085336
C62   C     C_R   0.691421 0.121650 0.089293 -0.099773
C63   C     C_R   0.746164 0.820704 0.006035 0.030376
C64   C     C_R   0.263864 0.659861 0.989351 0.079971
C65   C     C_R   0.246182 0.320813 0.005947 0.031703
C66   C     C_R   0.849545 0.175069 0.087184 -0.152138
C67   C     C_R   0.746688 0.771210 0.055053 -0.161584
C68   C     C_R   0.349566 0.675067 0.087248 -0.154024
C69   C     C_R   0.245560 0.271111 0.053658 -0.164605
C70   C     C_R   0.399637 0.720390 0.087497 -0.119657
C71   C     C_R   0.291434 0.226846 0.050683 -0.079832
C72   C     C_R   0.899630 0.220387 0.087443 -0.120280
C73   C     C_R   0.688984 0.876090 0.093616 -0.080771
C74   C     C_R   0.792622 0.726994 0.052048 -0.079484
C75   C     C_R   0.358264 0.754603 0.993701 0.153164
C76   C     C_R   0.339110 0.232043 0.001025 0.219315
C77   C     C_R   0.858243 0.254617 0.993674 0.153295
C78   C     C_R   0.839316 0.732065 0.001178 0.215196
C79   C     C_R   0.387201 0.950231 0.461212 -0.147256
C80   C     C_R   0.388584 0.049717 0.459975 -0.145366
C81   C     C_R   0.887207 0.450241 0.461210 -0.147184
C82   C     C_R   0.888625 0.549727 0.459998 -0.146083
C83   C     C_R   0.385879 0.950127 0.366841 -0.143099
C84   C     C_R   0.191431 0.621635 0.089306 -0.099334
C85   C     C_R   0.386790 0.049545 0.365303 -0.153010
C86   C     C_R   0.885863 0.450138 0.366824 -0.142449
C87   C     C_R   0.886810 0.549556 0.365312 -0.153311
C88   C     C_R   0.397319 0.999781 0.326781 0.137856
C89   C     C_R   0.897311 0.499792 0.326769 0.137883
C90   C     C_R   0.476019 0.045385 0.244252 -0.040661
C91   C     C_R   0.475573 0.954447 0.244901 -0.108400
C92   C     C_R   0.976006 0.545390 0.244230 -0.039972
C93   C     C_R   0.975565 0.454450 0.244894 -0.106562
C94   C     C_R   0.398719 0.000042 0.514510 0.130973
C95   C     C_R   0.189050 0.376175 0.093577 -0.079272
C96   C     C_R   0.898750 0.500050 0.514523 0.131944
C97   C     C_R   0.232033 0.953279 0.758732 -0.039287
C98   C     C_R   0.231537 0.045075 0.758000 -0.054842
C99   C     C_R   0.732031 0.453296 0.758862 -0.039181
C100  C     C_R   0.731556 0.545083 0.758068 -0.055827
C101  C     C_R   0.382902 0.183568 0.998219 -0.135954
C102  C     C_R   0.387643 0.812885 0.998988 -0.076828
C103  C     C_R   0.883041 0.683593 0.998248 -0.134893
C104  C     C_R   0.887645 0.312890 0.998978 -0.076757
C105  C     C_R   0.442570 0.999799 0.268312 -0.001658
C106  C     C_R   0.597777 0.874088 0.908940 -0.055499
C107  C     C_R   0.942556 0.499805 0.268293 -0.001833
C108  C     C_R   0.175534 0.998723 0.735052 0.046637
C109  C     C_R   0.675538 0.498747 0.735222 0.047713
C110  C     C_R   0.450339 0.045509 0.695058 -0.049144
C111  C     C_R   0.451189 0.954632 0.696192 -0.078645
C112  C     C_R   0.950361 0.545512 0.695069 -0.053408
C113  C     C_R   0.951203 0.454634 0.696196 -0.084526
C114  C     C_R   0.754189 0.953919 0.305545 -0.118090
C115  C     C_R   0.755158 0.045528 0.305832 -0.107347
C116  C     C_R   0.254201 0.453930 0.305571 -0.116851
H1    H     H_    0.863372 0.938394 0.556493 0.205437
H2    H     H_    0.105967 0.037958 0.537796 0.172335
H3    H     H_    0.600006 0.464179 0.531455 0.179616
H4    H     H_    0.606040 0.537579 0.537753 0.172014
H5    H     H_    0.951629 0.971744 0.379162 0.168866
H6    H     H_    0.953950 0.044871 0.395157 0.160977
H7    H     H_    0.451578 0.471281 0.379543 0.168759
H8    H     H_    0.454067 0.544461 0.394969 0.160755
H9    H     H_    0.248133 0.756708 0.817142 0.159414
H10   H     H_    0.383003 0.284255 0.919776 0.157850
H11   H     H_    0.748053 0.256777 0.817141 0.159598
H12   H     H_    0.864584 0.041533 0.575940 0.217708
H13   H     H_    0.881419 0.784037 0.917806 0.165493
H14   H     H_    0.874936 0.154401 0.164528 0.122702
H15   H     H_    0.708128 0.766124 0.092141 0.140168
H16   H     H_    0.374943 0.654416 0.164604 0.122660
H17   H     H_    0.206243 0.265945 0.089800 0.140333
H18   H     H_    0.466968 0.729272 0.162799 0.149080
H19   H     H_    0.288440 0.188057 0.085475 0.111437
H20   H     H_    0.966982 0.229254 0.162734 0.149231
H21   H     H_    0.790401 0.688327 0.087741 0.110875
H22   H     H_    0.463596 0.087682 0.251766 0.094056
H23   H     H_    0.363120 0.438829 0.556974 0.208345
H24   H     H_    0.462282 0.912424 0.253831 0.128235
H25   H     H_    0.963574 0.587693 0.251715 0.093916
H26   H     H_    0.962277 0.412426 0.253831 0.128034
H27   H     H_    0.211067 0.910674 0.748500 0.141904
H28   H     H_    0.208217 0.086902 0.743579 0.118620
H29   H     H_    0.711020 0.410697 0.748646 0.141298
H30   H     H_    0.708264 0.586911 0.743643 0.118791
H31   H     H_    0.431415 0.087463 0.666820 0.117505
H32   H     H_    0.433633 0.912409 0.669848 0.117638
H33   H     H_    0.931440 0.587466 0.666834 0.118958
H34   H     H_    0.364599 0.542055 0.575629 0.219057
H35   H     H_    0.933640 0.412413 0.669843 0.119329
H36   H     H_    0.765637 0.911475 0.331815 0.124427
H37   H     H_    0.768718 0.087836 0.332208 0.126814
H38   H     H_    0.265702 0.411486 0.331845 0.124424
H39   H     H_    0.268624 0.587845 0.332200 0.127164
H40   H     H_    0.751789 0.125224 0.173971 0.101400
H41   H     H_    0.745359 0.868435 0.179124 0.115570
H42   H     H_    0.251794 0.625206 0.173987 0.101422
H43   H     H_    0.245438 0.368504 0.179073 0.114819
H44   H     H_    0.570038 0.865185 0.824006 0.107389
H45   H     H_    0.909984 0.909029 0.487848 0.152082
H46   H     H_    0.564333 0.131779 0.819504 0.110224
H47   H     H_    0.070128 0.365310 0.823990 0.107563
H48   H     H_    0.064387 0.631755 0.819521 0.111746
H49   H     H_    0.220599 0.227578 0.674789 0.336459
H50   H     H_    0.383235 0.765516 0.740258 0.335726
H51   H     H_    0.719860 0.727213 0.674408 0.336717
H52   H     H_    0.883119 0.265533 0.740151 0.335692
H53   H     H_    0.112939 0.917103 0.914326 0.336960
H54   H     H_    0.125946 0.075642 0.923145 0.331315
H55   H     H_    0.612704 0.418105 0.915121 0.337317
H56   H     H_    0.895302 0.087263 0.506300 0.150390
H57   H     H_    0.625878 0.576279 0.922795 0.331186
H58   H     H_    0.598125 0.159336 0.615401 0.328610
H59   H     H_    0.825589 0.917523 0.804406 0.369854
H60   H     H_    0.098397 0.659157 0.615491 0.329010
H61   H     H_    0.277574 0.462208 0.890495 0.355776
H62   H     H_    0.388550 0.911036 0.497070 0.123460
H63   H     H_    0.391381 0.088972 0.495088 0.118374
H64   H     H_    0.888548 0.411045 0.497061 0.123592
H65   H     H_    0.891444 0.588982 0.495124 0.118561
H66   H     H_    0.650847 0.822443 0.334384 0.323636
H67   H     H_    0.409647 0.409055 0.488575 0.151873
H68   H     H_    0.565794 0.240470 0.304497 0.334289
H69   H     H_    0.150821 0.322465 0.334420 0.324146
H70   H     H_    0.066572 0.740562 0.304314 0.334295
H71   H     H_    0.386815 0.910917 0.334019 0.137096
H72   H     H_    0.388260 0.088712 0.331162 0.111836
H73   H     H_    0.886778 0.410928 0.333985 0.137073
H74   H     H_    0.888290 0.588724 0.331179 0.111757
H75   H     H_    0.055111 0.908666 0.636024 0.106622
H76   H     H_    0.049110 0.087430 0.636700 0.113196
H77   H     H_    0.554848 0.408724 0.636828 0.107932
H78   H     H_    0.395641 0.587423 0.505819 0.150018
H79   H     H_    0.549331 0.587513 0.636388 0.113377
H80   H     H_    0.100100 0.964566 0.531033 0.179655
N1    N     N_R   0.392140 0.102630 0.941800 -0.064954
N2    N     N_R   0.525160 0.972040 0.206160 -0.045283
N3    N     N_R   0.025160 0.527960 0.206160 -0.031860
N4    N     N_R   0.025160 0.472040 0.206160 -0.045284
N5    N     N_R   0.317870 0.971120 0.792790 -0.046490
N6    N     N_R   0.317870 0.028880 0.792790 -0.050777
N7    N     N_R   0.817870 0.471120 0.792790 -0.045912
N8    N     N_R   0.817870 0.528880 0.792790 -0.050446
N9    N     N_R   0.473480 0.027920 0.793480 -0.043466
N10   N     N_R   0.473480 0.972080 0.793480 -0.043863
N11   N     N_R   0.973480 0.527920 0.793480 -0.043973
N12   N     N_R   0.392140 0.897370 0.941800 -0.068202
N13   N     N_R   0.973480 0.472080 0.793480 -0.043873
N14   N     N_R   0.681610 0.971120 0.207570 -0.036744
N15   N     N_R   0.681610 0.028880 0.207570 -0.037768
N16   N     N_R   0.181610 0.471120 0.207570 -0.036813
N17   N     N_R   0.181610 0.528880 0.207570 -0.038058
N18   N     N_R   0.605410 0.102620 0.056870 -0.045623
N19   N     N_R   0.605410 0.897380 0.056870 -0.040854
N20   N     N_R   0.105410 0.602620 0.056870 -0.045497
N21   N     N_R   0.105410 0.397380 0.056870 -0.041527
N22   N     N_R   0.549680 0.896430 0.944180 -0.063087
N23   N     N_R   0.892140 0.602630 0.941800 -0.064909
N24   N     N_R   0.549680 0.103570 0.944180 -0.052483
N25   N     N_R   0.049680 0.396430 0.944180 -0.062929
N26   N     N_R   0.049680 0.603570 0.944180 -0.052082
N27   N     N_R   0.892140 0.397370 0.941800 -0.068107
N28   N     N_R   0.450890 0.896450 0.057150 -0.073716
N29   N     N_R   0.450890 0.103550 0.057150 -0.067049
N30   N     N_R   0.950890 0.396450 0.057150 -0.073740
N31   N     N_R   0.950890 0.603550 0.057150 -0.067100
N32   N     N_R   0.525160 0.027960 0.206160 -0.031945
Ni1   Ni    Ni4+2 0.433410 0.064680 0.868830 0.270303
Ni2   Ni    Ni4+2 0.433410 0.935320 0.868830 0.269446
Ni3   Ni    Ni4+2 0.933410 0.564680 0.868830 0.269727
Ni4   Ni    Ni4+2 0.933410 0.435320 0.868830 0.268813
Ni5   Ni    Ni4+2 0.565650 0.934380 0.131170 0.262845
Ni6   Ni    Ni4+2 0.565650 0.065620 0.131170 0.275071
Ni7   Ni    Ni4+2 0.065650 0.434380 0.131170 0.263126
Ni8   Ni    Ni4+2 0.065650 0.565620 0.131170 0.274945
O1    O     O_2   0.327477 0.151898 0.734172 -0.674474
O2    O     O_R   0.116329 0.923396 0.848853 -0.813935
O3    O     O_2   0.967281 0.056785 0.768928 -0.596179
O4    O     O_R   0.124648 0.070375 0.854454 -0.814040
O5    O     O_2   0.457146 0.434287 0.752549 -0.573025
O6    O     O_R   0.616110 0.424240 0.849623 -0.814738
O7    O     O_2   0.467234 0.557386 0.768572 -0.593656
O8    O     O_R   0.624638 0.570846 0.854180 -0.813867
O9    O     O_2   0.681231 0.103563 0.779349 -0.613877
O10   O     O_R   0.634512 0.183807 0.682800 -0.803694
O11   O     O_2   0.772864 0.922665 0.922250 -0.623565
O12   O     O_R   0.245179 0.217031 0.753398 -0.797659
O13   O     O_R   0.827440 0.879603 0.834651 -0.770105
O14   O     O_2   0.181400 0.603457 0.779546 -0.627862
O15   O     O_R   0.134737 0.683658 0.682847 -0.802443
O16   O     O_2   0.326529 0.381016 0.847183 -0.590422
O17   O     O_R   0.272014 0.429386 0.929313 -0.799818
O18   O     O_2   0.486092 0.810244 0.260584 -0.661509
O19   O     O_R   0.610436 0.834943 0.254421 -0.820032
O20   O     O_2   0.591070 0.149884 0.264725 -0.662885
O21   O     O_R   0.510303 0.229236 0.227992 -0.800571
O22   O     O_2   0.986060 0.310216 0.260547 -0.661183
O23   O     O_2   0.317871 0.854038 0.725857 -0.678742
O24   O     O_R   0.110422 0.334970 0.254459 -0.819884
O25   O     O_2   0.091196 0.649765 0.264749 -0.662847
O26   O     O_R   0.010998 0.729358 0.227836 -0.800475
O27   O     O_R   0.391329 0.774416 0.811981 -0.790755
O28   O     O_2   0.827741 0.652025 0.734313 -0.674107
O29   O     O_R   0.744479 0.716682 0.753036 -0.796594
O30   O     O_2   0.817800 0.354061 0.725828 -0.678481
O31   O     O_R   0.891247 0.274428 0.811896 -0.790644
O32   O     O_2   0.957503 0.933943 0.752089 -0.606138

loop_
_geom_bond_atom_site_label_1
_geom_bond_atom_site_label_2
_ccdc_geom_bond_type
C34   H79   S    
N7    N8    A    
C24   C114  A    
C47   C101  A    
C31   C42   S    
C73   H41   S    
N10   Ni2   S    
C22   C94   S    
N5    N6    A    
C91   C105  A    
N9    Ni1   S    
C50   H6    S    
N4    Ni7   S    
C114  H36   S    
C8    O32   D    
C18   C47   S    
C2    H46   S    
C19   O22   D    
N12   Ni2   S    
C53   C59   A    
N27   N30   A    
C46   N28   A    
C47   N29   A    
C14   O13   S    
C54   C60   A    
N9    N10   A    
H70   O26   S    
C23   C112  A    
C46   C102  A    
C82   H65   S    
C59   C64   A    
C30   C95   A    
C29   N12   A    
N24   Ni1   S    
C95   H43   S    
N29   Ni6   S    
C64   C68   A    
C90   N32   A    
C8    C31   S    
C26   C61   S    
C42   C108  S    
C71   H19   S    
C71   C76   A    
C55   C77   A    
C52   H7    S    
C65   C69   A    
H59   O13   S    
C28   C84   A    
C12   O9    D    
C37   H67   S    
C31   H75   S    
C5    O23   D    
C56   C78   A    
C23   C96   S    
C32   H76   S    
C68   H16   S    
C16   C60   S    
N14   Ni5   S    
C69   C71   A    
C113  H35   S    
C4    O12   S    
C38   C45   S    
H69   O24   S    
C72   C77   A    
C20   O26   S    
C91   N2    A    
C61   C66   A    
N22   Ni2   S    
C51   N27   A    
C22   C110  A    
N19   Ni5   S    
C9    O3    D    
C75   C102  S    
C4    O1    D    
C49   N31   A    
C92   N3    A    
C66   H14   S    
H66   O19   S    
C41   C43   S    
C41   C52   S    
C116  H38   S    
C81   C86   A    
C9    C32   S    
C52   H8    S    
C99   N7    A    
C85   H72   S    
C83   C88   A    
C99   H29   S    
C33   H77   S    
N3    N4    A    
C21   H48   S    
C115  H37   S    
C2    N24   A    
C11   O8    S    
C62   N18   A    
C48   C104  A    
C83   H71   S    
C80   C85   A    
C53   C75   A    
C50   H5    S    
C6    O29   S    
C106  H44   S    
C70   H18   S    
C90   H22   S    
N2    N32   A    
C13   H47   S    
C39   C42   S    
C5    C29   S    
C56   C58   A    
N21   N25   A    
C14   C58   S    
C74   H21   S    
C63   C67   A    
C17   O18   D    
C36   H56   S    
C82   C96   A    
C21   N26   A    
C13   N25   A    
C33   C43   S    
C80   H63   S    
C37   H23   S    
C13   C30   A    
C3    C25   A    
C93   N4    A    
C66   C72   A    
C17   C46   S    
C112  N11   A    
C79   C94   A    
C110  N9    A    
C25   C116  A    
N23   Ni3   S    
C19   O24   S    
C81   C96   A    
C84   H42   S    
C19   C48   S    
C43   C109  S    
C45   C52   S    
C18   O20   D    
C51   C104  A    
N2    Ni5   S    
C33   C37   S    
N30   Ni7   S    
C38   H78   S    
N13   Ni4   S    
C7    O30   D    
C73   N19   A    
N28   Ni5   S    
H51   O29   S    
C49   C103  A    
C20   C49   S    
N31   Ni8   S    
C20   O25   D    
C23   C113  A    
C72   H20   S    
C48   N30   A    
C16   O17   S    
C92   C107  A    
C97   C108  A    
C89   C107  S    
C9    O4    S    
C3    H39   S    
C79   H62   S    
C2    C26   A    
C67   C74   A    
C35   H45   S    
H50   O27   S    
C41   H3    S    
C7    O31   S    
C35   C44   S    
C111  N10   A    
C53   H9    S    
N6    Ni1   S    
C54   C76   A    
C12   C57   S    
C28   C64   S    
H60   O15   S    
N5    Ni2   S    
C106  N22   A    
C21   C28   A    
C55   H11   S    
N26   Ni3   S    
C22   C111  A    
C1    C101  A    
C8    O2    S    
H53   O2    S    
C87   H74   S    
H55   O6    S    
H49   O12   S    
C24   C44   S    
C31   C35   S    
C35   H1    S    
C3    N17   A    
C37   C45   S    
C110  H31   S    
N17   Ni8   S    
H52   O31   S    
C25   C45   S    
C36   H12   S    
N16   Ni7   S    
C92   H25   S    
H58   O10   S    
N11   N13   A    
C14   O11   D    
C85   C88   A    
C44   C50   S    
C76   C101  S    
C16   O16   D    
H54   O4    S    
C17   O19   S    
C86   H73   S    
C69   H17   S    
N19   N22   A    
C98   H28   S    
C78   C103  S    
C34   C38   S    
C98   C108  A    
C15   C59   S    
N32   Ni6   S    
C98   N6    A    
C11   C34   S    
C1    N1    A    
C34   C43   S    
C58   C63   A    
C81   H64   S    
C97   N5    A    
C86   C89   A    
C60   C65   A    
C111  H32   S    
C32   C36   S    
C57   C61   A    
C15   O14   D    
N1    Ni1   S    
N12   N28   A    
C39   H2    S    
H61   O17   S    
C39   H80   S    
H68   O21   S    
C27   C106  A    
N15   Ni6   S    
C115  N15   A    
C11   O7    D    
C1    C4    S    
C114  N14   A    
N8    Ni3   S    
C55   C57   A    
C26   C62   A    
C7    C51   S    
C116  N16   A    
N18   N24   A    
N3    Ni8   S    
C93   C107  A    
C40   N23   A    
C79   C83   A    
C88   C105  S    
C100  N8    A    
H57   O8    S    
N11   Ni3   S    
N7    Ni4   S    
C15   O15   S    
C12   O10   S    
N25   Ni4   S    
C97   H27   S    
N21   Ni7   S    
C95   N21   A    
N20   Ni8   S    
C62   H40   S    
C29   C102  A    
C10   C33   S    
C6    C40   S    
C18   O21   S    
C41   H4    S    
C56   H13   S    
C67   H15   S    
N20   N26   A    
C30   C65   S    
C36   C44   S    
C90   C105  A    
C113  N13   A    
C91   H24   S    
C54   H10   S    
C10   O6    S    
C84   N20   A    
N27   Ni4   S    
C100  C109  A    
C39   C50   S    
N16   N17   A    
C24   C115  A    
C68   C70   A    
N14   N15   A    
C74   C78   A    
C100  H30   S    
C70   C75   A    
C5    O27   S    
C87   C89   A    
C32   C42   S    
C112  H33   S    
N18   Ni6   S    
C77   C104  S    
C6    O28   D    
C27   C63   S    
N23   N31   A    
C27   C73   A    
C80   C94   A    
C38   H34   S    
C10   O5    D    
C93   H26   S    
C82   C87   A    
N1    N29   A    
C40   C103  A    
C99   C109  A    
