data_mof_unit_54736.cif
_audit_creation_date              2013-03-05T16:19:40-0500
_audit_creation_method            fapswitch 2.2
_symmetry_space_group_name_H-M    P1
_symmetry_Int_Tables_number       1
_space_group_crystal_system       triclinic
_cell_length_a                    10.618553
_cell_length_b                    9.676366
_cell_length_c                    27.678918
_cell_angle_alpha                 89.96176
_cell_angle_beta                  90.005749
_cell_angle_gamma                 90.020735
_cell_volume                      2843.98045613

loop_
_atom_site_label
_atom_site_type_symbol
_atom_site_description
_atom_site_fract_x
_atom_site_fract_y
_atom_site_fract_z
_atom_type_partial_charge
O1    O     O_R   0.314910 0.616040 0.499990 -0.638954
O2    O     O_R   0.314910 0.383960 0.499990 -0.642322
C1    C     C_R   0.257854 0.500229 0.499688 0.925194
O3    O     O_R   0.500140 0.616020 0.428740 -0.634382
O4    O     O_R   0.500140 0.383980 0.428740 -0.625622
C2    C     C_R   0.498501 0.500026 0.405910 0.905561
Zn1   Zn    Zn3+2 0.500150 0.654960 0.499980 0.905461
Zn2   Zn    Zn3+2 0.500150 0.345040 0.499980 0.909936
O5    O     O_R   0.685320 0.616040 0.499970 -0.637796
O6    O     O_R   0.685320 0.383960 0.499970 -0.635074
O7    O     O_R   0.500090 0.616050 0.571230 -0.629764
O8    O     O_R   0.500090 0.383950 0.571230 -0.632168
C3    C     C_R   0.742649 0.500313 0.499762 0.877216
C4    C     C_R   0.498789 0.499856 0.594071 0.913493
C5    C     C_R   0.359547 0.471219 0.177369 0.504621
O9    O     O_2   0.250948 0.457866 0.202292 -0.561490
N1    N     N_R   0.469971 0.493777 0.201425 -0.345741
C6    C     C_R   0.582312 0.504862 0.177705 0.543246
C7    C     C_R   0.491176 0.624563 0.277171 0.273856
C8    C     C_R   0.501792 0.623982 0.327452 -0.309313
C9    C     C_R   0.465995 0.376047 0.328688 -0.222697
C10   C     C_R   0.456002 0.375837 0.278746 -0.162605
C11   C     C_R   0.469442 0.499059 0.252897 0.296391
C12   C     C_R   0.473119 0.476718 0.101603 -0.053161
C13   C     C_R   0.358917 0.462912 0.126897 -0.058178
C14   C     C_R   0.247952 0.435124 0.101594 -0.148564
C15   C     C_R   0.586189 0.495925 0.127350 -0.024637
C16   C     C_R   0.489742 0.499924 0.353305 -0.061961
H1    H     H_    0.455358 0.279266 0.347955 0.156568
H2    H     H_    0.440130 0.279356 0.259880 0.150483
H3    H     H_    0.161588 0.412894 0.120933 0.211602
C17   C     C_R   0.492915 0.498765 0.646750 -0.077307
C18   C     C_R   0.360926 0.482202 0.974465 0.058128
C19   C     C_R   0.592201 0.463301 0.974850 0.044246
C20   C     C_R   0.477027 0.474841 0.949383 0.080174
C21   C     C_R   0.252549 0.521588 0.948580 -0.167887
C22   C     C_R   0.254098 0.531903 0.898523 -0.117302
C23   C     C_R   0.365662 0.508542 0.873000 -0.024050
C24   C     C_R   0.478112 0.482506 0.898428 -0.052321
C25   C     C_R   0.591847 0.465931 0.872946 -0.025073
C26   C     C_R   0.590316 0.471590 0.822509 0.545831
N2    N     N_R   0.479624 0.493921 0.798626 -0.352112
C27   C     C_R   0.368659 0.513989 0.822526 0.545578
C28   C     C_R   0.493515 0.620834 0.722890 -0.128006
C29   C     C_R   0.499566 0.622936 0.672762 -0.218258
C30   C     C_R   0.478447 0.372907 0.671398 -0.263702
C31   C     C_R   0.471814 0.370675 0.721507 0.213902
C32   C     C_R   0.480268 0.495078 0.747231 0.269893
O10   O     O_2   0.261888 0.537993 0.797423 -0.542217
C33   C     C_R   0.358866 0.460817 0.025000 -0.006921
C34   C     C_R   0.474369 0.471019 0.050635 0.051368
C35   C     C_R   0.591241 0.475339 0.025722 0.055561
C36   C     C_R   0.247302 0.429102 0.051339 0.124258
H4    H     H_    0.510194 0.721256 0.654481 0.161012
H5    H     H_    0.500165 0.716616 0.742950 0.163228
H6    H     H_    0.167843 0.559618 0.879997 0.195453
H7    H     H_    0.167056 0.551353 0.966846 0.176878
O11   O     O_2   0.689871 0.523107 0.202935 -0.553907
C37   C     C_R   0.700277 0.505490 0.102462 -0.119197
H8    H     H_    0.519394 0.720405 0.346172 0.150938
H9    H     H_    0.788264 0.521449 0.121492 0.198486
C38   C     C_R   0.704492 0.443235 0.948389 -0.202758
C39   C     C_R   0.703941 0.443658 0.898234 -0.114278
O12   O     O_2   0.698175 0.454709 0.797377 -0.537336
C40   C     C_R   0.703085 0.494573 0.052523 -0.191808
H10   H     H_    0.793911 0.423710 0.965569 0.170258
H11   H     H_    0.471796 0.276204 0.651884 0.167593
H12   H     H_    0.792202 0.428051 0.879374 0.198623
H13   H     H_    0.793974 0.506837 0.035681 0.164437
C41   C     C_3   0.073316 0.431467 0.547187 -0.007071
C42   C     C_3   0.070836 0.411559 0.456422 0.037788
H14   H     H_    0.107790 0.322493 0.547902 0.137927
H15   H     H_    0.088423 0.301426 0.466277 0.097304
C43   C     C_3   0.927726 0.427649 0.545855 -0.456455
C44   C     C_3   0.926885 0.426723 0.453382 -0.455730
H16   H     H_    0.895804 0.318018 0.546147 0.162041
H17   H     H_    0.883771 0.322190 0.450082 0.152729
H18   H     H_    0.886982 0.477640 0.578537 0.178777
H19   H     H_    0.898338 0.485925 0.420740 0.184618
H20   H     H_    0.106871 0.714352 0.528513 0.169821
H21   H     H_    0.102958 0.709192 0.465225 0.178648
H22   H     H_    0.895879 0.708355 0.531858 0.175254
H23   H     H_    0.891875 0.708777 0.466837 0.173394
C45   C     C_3   0.070882 0.652447 0.497614 -0.406487
C46   C     C_3   0.121897 0.500915 0.499622 0.100622
C47   C     C_3   0.878884 0.501230 0.499522 0.120111
C48   C     C_3   0.928328 0.652170 0.499006 -0.416653
C49   C     C_3   0.392035 0.081440 0.470979 -0.229591
C50   C     C_3   0.392040 0.918589 0.470978 -0.240070
H24   H     H_    0.395510 0.120260 0.433166 0.145736
H25   H     H_    0.395479 0.879862 0.433168 0.144728
H26   H     H_    0.301779 0.119168 0.486494 0.141370
H27   H     H_    0.301808 0.880808 0.486510 0.142915
H28   H     H_    0.626904 0.120442 0.439438 0.145905
H29   H     H_    0.627005 0.879816 0.439462 0.143865
C51   C     C_3   0.616534 0.081462 0.477050 -0.236293
C52   C     C_3   0.616542 0.918726 0.477062 -0.235897
C53   C     C_3   0.490545 0.081185 0.548630 -0.228522
C54   C     C_3   0.490565 0.918652 0.548630 -0.225043
N3    N     N_3   0.499750 0.138610 0.498940 -0.034671
N4    N     N_3   0.499750 0.861390 0.498940 -0.033297
H30   H     H_    0.570701 0.119329 0.570823 0.152019
H31   H     H_    0.570756 0.880538 0.570814 0.147654
H32   H     H_    0.403236 0.119681 0.566315 0.144641
H33   H     H_    0.403284 0.880012 0.566325 0.150096
H34   H     H_    0.700230 0.119030 0.497323 0.145877
H35   H     H_    0.700178 0.881276 0.497381 0.144838
N5    N     N_2   0.506522 0.750081 0.251010 -0.297281
H36   H     H_    0.566034 0.819773 0.267591 0.228357
C55   C     C_3   0.389645 0.813914 0.236147 -0.764108
H37   H     H_    0.410315 0.908118 0.214627 0.244905
H38   H     H_    0.333333 0.843874 0.268338 0.231798
H39   H     H_    0.333812 0.742444 0.213280 0.269437
I1    I     I_    0.449313 0.177940 0.756864 -0.337883
N6    N     N_2   0.119721 0.502980 0.590117 -0.311274
H40   H     H_    0.076202 0.595639 0.597830 0.241418
C56   C     C_3   0.140002 0.418009 0.632433 -0.738232
H41   H     H_    0.181020 0.481935 0.661807 0.264644
H42   H     H_    0.207382 0.333459 0.624132 0.236386
H43   H     H_    0.049307 0.373551 0.645050 0.250322
N7    N     N_2   0.133465 0.429670 0.409706 -0.304813
H44   H     H_    0.109726 0.353889 0.385109 0.233346
C57   C     C_3   0.146106 0.564886 0.387818 -0.758669
H45   H     H_    0.176428 0.553248 0.349614 0.250723
H46   H     H_    0.221076 0.624545 0.406271 0.236073
H47   H     H_    0.055350 0.621577 0.388123 0.234643
I2    I     I_    0.082734 0.332883 0.022116 -0.413294

loop_
_geom_bond_atom_site_label_1
_geom_bond_atom_site_label_2
_geom_bond_distance
_ccdc_geom_bond_type
C31   I1    2.119017 S    
C54   H31   1.112623 S    
C1    C46   1.443688 S    
C26   N2    1.365670 A    
H23   C48   1.114505 S    
C7    C8    1.396258 A    
C12   C15   1.408467 A    
H20   C45   1.112114 S    
C57   H45   1.111210 S    
Zn1   O7    2.007498 S    
N1    C11   1.425646 S    
C25   C39   1.397476 A    
C43   H16   1.113572 S    
C21   C22   1.389138 A    
C56   H42   1.111189 S    
C23   C24   1.408691 A    
O7    C4    1.289600 A    
C40   H13   1.078323 S    
C57   H46   1.108081 S    
C5    O9    1.349940 S    
C19   C38   1.412942 A    
C18   C21   1.408097 A    
N5    H36   1.031881 S    
C5    N1    1.365914 A    
C19   C20   1.415930 A    
C17   C29   1.402903 A    
O5    C3    1.274794 A    
C55   H37   1.110436 S    
C36   I2    2.138767 S    
C42   C46   1.572337 S    
C22   H6    1.083353 S    
C6    O11   1.350228 S    
C2    C16   1.458992 S    
C49   H26   1.112089 S    
N6    C56   1.446752 S    
C3    C47   1.446659 S    
C41   C43   1.546823 S    
C45   C48   1.514207 S    
C8    H8    1.083727 S    
C7    N5    1.422941 S    
C12   C34   1.411912 A    
C14   H3    1.083338 S    
C9    C10   1.386399 A    
O3    Zn1   2.007771 S    
C13   C14   1.396790 A    
N1    C6    1.365832 A    
C54   H33   1.112759 S    
C37   H9    1.083557 S    
C33   C36   1.424311 A    
C38   H10   1.078553 S    
C34   C35   1.420374 A    
C12   C13   1.406579 A    
O3    C2    1.288541 A    
C21   H7    1.078513 S    
C56   H43   1.110879 S    
C4    C17   1.459446 S    
C24   C25   1.407892 A    
C42   H15   1.115673 S    
C47   C48   1.551925 S    
C27   O10   1.349787 S    
C57   H47   1.109104 S    
C8    C16   1.402947 A    
C18   C33   1.414002 A    
C53   H30   1.112640 S    
C9    H1    1.083240 S    
C43   C47   1.555497 S    
O1    C1    1.273757 A    
C20   C24   1.412343 A    
C22   C23   1.397893 A    
C44   C47   1.553113 S    
C31   C32   1.401836 A    
Zn2   O8    2.007991 S    
C51   C52   1.574689 S    
C38   C39   1.388257 A    
C33   C34   1.420325 A    
N2    C32   1.422628 S    
C45   C46   1.564277 S    
H28   C51   1.112532 S    
C44   H17   1.113923 S    
C55   H39   1.109311 S    
N7    H44   1.032113 S    
C49   N3    1.487677 S    
C25   C26   1.397186 A    
C54   N4    1.486355 S    
C9    C16   1.401978 A    
O8    C4    1.287918 A    
C29   H4    1.083141 S    
C53   N3    1.486252 S    
Zn1   N4    1.997687 S    
H22   C48   1.114435 S    
C50   H25   1.112442 S    
N2    C27   1.365342 A    
C14   C36   1.392279 A    
H21   C45   1.104747 S    
C28   C29   1.389103 A    
C7    C11   1.407254 A    
Zn1   O5    2.002113 S    
C51   H34   1.112111 S    
C30   C31   1.388902 A    
C10   H2    1.083150 S    
C50   N4    1.487671 S    
O1    Zn1   2.002575 S    
C17   C30   1.403916 A    
C42   N7    1.464494 S    
O2    Zn2   2.002843 S    
C6    C15   1.397144 A    
C49   H24   1.112351 S    
O6    C3    1.279728 A    
O4    Zn2   2.007277 S    
H29   C52   1.112544 S    
C41   N6    1.460941 S    
C39   H12   1.083490 S    
C19   C35   1.412999 A    
O2    C1    1.278032 A    
Zn2   N3    1.997723 S    
C30   H11   1.083029 S    
C15   C37   1.396674 A    
C56   H41   1.110739 S    
C37   C40   1.386672 A    
C42   C44   1.537915 S    
C28   H5    1.083016 S    
O4    C2    1.288248 A    
C53   H32   1.112849 S    
C51   N3    1.487202 S    
C18   C20   1.416752 A    
N5    C55   1.446072 S    
C50   H27   1.111813 S    
C55   H38   1.111793 S    
N7    C57   1.447687 S    
C5    C13   1.399382 A    
C52   H35   1.111841 S    
C28   C32   1.397583 A    
C23   C27   1.398411 A    
C49   C50   1.575806 S    
Zn2   O6    2.001845 S    
C53   C54   1.572731 S    
C43   H18   1.113686 S    
C10   C11   1.397394 A    
C41   H14   1.116496 S    
C26   O12   1.350082 S    
C41   C46   1.565146 S    
C44   H19   1.111645 S    
C52   N4    1.487190 S    
C35   C40   1.412528 A    
N6    H40   1.031308 S    
