data_mof_unit_40536.cif
_audit_creation_date              2012-12-10T18:53:04-0500
_audit_creation_method            fapswitch 2.2
_symmetry_space_group_name_H-M    P1
_symmetry_Int_Tables_number       1
_space_group_crystal_system       triclinic
_cell_length_a                    9.905229
_cell_length_b                    10.635351
_cell_length_c                    16.658244
_cell_angle_alpha                 90.614486
_cell_angle_beta                  83.636606
_cell_angle_gamma                 89.010197
_cell_volume                      1743.65930368

loop_
_atom_site_label
_atom_site_type_symbol
_atom_type_description
_atom_site_fract_x
_atom_site_fract_y
_atom_site_fract_z
_atom_type_partial_charge
C1    C     C_R   0.499370 0.739537 0.498045 0.890629
C2    C     C_R   0.057905 0.564122 0.558790 0.225371
C3    C     C_R   0.085296 0.436268 0.441947 -0.077410
C4    C     C_R   0.914783 0.563823 0.557970 -0.083652
C5    C     C_R   0.479271 0.507087 0.653127 0.890711
C6    C     C_R   0.520491 0.499582 0.346503 0.897983
C7    C     C_R   0.461446 0.547627 0.737223 -0.071905
C8    C     C_R   0.534599 0.515874 0.259510 -0.081880
C9    C     C_R   0.543930 0.642953 0.763715 0.439009
C10   C     C_R   0.434128 0.470988 0.213786 0.449337
C11   C     C_R   0.521508 0.684639 0.844015 -0.261850
C12   C     C_R   0.500602 0.260478 0.502161 0.880006
C13   C     C_R   0.434973 0.509622 0.133916 -0.260097
C14   C     C_R   0.418792 0.631891 0.896868 0.148624
C15   C     C_R   0.533692 0.592903 0.100423 0.147396
C16   C     C_R   0.330978 0.544527 0.868423 -0.155257
C17   C     C_R   0.639188 0.628680 0.144290 -0.151759
C18   C     C_R   0.352313 0.502359 0.788793 -0.299330
C19   C     C_R   0.639614 0.590524 0.223727 -0.297509
C20   C     C_2   0.416879 0.648424 0.983913 -0.204659
C21   C     C_2   0.533227 0.634649 0.017254 -0.199216
C22   C     C_3   0.887318 0.367740 0.372791 -0.810195
C23   C     C_R   0.587558 0.936204 0.439677 0.464268
C24   C     C_3   0.112685 0.632715 0.627013 -0.807053
C25   C     C_R   0.412519 0.063820 0.560766 0.461719
C26   C     C_R   0.590412 0.064978 0.445845 -0.211560
C27   C     C_R   0.409792 0.934994 0.554662 -0.204385
C28   C     C_R   0.502593 0.128003 0.504675 -0.231698
C29   C     C_R   0.497443 0.872007 0.495721 -0.228113
C30   C     C_R   0.942127 0.436058 0.441110 0.226938
H1    H     H_    0.718019 0.624733 0.258384 0.181767
H2    H     H_    0.343053 0.883520 0.598148 0.174647
H3    H     H_    0.150993 0.386102 0.395643 0.187202
H4    H     H_    0.849251 0.614046 0.604207 0.196180
H5    H     H_    0.690773 0.760785 0.738600 0.326112
H6    H     H_    0.273430 0.369394 0.208162 0.326353
H7    H     H_    0.637746 0.792787 0.367976 0.326239
H8    H     H_    0.361708 0.207559 0.632217 0.328713
H9    H     H_    0.965995 0.305238 0.339550 0.206652
H10   H     H_    0.802315 0.307306 0.395240 0.263857
H11   H     H_    0.855458 0.436551 0.328795 0.244522
H12   H     H_    0.285885 0.432126 0.767900 0.171006
H13   H     H_    0.034099 0.695544 0.660046 0.204143
H14   H     H_    0.144158 0.564035 0.671159 0.246468
H15   H     H_    0.197936 0.692844 0.604571 0.264300
H16   H     H_    0.630913 0.638946 0.980665 0.152183
H17   H     H_    0.319636 0.643022 0.020851 0.151748
H18   H     H_    0.251227 0.503289 0.909057 0.140638
H19   H     H_    0.718583 0.689272 0.117893 0.148640
H20   H     H_    0.358899 0.474065 0.098060 0.126261
H21   H     H_    0.586675 0.754984 0.866038 0.132289
H22   H     H_    0.657273 0.116403 0.402400 0.174453
N1    N     N_R   0.142790 0.500030 0.500020 -0.099237
N2    N     N_R   0.857210 0.499970 0.499980 -0.098750
O1    O     O_R   0.385380 0.683250 0.500010 -0.628927
O2    O     O_3   0.336516 0.390656 0.248323 -0.779401
O3    O     O_3   0.671136 0.878098 0.377772 -0.754802
O4    O     O_3   0.328817 0.121973 0.622612 -0.754645
O5    O     O_R   0.614620 0.316750 0.499990 -0.624531
O6    O     O_R   0.614710 0.683220 0.500000 -0.580173
O7    O     O_R   0.385290 0.316780 0.500000 -0.592063
O8    O     O_R   0.371780 0.500040 0.615800 -0.638317
O9    O     O_R   0.628220 0.499960 0.384200 -0.644817
O10   O     O_R   0.601110 0.500010 0.615800 -0.566339
O11   O     O_R   0.398890 0.499990 0.384200 -0.565359
O12   O     O_3   0.643389 0.695257 0.710182 -0.783039
Zn1   Zn    Zn3+2 0.346870 0.500020 0.500000 0.975037
Zn2   Zn    Zn3+2 0.653130 0.499980 0.500000 0.976532

loop_
_geom_bond_atom_site_label_1
_geom_bond_atom_site_label_2
_ccdc_geom_bond_type
C6    O9    A    
C3    C30   A    
O1    Zn1   S    
C23   C29   A    
H6    O2    S    
C26   H22   S    
O5    Zn2   S    
C25   C27   A    
C10   O2    S    
O7    Zn1   S    
C2    C4    A    
C8    C19   A    
C9    C11   A    
C7    C18   A    
C22   H10   S    
C30   N2    A    
C1    C29   S    
C1    O1    A    
C5    C7    S    
C19   H1    S    
H8    O4    S    
C20   C21   D    
C25   C28   A    
C12   O7    A    
C3    N1    A    
C16   H18   S    
O8    Zn1   S    
C12   C28   S    
N1    Zn1   S    
C24   H15   S    
O10   Zn2   S    
C16   C18   A    
C26   C28   A    
C17   C19   A    
C5    O8    A    
C4    H4    S    
C13   C15   A    
C2    C24   S    
C24   H14   S    
C11   C14   A    
C14   C16   A    
C23   C26   A    
C22   H11   S    
N2    Zn2   S    
C25   O4    S    
C3    H3    S    
C13   H20   S    
C20   H17   S    
C7    C9    A    
C6    O11   A    
C15   C21   S    
C11   H21   S    
C27   C29   A    
O6    Zn2   S    
C14   C20   S    
C23   O3    S    
C21   H16   S    
C1    O6    A    
C17   H19   S    
C15   C17   A    
C24   H13   S    
O9    Zn2   S    
C6    C8    S    
C22   C30   S    
H5    O12   S    
C4    N2    A    
C27   H2    S    
C9    O12   S    
C12   O5    A    
C22   H9    S    
C2    N1    A    
C8    C10   A    
H7    O3    S    
C18   H12   S    
C5    O10   A    
O11   Zn1   S    
C10   C13   A    
