data_mof_unit_17297.cif
_audit_creation_date              2012-12-10T18:13:27-0500
_audit_creation_method            fapswitch 2.2
_symmetry_space_group_name_H-M    P1
_symmetry_Int_Tables_number       1
_space_group_crystal_system       triclinic
_cell_length_a                    12.598688
_cell_length_b                    13.139482
_cell_length_c                    16.514737
_cell_angle_alpha                 91.124215
_cell_angle_beta                  97.986682
_cell_angle_gamma                 97.276608
_cell_volume                      2683.60363069

loop_
_atom_site_label
_atom_site_type_symbol
_atom_type_description
_atom_site_fract_x
_atom_site_fract_y
_atom_site_fract_z
_atom_type_partial_charge
C1    C     C_R   0.560358 0.691220 0.506296 0.852529
C2    C     C_R   0.633804 0.538589 0.244573 -0.208735
C3    C     C_R   0.594712 0.646177 0.850866 -0.183297
C4    C     C_R   0.590555 0.599182 0.774524 -0.202889
C5    C     C_R   0.400119 0.538553 0.773024 -0.249732
C6    C     C_R   0.403740 0.584299 0.850697 0.043007
C7    C     C_R   0.502758 0.637104 0.890352 0.144911
C8    C     C_2   0.586557 0.615442 0.027463 -0.230508
C9    C     C_2   0.515891 0.662147 0.978151 -0.243263
C10   C     C_R   0.493767 0.544215 0.735678 -0.040845
C11   C     C_R   0.310217 0.065002 0.379055 -0.208145
C12   C     C_R   0.513673 0.498556 0.348337 0.840919
C13   C     C_R   0.406185 0.200320 0.472218 -0.051187
C14   C     C_R   0.692885 0.837192 0.564464 -0.192426
C15   C     C_R   0.719503 0.941681 0.582221 -0.149844
C16   C     C_R   0.649324 0.009442 0.550780 -0.189711
C17   C     C_R   0.553073 0.973439 0.497339 0.086963
C18   C     C_R   0.535711 0.869894 0.469690 0.093888
C19   C     C_R   0.473367 0.036531 0.470428 0.082182
C20   C     C_R   0.387381 0.000830 0.407291 0.184773
C21   C     C_R   0.381093 0.902555 0.372329 -0.260769
C22   C     C_R   0.454634 0.837804 0.402992 -0.209405
C23   C     C_R   0.440095 0.308770 0.490081 0.857576
C24   C     C_R   0.476044 0.133918 0.505672 -0.254940
C25   C     C_R   0.320701 0.165501 0.410596 -0.206233
C26   C     C_R   0.599195 0.800625 0.510415 -0.113182
C27   C     C_R   0.900615 0.347913 0.611928 -0.308346
C28   C     C_R   0.209243 0.627083 0.403734 0.060726
C29   C     C_R   0.106543 0.654543 0.382908 -0.254626
C30   C     C_R   0.021504 0.606177 0.419212 -0.202735
C31   C     C_R   0.039325 0.529593 0.476782 0.015450
C32   C     C_R   0.145605 0.504209 0.495588 0.234815
C33   C     C_R   0.956464 0.477277 0.516129 -0.014693
C34   C     C_R   0.488491 0.507744 0.651349 0.850219
C35   C     C_R   0.981246 0.400432 0.572655 0.197512
C36   C     C_R   0.086135 0.376549 0.589371 -0.290747
C37   C     C_R   0.167023 0.427725 0.551227 -0.212200
C38   C     C_R   0.849231 0.497931 0.501944 -0.056037
C39   C     C_R   0.796248 0.371925 0.595020 0.011522
C40   C     C_R   0.527584 0.515275 0.262647 -0.092380
C41   C     C_R   0.438874 0.521765 0.200799 -0.023941
C42   C     C_R   0.459381 0.557684 0.124831 -0.199784
C43   C     C_R   0.565654 0.585858 0.109190 0.185585
C44   C     C_R   0.652485 0.572931 0.168338 -0.184913
H1    H     H_    0.266107 0.217145 0.384143 0.152175
H2    H     H_    0.318352 0.875111 0.322173 0.136731
H3    H     H_    0.244799 0.038897 0.330475 0.131603
H4    H     H_    0.535141 0.162175 0.557464 0.138685
H5    H     H_    0.743623 0.784785 0.595078 0.155506
H6    H     H_    0.673766 0.089549 0.567711 0.129364
H7    H     H_    0.792407 0.969893 0.623313 0.138982
H8    H     H_    0.732376 0.332116 0.624502 0.126953
H9    H     H_    0.105861 0.317935 0.632186 0.152139
H10   H     H_    0.918121 0.289036 0.655023 0.139222
H11   H     H_    0.822420 0.554665 0.460493 0.123008
H12   H     H_    0.275419 0.663377 0.375035 0.128438
H13   H     H_    0.943323 0.630025 0.400695 0.134062
H14   H     H_    0.092801 0.712680 0.338479 0.139176
H15   H     H_    0.324660 0.497899 0.742027 0.151885
H16   H     H_    0.451888 0.695008 0.002914 0.158620
H17   H     H_    0.734866 0.590950 0.155892 0.125628
H18   H     H_    0.670991 0.686160 0.880854 0.139413
H19   H     H_    0.651289 0.582612 0.003324 0.155160
H20   H     H_    0.391800 0.559894 0.076856 0.155705
N1    N     N_R   0.774070 0.445420 0.541180 -0.099509
N2    N     N_R   0.226730 0.554050 0.459240 -0.127458
O1    O     O_R   0.631480 0.627510 0.519670 -0.618286
O2    O     O_R   0.455770 0.662400 0.493360 -0.608068
O3    O     O_R   0.598240 0.480510 0.398910 -0.611487
O4    O     O_R   0.422540 0.515400 0.372600 -0.608728
O5    O     O_R   0.544230 0.337600 0.506640 -0.607292
O6    O     O_R   0.368520 0.372490 0.480330 -0.633892
O7    O     O_R   0.577460 0.484600 0.627400 -0.617036
O8    O     O_R   0.401760 0.519490 0.601090 -0.623028
Zn1   Zn    Zn3+2 0.617320 0.476700 0.517570 0.931987
Zn2   Zn    Zn3+2 0.382680 0.523300 0.482430 0.937211
C45   C     C_R   0.324532 0.490197 0.211922 0.146372
C46   C     C_R   0.247398 0.558178 0.194369 -0.167934
C47   C     C_R   0.139381 0.528171 0.203491 -0.150132
C48   C     C_R   0.107400 0.430261 0.230113 -0.101743
C49   C     C_R   0.183198 0.361782 0.246885 -0.140322
C50   C     C_R   0.291324 0.391254 0.237564 -0.107192
H21   H     H_    0.271047 0.634578 0.174137 0.121012
H22   H     H_    0.080529 0.581029 0.190234 0.121325
H23   H     H_    0.023810 0.407350 0.237491 0.125278
H24   H     H_    0.157931 0.285652 0.266703 0.116830
H25   H     H_    0.349086 0.337166 0.250313 0.107570
C51   C     C_R   0.306204 0.568372 0.892001 0.105820
C52   C     C_R   0.265741 0.469180 0.912739 -0.166210
C53   C     C_R   0.176520 0.454422 0.954988 -0.129510
C54   C     C_R   0.126721 0.538333 0.976198 -0.102247
C55   C     C_R   0.165805 0.637110 0.954929 -0.151540
C56   C     C_R   0.255085 0.652220 0.912760 -0.175654
H26   H     H_    0.304429 0.403713 0.897447 0.128071
H27   H     H_    0.146303 0.378000 0.971637 0.129547
H28   H     H_    0.057925 0.526825 0.009159 0.122167
H29   H     H_    0.127149 0.702017 0.971378 0.125020
H30   H     H_    0.285081 0.729158 0.896991 0.127744
H31   H     H_    0.448416 0.762675 0.373413 0.154581
H32   H     H_    0.662758 0.607582 0.745153 0.157173
H33   H     H_    0.245654 0.405443 0.566380 0.211604
H34   H     H_    0.703311 0.533988 0.290362 0.158436

loop_
_geom_bond_atom_site_label_1
_geom_bond_atom_site_label_2
_ccdc_geom_bond_type
C37   H33   S    
C12   O3    A    
C25   H1    S    
C39   N1    A    
C41   C42   A    
C11   H3    S    
C35   C36   A    
C18   C26   A    
C8    C43   S    
O6    Zn2   S    
C49   C50   A    
C28   H12   S    
C27   H10   S    
C53   H27   S    
C45   C46   A    
C48   H23   S    
O8    Zn2   S    
C36   C37   A    
C16   H6    S    
C3    C7    A    
C41   C45   S    
C30   C31   A    
C14   H5    S    
C11   C25   A    
C15   C16   A    
C30   H13   S    
C1    O2    A    
C6    C51   S    
C13   C23   S    
C52   H26   S    
C36   H9    S    
C17   C19   A    
C54   H28   S    
C46   H21   S    
C38   H11   S    
C19   C20   A    
C2    C44   A    
C16   C17   A    
C31   C33   A    
C15   H7    S    
C49   H24   S    
C51   C52   A    
C39   H8    S    
C21   C22   A    
O7    Zn1   S    
C13   C25   A    
C55   H29   S    
C11   C20   A    
C5    H15   S    
C24   H4    S    
C23   O5    A    
C27   C39   A    
C54   C55   A    
C46   C47   A    
C8    C9    D    
C34   O7    A    
C27   C35   A    
C13   C24   A    
C12   C40   S    
C28   N2    A    
C43   C44   A    
C29   C30   A    
C31   C32   A    
C38   N1    A    
N2    Zn2   S    
C20   C21   A    
C17   C18   A    
C10   C34   S    
C32   C37   A    
C14   C26   A    
C34   O8    A    
C40   C41   A    
C4    H32   S    
O4    Zn2   S    
C1    C26   S    
O1    Zn1   S    
C42   C43   A    
C4    C10   A    
C3    C4    A    
C42   H20   S    
C32   N2    A    
C21   H2    S    
C3    H18   S    
C7    C9    S    
C12   O4    A    
C51   C56   A    
C28   C29   A    
C22   H31   S    
C47   H22   S    
C18   C22   A    
C23   O6    A    
C48   C49   A    
C6    C7    A    
C1    O1    A    
C44   H17   S    
O2    Zn2   S    
C33   C38   A    
N1    Zn1   S    
C9    H16   S    
C19   C24   A    
C5    C10   A    
O5    Zn1   S    
C53   C54   A    
C5    C6    A    
C45   C50   A    
C55   C56   A    
C33   C35   A    
O3    Zn1   S    
C8    H19   S    
C47   C48   A    
C2    C40   A    
C29   H14   S    
C2    H34   S    
C14   C15   A    
C52   C53   A    
C56   H30   S    
C50   H25   S    
