data_mof_unit_63847.cif
_audit_creation_date              2012-12-10T19:04:59-0500
_audit_creation_method            fapswitch 2.2
_symmetry_space_group_name_H-M    P1
_symmetry_Int_Tables_number       1
_space_group_crystal_system       triclinic
_cell_length_a                    13.060319
_cell_length_b                    13.651371
_cell_length_c                    15.776082
_cell_angle_alpha                 90.030673
_cell_angle_beta                  92.520977
_cell_angle_gamma                 85.672082
_cell_volume                      2801.99157407

loop_
_atom_site_label
_atom_site_type_symbol
_atom_type_description
_atom_site_fract_x
_atom_site_fract_y
_atom_site_fract_z
_atom_type_partial_charge
C1    C     C_R   0.481225 0.685028 0.499111 0.889427
C2    C     C_3   0.405884 0.569844 0.047966 0.398610
C3    C     C_3   0.500727 0.503864 0.082855 -0.059541
C4    C     C_3   0.490990 0.397732 0.049373 0.429245
C5    C     C_3   0.493627 0.396816 0.951163 -0.353403
C6    C     C_1   0.502088 0.502330 0.174384 0.072495
C7    C     C_1   0.496461 0.502767 0.825534 0.014087
C8    C     C_1   0.497360 0.501317 0.750459 -0.118980
C9    C     C_1   0.534693 0.212109 0.501846 -0.122443
C10   C     C_2   0.554243 0.021082 0.503104 -0.000380
C11   C     C_2   0.464908 0.978549 0.498554 -0.159707
C12   C     C_R   0.499185 0.500039 0.661895 0.900918
C13   C     C_1   0.461710 0.875224 0.498311 0.100151
C14   C     C_1   0.546636 0.124977 0.502580 -0.084641
C15   C     C_1   0.467038 0.787971 0.498491 -0.091250
C16   C     C_2   0.033171 0.473578 0.476827 -0.392193
C17   C     C_2   0.966510 0.527986 0.524482 0.603753
C18   C     C_1   0.854619 0.519900 0.517437 0.072899
C19   C     C_1   0.145301 0.480655 0.483019 0.283719
C20   C     C_R   0.518885 0.314971 0.500924 0.903795
C21   C     C_R   0.500798 0.500028 0.338100 0.892663
C22   C     C_3   0.401923 0.569823 0.949027 -0.301940
C23   C     C_3   0.598058 0.544874 0.952351 0.502772
C24   C     C_3   0.602410 0.541958 0.051052 -0.371043
C25   C     C_1   0.502150 0.501126 0.249500 -0.123729
C26   C     C_3   0.496299 0.504367 0.917168 -0.107338
H1    H     H_    0.409612 0.644711 0.074541 0.207641
H2    H     H_    0.330694 0.536148 0.926879 0.155813
H3    H     H_    0.391884 0.022647 0.494786 0.159405
H4    H     H_    0.003524 0.421758 0.431453 0.130216
H5    H     H_    0.664464 0.497471 0.929670 0.096904
H6    H     H_    0.666388 0.487099 0.071090 0.160575
H7    H     H_    0.566047 0.354778 0.933299 0.231483
H8    H     H_    0.417985 0.370641 0.070778 0.156799
N1    N     N_1   0.234540 0.484780 0.486630 -0.088106
N2    N     N_1   0.765460 0.515220 0.513370 -0.081163
O1    O     O_R   0.402510 0.634760 0.495110 -0.612814
O2    O     O_R   0.572960 0.644530 0.503690 -0.566629
O3    O     O_R   0.414740 0.495110 0.618560 -0.606705
O4    O     O_R   0.585180 0.504880 0.627150 -0.593741
O5    O     O_R   0.427040 0.355470 0.496310 -0.604992
O6    O     O_R   0.597490 0.365240 0.504890 -0.613807
O7    O     O_R   0.414820 0.495120 0.372850 -0.597796
O8    O     O_R   0.585260 0.504890 0.381440 -0.614999
Zn1   Zn    Zn3+2 0.386190 0.493480 0.494270 1.023703
Zn2   Zn    Zn3+2 0.613810 0.506520 0.505730 1.031574
F1    F     F_    0.315994 0.535424 0.076258 -0.665151
F2    F     F_    0.570366 0.334405 0.083472 -0.638599
C27   C     C_2   0.658976 0.969536 0.508509 0.482135
H9    H     H_    0.725510 0.012738 0.511755 0.070601
O9    O     O_2   0.672967 0.880122 0.509461 -0.538088
F3    F     F_    0.003107 0.593011 0.581418 -0.618643
C28   C     C_2   0.391819 0.672009 0.909661 0.609882
H10   H     H_    0.379398 0.679328 0.841423 0.056663
O10   O     O_2   0.396119 0.746455 0.952195 -0.482853
F4    F     F_    0.608388 0.638428 0.920899 -0.594051
C29   C     C_2   0.630508 0.637861 0.091228 0.545101
H11   H     H_    0.696962 0.637882 0.135024 0.053264
O11   O     O_2   0.579431 0.715024 0.076385 -0.467145
C30   C     C_2   0.405066 0.343702 0.912859 0.460516
H12   H     H_    0.326398 0.367425 0.926578 0.089323
O12   O     O_2   0.421374 0.272870 0.866789 -0.514262

loop_
_geom_bond_atom_site_label_1
_geom_bond_atom_site_label_2
_ccdc_geom_bond_type
C2    C22   S    
C20   O6    A    
C9    C14   T    
C24   H6    S    
C12   O4    A    
O3    Zn1   S    
C1    C15   S    
C2    F1    S    
C21   O8    A    
O7    Zn1   S    
C9    C20   S    
C1    O1    A    
C8    C12   S    
C3    C6    S    
C12   O3    A    
C28   O10   D    
C2    C3    S    
C3    C24   S    
C23   F4    S    
C19   N1    T    
C28   H10   S    
N2    Zn2   S    
C11   C13   S    
C29   H11   S    
C2    H1    S    
C7    C26   S    
C1    O2    A    
C30   H12   S    
C16   C19   S    
C17   F3    S    
C30   O12   D    
C22   H2    S    
O8    Zn2   S    
C20   O5    A    
C22   C28   S    
C5    H7    S    
C13   C15   T    
O6    Zn2   S    
C4    H8    S    
C29   O11   D    
C6    C25   T    
O2    Zn2   S    
C10   C11   D    
O4    Zn2   S    
C23   C24   S    
O1    Zn1   S    
C5    C26   S    
N1    Zn1   S    
C16   H4    S    
C7    C8    T    
C4    F2    S    
C11   H3    S    
C17   C18   S    
C27   H9    S    
C22   C26   S    
C23   C26   S    
O5    Zn1   S    
C4    C5    S    
C21   C25   S    
C5    C30   S    
C21   O7    A    
C10   C27   S    
C18   N2    T    
C3    C4    S    
C16   C17   D    
C10   C14   S    
C24   C29   S    
C27   O9    D    
C23   H5    S    
