data_mof_unit_66087.cif
_audit_creation_date              2012-12-10T21:00:21-0500
_audit_creation_method            fapswitch 2.2
_symmetry_space_group_name_H-M    P1
_symmetry_Int_Tables_number       1
_space_group_crystal_system       triclinic
_cell_length_a                    15.854398
_cell_length_b                    15.082169
_cell_length_c                    15.794029
_cell_angle_alpha                 89.992324
_cell_angle_beta                  90.003799
_cell_angle_gamma                 89.998714
_cell_volume                      3776.6477975

loop_
_atom_site_label
_atom_site_type_symbol
_atom_type_description
_atom_site_fract_x
_atom_site_fract_y
_atom_site_fract_z
_atom_type_partial_charge
C1    C     C_R   0.338884 0.500000 0.500012 0.902923
C2    C     C_R   0.044486 0.419445 0.485949 -0.136704
C3    C     C_R   0.044487 0.580328 0.484080 -0.135128
C4    C     C_R   0.087267 0.499910 0.486993 -0.053097
C5    C     C_1   0.823943 0.499940 0.489336 -0.039794
C6    C     C_R   0.499984 0.500010 0.337946 0.882744
C7    C     C_1   0.175901 0.499966 0.492115 0.033961
C8    C     C_1   0.250596 0.499995 0.496321 -0.128950
C9    C     C_1   0.749307 0.499985 0.494795 -0.119482
C10   C     C_R   0.489096 0.953331 0.427002 -0.222505
C11   C     C_R   0.487681 0.046689 0.427230 -0.221944
C12   C     C_3   0.595306 0.492449 0.949599 0.619924
C13   C     C_R   0.500889 0.905104 0.502188 -0.023997
C14   C     C_R   0.499864 0.094893 0.502355 -0.023835
C15   C     C_R   0.511249 0.952273 0.578808 0.363479
C16   C     C_R   0.513841 0.047697 0.578392 0.364206
C17   C     C_1   0.500329 0.807124 0.500750 0.231955
C18   C     C_1   0.499961 0.192875 0.500811 0.230585
C19   C     C_R   0.661102 0.499998 0.499802 0.918716
C20   C     C_R   0.500050 0.500001 0.662031 0.888060
C21   C     C_3   0.472556 0.596344 0.050467 0.609431
C22   C     C_3   0.436805 0.426707 0.049626 0.566406
C23   C     C_3   0.593571 0.479512 0.049671 0.491849
C24   C     C_3   0.446956 0.418278 0.950639 0.570821
C25   C     C_3   0.460242 0.591797 0.950526 0.467447
C26   C     C_1   0.500203 0.500074 0.750516 -0.044753
C27   C     C_3   0.500580 0.500674 0.082853 -0.275272
C28   C     C_3   0.500294 0.500935 0.917062 -0.370626
C29   C     C_1   0.500272 0.500400 0.825520 0.349866
C30   C     C_1   0.500369 0.500310 0.174437 0.286443
C31   C     C_1   0.500148 0.500084 0.249446 -0.097544
C32   C     C_R   0.957058 0.581647 0.481746 0.453330
C33   C     C_R   0.957059 0.418072 0.483646 0.452798
C34   C     C_R   0.912956 0.499866 0.483159 -0.108084
Cl1   Cl    Cl    0.351895 0.605060 0.918292 -0.416994
Cl2   Cl    Cl    0.345664 0.406212 0.899382 -0.394053
Cl3   Cl    Cl    0.494227 0.313575 0.921196 -0.371873
Cl4   Cl    Cl    0.505075 0.687527 0.898002 -0.446949
Cl5   Cl    Cl    0.673954 0.543751 0.103285 -0.451198
Cl6   Cl    Cl    0.626195 0.368928 0.079453 -0.379698
H1    H     H_    0.079114 0.642344 0.484368 0.193306
H2    H     H_    0.514508 0.717688 0.067736 0.416081
H3    H     H_    0.638038 0.615961 0.963921 0.413372
H4    H     H_    0.695284 0.421299 0.924221 0.405824
H5    H     H_    0.856796 0.657019 0.471506 0.357920
H6    H     H_    0.856800 0.342463 0.475148 0.357722
H7    H     H_    0.079113 0.357452 0.487678 0.192834
H8    H     H_    0.477713 0.081520 0.368085 0.190518
H9    H     H_    0.480162 0.918518 0.367690 0.189858
H10   H     H_    0.495689 0.940060 0.700160 0.368996
H11   H     H_    0.566396 0.059879 0.688785 0.366116
H12   H     H_    0.348259 0.598738 0.076243 0.407550
H13   H     H_    0.345315 0.444307 0.131312 0.355546
H14   H     H_    0.406603 0.303681 0.075315 0.397396
N1    N     N_1   0.500020 0.270550 0.499980 -0.080221
N2    N     N_1   0.500020 0.729450 0.499980 -0.079723
O1    O     O_R   0.378020 0.573650 0.500000 -0.606822
O2    O     O_3   0.531243 0.096299 0.650398 -0.719458
O3    O     O_3   0.400526 0.627686 0.094915 -0.708982
O4    O     O_3   0.352943 0.450121 0.069143 -0.727934
O5    O     O_3   0.453506 0.344738 0.089601 -0.675173
O6    O     O_3   0.537692 0.656524 0.069971 -0.695709
O7    O     O_3   0.642908 0.566938 0.923095 -0.675836
O8    O     O_3   0.634098 0.418907 0.910741 -0.630467
O9    O     O_3   0.918262 0.663786 0.479736 -0.710790
O10   O     O_3   0.918265 0.335907 0.483544 -0.711616
O11   O     O_R   0.378020 0.426350 0.500000 -0.608807
O12   O     O_R   0.500000 0.573700 0.377120 -0.602986
O13   O     O_R   0.500000 0.426300 0.377120 -0.606431
O14   O     O_R   0.621980 0.573680 0.499960 -0.604716
O15   O     O_R   0.621980 0.426320 0.499960 -0.604661
O16   O     O_R   0.500000 0.573630 0.622840 -0.584432
O17   O     O_R   0.500000 0.426370 0.622840 -0.588147
O18   O     O_3   0.517105 0.903643 0.652666 -0.716990
Zn1   Zn    Zn3+2 0.500000 0.598370 0.499970 1.054154
Zn2   Zn    Zn3+2 0.500000 0.401630 0.499970 1.050248

loop_
_geom_bond_atom_site_label_1
_geom_bond_atom_site_label_2
_ccdc_geom_bond_type
C33   O10   S    
C6    O13   A    
C2    C4    A    
H6    O10   S    
C5    C9    T    
C26   C29   T    
H14   O5    S    
C23   C27   S    
C2    H7    S    
C1    C8    S    
H2    O6    S    
C19   O15   A    
C12   C23   S    
C13   C17   S    
C5    C34   S    
O1    Zn1   S    
C22   C24   S    
H10   O18   S    
C24   Cl3   S    
C21   C27   S    
H3    O7    S    
C7    C8    T    
N2    Zn1   S    
C16   O2    S    
H4    O8    S    
C22   O5    S    
C22   O4    S    
C17   N2    T    
O16   Zn1   S    
C11   H8    S    
C24   Cl2   S    
C20   C26   S    
C18   N1    T    
C25   Cl1   S    
C4    C7    S    
C23   Cl5   S    
N1    Zn2   S    
C2    C33   A    
C6    O12   A    
C28   C29   S    
H12   O3    S    
H13   O4    S    
C33   C34   A    
C20   O17   A    
C21   O3    S    
C1    O1    A    
C22   C27   S    
C13   C15   A    
H5    O9    S    
C30   C31   T    
C25   Cl4   S    
O17   Zn2   S    
C14   C16   A    
C21   O6    S    
C10   C11   A    
C25   C28   S    
C23   Cl6   S    
C6    C31   S    
C24   C28   S    
O15   Zn2   S    
C15   O18   S    
C12   C28   S    
O13   Zn2   S    
O14   Zn1   S    
H11   O2    S    
C12   O8    S    
C14   C18   S    
C27   C30   S    
C20   O16   A    
C19   O14   A    
C21   C25   S    
O11   Zn2   S    
C3    C32   A    
C1    O11   A    
C12   O7    S    
C10   H9    S    
C11   C14   A    
C9    C19   S    
C3    H1    S    
C3    C4    A    
C15   C16   A    
C32   O9    S    
O12   Zn1   S    
C10   C13   A    
C32   C34   A    
