data_mof_unit_55419.cif
_audit_creation_date              2012-12-11T16:26:36-0500
_audit_creation_method            fapswitch 2.2
_symmetry_space_group_name_H-M    P1
_symmetry_Int_Tables_number       1
_space_group_crystal_system       triclinic
_cell_length_a                    6.934503
_cell_length_b                    17.568444
_cell_length_c                    19.446422
_cell_angle_alpha                 108.615431
_cell_angle_beta                  89.544022
_cell_angle_gamma                 90.72372
_cell_volume                      2244.98177175

loop_
_atom_site_label
_atom_site_type_symbol
_atom_type_description
_atom_site_fract_x
_atom_site_fract_y
_atom_site_fract_z
_atom_type_partial_charge
O1    O     O_R   0.494330 0.415720 0.413720 -0.535291
O2    O     O_R   0.819330 0.430070 0.560210 -0.545465
O3    O     O_R   0.994320 0.584280 0.586280 -0.535760
C1    C     C_R   0.649856 0.415061 0.581661 0.706143
O4    O     O_R   0.823730 0.406300 0.412670 -0.537712
O5    O     O_R   0.998760 0.560340 0.437690 -0.541754
C2    C     C_R   0.654867 0.383574 0.384943 0.695440
O6    O     O_R   0.489890 0.439660 0.562310 -0.540117
O7    O     O_3   0.662340 0.550560 0.508380 -0.369538
V1    V     V_3+5 0.935370 0.490620 0.498450 1.418377
O8    O     O_R   0.328750 0.569930 0.439790 -0.545524
C3    C     C_R   0.160861 0.585097 0.418163 0.707203
O9    O     O_R   0.324340 0.593700 0.587330 -0.540098
C4    C     C_R   0.155555 0.616451 0.615016 0.694473
V2    V     V_3+5 0.435940 0.509380 0.501550 1.416363
O10   O     O_3   0.159100 0.449440 0.491620 -0.367221
H1    H     H_    0.444229 0.858884 0.581496 0.117265
C5    C     C_R   0.991452 0.596343 0.745636 -0.151120
C6    C     C_R   0.909433 0.584789 0.807189 -0.122140
C7    C     C_R   0.897113 0.648527 0.871372 -0.106298
C8    C     C_R   0.966751 0.724272 0.874481 -0.143157
C9    C     C_R   0.048005 0.738347 0.812484 0.065433
C10   C     C_R   0.060500 0.672982 0.746609 0.074267
C11   C     C_R   0.122347 0.815159 0.815982 -0.175185
C12   C     C_R   0.213149 0.826012 0.753861 0.074377
C13   C     C_R   0.221813 0.761054 0.687600 0.066853
C14   C     C_R   0.145674 0.684532 0.683965 -0.182648
C15   C     C_R   0.292926 0.901362 0.755709 -0.073212
C16   C     C_R   0.376837 0.912524 0.694307 -0.070180
C17   C     C_R   0.381346 0.849637 0.629383 -0.116530
C18   C     C_R   0.303822 0.774916 0.625610 -0.136131
H2    H     H_    0.002096 0.544074 0.697840 0.113643
H3    H     H_    0.857109 0.525795 0.805234 0.129624
H4    H     H_    0.958453 0.770986 0.926415 0.104571
H5    H     H_    0.289199 0.953195 0.803990 0.142846
H6    H     H_    0.436380 0.970670 0.696955 0.136871
H7    H     H_    0.307794 0.728699 0.573287 0.110090
C19   C     C_R   0.307904 0.634092 0.321248 -0.210413
C20   C     C_R   0.153476 0.634505 0.368854 -0.086625
C21   C     C_R   0.990566 0.681411 0.368336 -0.223861
C22   C     C_R   0.982227 0.728193 0.321759 0.091984
C23   C     C_R   0.136657 0.726664 0.273629 0.052958
C24   C     C_R   0.299464 0.679011 0.273068 0.086699
C25   C     C_R   0.822243 0.776639 0.322496 -0.190908
C26   C     C_R   0.814047 0.822439 0.275409 -0.184604
C27   C     C_R   0.965363 0.820467 0.226501 0.091317
C28   C     C_R   0.128178 0.772817 0.225935 0.053427
C29   C     C_R   0.282627 0.771313 0.177820 0.086371
C30   C     C_R   0.442503 0.722784 0.177020 -0.177287
C31   C     C_R   0.450675 0.676963 0.224095 -0.163732
C32   C     C_R   0.957026 0.865483 0.178405 -0.218641
C33   C     C_R   0.111576 0.865196 0.130890 -0.079182
C34   C     C_R   0.274414 0.818217 0.131336 -0.221955
H8    H     H_    0.433217 0.597608 0.320753 0.124877
H9    H     H_    0.871192 0.682359 0.404944 0.128355
H10   H     H_    0.702634 0.778771 0.359246 0.131808
H11   H     H_    0.688444 0.859036 0.276923 0.131906
H12   H     H_    0.831702 0.901966 0.178913 0.121459
H13   H     H_    0.393824 0.817322 0.094757 0.126102
H14   H     H_    0.562067 0.720622 0.140245 0.136715
H15   H     H_    0.576209 0.640316 0.222544 0.139077
C35   C     C_R   0.503216 0.204326 0.883519 0.206568
C36   C     C_R   0.624161 0.136500 0.870380 -0.182711
C37   C     C_R   0.747915 0.115267 0.809075 0.171430
C38   C     C_R   0.758982 0.163754 0.763503 0.059902
C39   C     C_R   0.631219 0.228825 0.774827 -0.032714
C40   C     C_R   0.500223 0.248215 0.833884 0.048760
C41   C     C_R   0.893374 0.148168 0.705939 -0.120775
C42   C     C_R   0.899881 0.195121 0.660101 -0.206917
C43   C     C_R   0.769869 0.257798 0.669382 0.103355
C44   C     C_R   0.633798 0.274524 0.726446 0.084824
C45   C     C_R   0.500362 0.336947 0.735024 0.093814
C46   C     C_R   0.368254 0.354441 0.792510 -0.199982
C47   C     C_R   0.369322 0.311374 0.841701 -0.083885
C48   C     C_R   0.774191 0.304116 0.622528 -0.223895
C49   C     C_R   0.640194 0.365609 0.630369 -0.089246
C50   C     C_R   0.502110 0.381193 0.686245 -0.216163
H16   H     H_    0.996999 0.100398 0.696110 0.174094
H17   H     H_    0.006040 0.181808 0.616788 0.127055
H18   H     H_    0.880433 0.291647 0.579222 0.126604
H19   H     H_    0.399768 0.429236 0.692954 0.123355
H20   H     H_    0.264555 0.402076 0.799875 0.136150
H21   H     H_    0.264132 0.327659 0.885095 0.201736
H22   H     H_    0.411172 0.141746 0.432728 0.114705
C51   C     C_R   0.766520 0.402167 0.247350 -0.205869
C52   C     C_R   0.818388 0.413475 0.181868 -0.154798
C53   C     C_R   0.805969 0.349939 0.117259 0.364681
C54   C     C_R   0.742347 0.274545 0.117861 -0.122764
C55   C     C_R   0.688708 0.261238 0.183497 0.014969
C56   C     C_R   0.700867 0.326377 0.249612 0.069802
C57   C     C_R   0.620159 0.184952 0.183791 -0.153417
C58   C     C_R   0.562835 0.173906 0.250171 0.067887
C59   C     C_R   0.574988 0.239038 0.316307 0.067822
C60   C     C_R   0.644348 0.315256 0.316083 -0.164015
C61   C     C_R   0.495652 0.098237 0.252278 -0.148591
C62   C     C_R   0.441013 0.087199 0.317576 -0.120194
C63   C     C_R   0.452965 0.150734 0.382093 -0.117738
C64   C     C_R   0.519592 0.225811 0.381819 -0.135504
H23   H     H_    0.776934 0.453696 0.295938 0.123327
H24   H     H_    0.867288 0.472102 0.181438 0.149661
H25   H     H_    0.733612 0.227061 0.066313 0.142512
H26   H     H_    0.485371 0.046693 0.203701 0.100788
H27   H     H_    0.389904 0.028896 0.318115 0.116611
O11   O     O_R   0.775200 0.060470 0.937800 -0.508963
O12   O     O_R   0.441110 0.093720 0.087350 -0.528900
O13   O     O_R   0.266330 0.939630 0.062280 -0.549772
C65   C     C_R   0.609920 0.116589 0.115014 0.691309
O14   O     O_R   0.445750 0.069950 0.939820 -0.524626
O15   O     O_R   0.271000 0.915700 0.913700 -0.549123
C66   C     C_R   0.615100 0.085960 0.918945 0.817945
O16   O     O_R   0.770530 0.084400 0.086380 -0.543686
O17   O     O_3   0.602830 0.949510 0.991680 -0.384728
V3    V     V_3+5 0.329710 0.009370 0.001550 1.505451
O18   O     O_R   0.940990 0.906170 0.912570 -0.526652
C67   C     C_R   0.110190 0.883542 0.884791 0.726161
O19   O     O_R   0.936350 0.929940 0.060100 -0.552154
C68   C     C_R   0.104241 0.914753 0.081707 0.680333
V4    V     V_3+5 0.829160 0.990450 0.998310 1.486212
O20   O     O_3   0.105910 0.050480 0.008320 -0.342683
Br1   Br    Br    0.350120 0.239954 0.971679 -0.494456
Br2   Br    Br    0.884826 0.014769 0.782699 -0.624490
Br3   Br    Br    0.873099 0.366240 0.027423 -0.498962
H28   H     H_    0.528136 0.273042 0.433544 0.099021
H29   H     H_    0.835311 0.639055 0.919332 0.126926

loop_
_geom_bond_atom_site_label_1
_geom_bond_atom_site_label_2
_ccdc_geom_bond_type
O11   C66   A    
C53   C54   A    
C59   C60   A    
C46   C47   A    
C61   C62   A    
C47   H21   S    
C1    O6    A    
O18   C67   A    
C34   H13   S    
C26   C27   A    
C33   C34   A    
C12   C15   A    
O12   C65   A    
C16   H6    S    
C26   H11   S    
C13   C14   A    
C16   C17   A    
C30   H14   S    
C35   C40   A    
O16   V4    S    
H22   C63   S    
O12   V3    S    
C15   C16   A    
O5    C3    A    
C17   C18   A    
C37   Br2   S    
C63   C64   A    
O19   C68   A    
C5    C6    A    
C22   C23   A    
V4    O20   S    
C45   C50   A    
V3    O20   S    
O8    V2    S    
C28   C29   A    
C15   H5    S    
O14   C66   A    
C41   C42   A    
C43   C44   A    
O1    V2    S    
C10   C14   A    
C4    C14   S    
C55   C57   A    
C52   H24   S    
C48   H18   S    
C35   Br1   S    
C61   H26   S    
O15   V3    S    
C33   C68   S    
C38   C41   A    
C39   C40   A    
C13   C18   A    
O9    C4    A    
H1    C17   S    
C29   C34   A    
O17   V3    S    
C56   C60   A    
O11   V4    S    
C41   H16   S    
C64   H28   S    
C7    H29   S    
O13   V3    S    
C32   C33   A    
C57   C65   S    
C11   C12   A    
C6    H3    S    
C20   C21   A    
C32   H12   S    
C52   C53   A    
C8    H4    S    
C12   C13   A    
C51   C52   A    
C27   C32   A    
C58   C61   A    
C18   H7    S    
O14   V3    S    
O2    C1    A    
C48   C49   A    
C35   C36   A    
C51   H23   S    
C25   H10   S    
C39   C44   A    
C19   H8    S    
C50   H19   S    
C51   C56   A    
C21   H9    S    
C62   C63   A    
C7    C8    A    
C40   C47   A    
C49   C50   A    
O18   V4    S    
O3    C4    A    
C21   C22   A    
C38   C39   A    
O6    V2    S    
O9    V2    S    
O13   C68   A    
C22   C25   A    
C9    C11   A    
C42   H17   S    
C5    H2    S    
C23   C24   A    
C3    C20   S    
O2    V1    S    
C46   H20   S    
C57   C58   A    
C25   C26   A    
O4    C2    A    
O7    V1    S    
C2    C60   S    
C27   C28   A    
C29   C30   A    
O1    C2    A    
C65   O16   A    
C54   H25   S    
C45   C46   A    
O5    V1    S    
C53   Br3   S    
O8    C3    A    
C24   C31   A    
C37   C38   A    
C6    C7    A    
O7    V2    S    
O4    V1    S    
O3    V1    S    
V1    O10   S    
O17   V4    S    
C19   C20   A    
C36   C66   S    
C5    C10   A    
C58   C59   A    
O19   V4    S    
C23   C28   A    
C42   C43   A    
C1    C49   S    
O15   C67   A    
C36   C37   A    
C19   C24   A    
C44   C45   A    
C54   C55   A    
C11   C67   S    
C30   C31   A    
C62   H27   S    
C43   C48   A    
C31   H15   S    
C9    C10   A    
C55   C56   A    
C8    C9    A    
C59   C64   A    
V2    O10   S    
