data_mof_unit_10368.cif
_audit_creation_date              2012-12-11T15:10:39-0500
_audit_creation_method            fapswitch 2.2
_symmetry_space_group_name_H-M    P1
_symmetry_Int_Tables_number       1
_space_group_crystal_system       triclinic
_cell_length_a                    21.212572
_cell_length_b                    7.237223
_cell_length_c                    18.240671
_cell_angle_alpha                 89.994441
_cell_angle_beta                  93.269471
_cell_angle_gamma                 89.999616
_cell_volume                      2795.75194411

loop_
_atom_site_label
_atom_site_type_symbol
_atom_type_description
_atom_site_fract_x
_atom_site_fract_y
_atom_site_fract_z
_atom_type_partial_charge
O1    O     O_R   0.448880 0.506250 0.415280 -0.528813
O2    O     O_R   0.551120 0.006250 0.584720 -0.528815
O3    O     O_R   0.434830 0.174000 0.557310 -0.521348
O4    O     O_R   0.565170 0.674000 0.442690 -0.521342
C1    C     C_R   0.416993 0.344592 0.579663 0.696491
C2    C     C_R   0.583006 0.844601 0.420337 0.696505
O5    O     O_R   0.441680 0.176440 0.414130 -0.530804
O6    O     O_R   0.558320 0.676440 0.585870 -0.530813
O7    O     O_R   0.558020 0.007570 0.440520 -0.519592
O8    O     O_R   0.441980 0.507570 0.559480 -0.519581
C3    C     C_R   0.428238 0.344884 0.388270 0.678696
C4    C     C_R   0.571763 0.844868 0.611730 0.678676
O9    O     O_3   0.538160 0.339670 0.508820 -0.364630
O10   O     O_3   0.461840 0.839670 0.491180 -0.364623
V1    V     V_3+5 0.492920 0.064260 0.498360 1.427474
V2    V     V_3+5 0.507080 0.564260 0.501640 1.427483
C5    C     C_R   0.876290 0.924205 0.688575 -0.160056
C6    C     C_R   0.123688 0.423661 0.311424 -0.160064
H1    H     H_    0.964195 0.919073 0.751967 0.111578
H2    H     H_    0.035796 0.418502 0.248011 0.111584
H3    H     H_    0.797720 0.933715 0.570674 0.125054
H4    H     H_    0.202244 0.432968 0.429345 0.125057
H5    H     H_    0.899529 0.922005 0.637176 0.115650
H6    H     H_    0.100442 0.421225 0.362817 0.115649
C7    C     C_R   0.885456 0.938246 0.821268 -0.101089
C8    C     C_R   0.114540 0.438174 0.178735 -0.101174
C9    C     C_R   0.582091 0.804458 0.745528 -0.164764
C10   C     C_R   0.417922 0.304797 0.254460 -0.164793
C11   C     C_R   0.617290 0.786810 0.811748 -0.108346
C12   C     C_R   0.382725 0.287184 0.188239 -0.108312
C13   C     C_R   0.682038 0.820354 0.815611 -0.069888
C14   C     C_R   0.317966 0.320548 0.184390 -0.069656
C15   C     C_R   0.713255 0.881077 0.753573 0.090464
C16   C     C_R   0.286738 0.381082 0.246441 0.090556
C17   C     C_R   0.677527 0.885343 0.684452 0.059421
C18   C     C_R   0.322462 0.385240 0.315563 0.059355
C19   C     C_R   0.780009 0.918696 0.756597 0.066347
C20   C     C_R   0.219980 0.418608 0.243418 0.066419
C21   C     C_R   0.810291 0.922729 0.689054 0.120609
C22   C     C_R   0.189688 0.422343 0.310957 0.120556
C23   C     C_R   0.774659 0.924055 0.622066 -0.189300
C24   C     C_R   0.225313 0.423528 0.377952 -0.189285
C25   C     C_R   0.709192 0.912725 0.619874 -0.183459
C26   C     C_R   0.290785 0.412354 0.380147 -0.183430
C27   C     C_R   0.818656 0.948666 0.823083 -0.079213
C28   C     C_R   0.181339 0.448782 0.176938 -0.079296
C29   C     C_R   0.913252 0.923456 0.753972 -0.162774
C30   C     C_R   0.086737 0.423041 0.246018 -0.162723
C31   C     C_R   0.611336 0.850675 0.681239 -0.081126
C32   C     C_R   0.388663 0.350746 0.318764 -0.081102
H7    H     H_    0.531944 0.774845 0.743838 0.112352
H8    H     H_    0.468082 0.275353 0.256138 0.112342
H9    H     H_    0.707314 0.788598 0.867029 0.121565
H10   H     H_    0.292688 0.288861 0.132968 0.121634
H11   H     H_    0.594436 0.742211 0.860290 0.129892
H12   H     H_    0.405592 0.242768 0.139683 0.129876
C33   C     C_1   0.864555 0.938887 0.132112 -0.200356
C34   C     C_1   0.135446 0.438914 0.867888 -0.200399
C35   C     C_1   0.821718 0.924846 0.175890 0.005950
C36   C     C_1   0.178283 0.424873 0.824110 0.005935
C37   C     C_1   0.771183 0.905756 0.228054 0.002502
C38   C     C_1   0.228817 0.405766 0.771946 0.002492
C39   C     C_1   0.728637 0.889150 0.272082 0.000616
C40   C     C_1   0.271363 0.389141 0.727918 0.000610
C41   C     C_1   0.678101 0.870050 0.324245 0.000994
C42   C     C_1   0.321898 0.370024 0.675756 0.000997
C43   C     C_1   0.635266 0.855998 0.368023 -0.203844
C44   C     C_1   0.364733 0.355971 0.631978 -0.203846
O11   O     O_R   0.058070 0.289240 0.940580 -0.520367
O12   O     O_R   0.941930 0.789240 0.059420 -0.520380
O13   O     O_R   0.058330 0.616740 0.085880 -0.530253
O14   O     O_R   0.941670 0.116740 0.914120 -0.530205
C45   C     C_R   0.072072 0.448447 0.111548 0.669602
C46   C     C_R   0.927926 0.948463 0.888453 0.669682
O15   O     O_R   0.065180 0.619040 0.942700 -0.521793
O16   O     O_R   0.934820 0.119040 0.057300 -0.521763
O17   O     O_R   0.948870 0.787780 0.915270 -0.530078
O18   O     O_R   0.051130 0.287780 0.084730 -0.530061
C47   C     C_R   0.083182 0.450312 0.920196 0.697576
C48   C     C_R   0.916818 0.950303 0.079804 0.697623
O19   O     O_3   0.961870 0.453310 0.991210 -0.363887
O20   O     O_3   0.038130 0.953310 0.008790 -0.363918
V3    V     V_3+5 0.007070 0.728770 0.001630 1.434074
V4    V     V_3+5 0.992930 0.228770 0.998370 1.434203
C49   C     C_2   0.792402 0.017877 0.891715 0.356795
H13   H     H_    0.814384 0.980576 0.944837 0.022792
O21   O     O_2   0.747809 0.124862 0.889376 -0.519388
C50   C     C_2   0.207593 0.518367 0.108351 0.356658
H14   H     H_    0.185516 0.481773 0.055206 0.022985
O22   O     O_2   0.252286 0.624984 0.110768 -0.519453
H15   H     H_    0.683837 0.915394 0.566653 0.108435
H16   H     H_    0.316138 0.414925 0.433373 0.108398

loop_
_geom_bond_atom_site_label_1
_geom_bond_atom_site_label_2
_ccdc_geom_bond_type
C42   C44   T    
C39   C41   S    
C9    C11   A    
O1    C3    A    
O2    C4    A    
O16   V4    S    
C2    O7    A    
C4    C31   S    
O3    V1    S    
C21   C23   A    
C49   H13   S    
O5    C3    A    
C5    H5    S    
C6    H6    S    
H1    C29   S    
C33   C35   T    
O17   V3    S    
C34   C36   T    
C8    C45   S    
C36   C38   S    
C7    C46   S    
C5    C21   A    
C37   C39   T    
C6    C22   A    
C38   C40   T    
C10   C32   A    
C41   C43   T    
C46   O17   A    
C17   C31   A    
C45   O18   A    
C13   C15   A    
C12   C14   A    
C17   C25   A    
C7    C29   A    
O13   V3    S    
C26   H16   S    
C8    C30   A    
O5    V1    S    
O6    V2    S    
C23   C25   A    
C33   C48   S    
C24   C26   A    
C1    C44   S    
C14   H10   S    
C9    H7    S    
C28   C50   S    
C49   O21   D    
C35   C37   S    
O12   C48   A    
O16   C48   A    
O14   C46   A    
O13   C45   A    
C11   H11   S    
C12   H12   S    
C25   H15   S    
C14   C16   A    
O4    V2    S    
C27   C49   S    
O12   V3    S    
O6    C4    A    
O1    V2    S    
O14   V4    S    
C13   H9    S    
O2    V1    S    
H2    C30   S    
C34   C47   S    
H3    C23   S    
O4    C2    A    
C2    C43   S    
C50   O22   D    
O11   C47   A    
C19   C27   A    
C7    C27   A    
O19   V4    S    
C18   C32   A    
C16   C20   A    
C5    C29   A    
O3    C1    A    
C6    C30   A    
C10   C12   A    
O7    V1    S    
C1    O8    A    
C19   C21   A    
O11   V4    S    
O8    V2    S    
C20   C22   A    
C10   H8    S    
O15   V3    S    
H4    C24   S    
C22   C24   A    
C15   C17   A    
C16   C18   A    
C15   C19   A    
C20   C28   A    
C18   C26   A    
C8    C28   A    
O18   V4    S    
C50   H14   S    
C11   C13   A    
O20   V3    S    
O9    V2    S    
C3    C32   S    
O10   V1    S    
O15   C47   A    
C9    C31   A    
C40   C42   S    
