data_mof_unit_51246.cif
_audit_creation_date              2012-12-11T15:49:12-0500
_audit_creation_method            fapswitch 2.2
_symmetry_space_group_name_H-M    P1
_symmetry_Int_Tables_number       1
_space_group_crystal_system       triclinic
_cell_length_a                    21.68047
_cell_length_b                    7.170168
_cell_length_c                    14.936375
_cell_angle_alpha                 90.380647
_cell_angle_beta                  106.868003
_cell_angle_gamma                 89.945123
_cell_volume                      2221.95045766

loop_
_atom_site_label
_atom_site_type_symbol
_atom_type_description
_atom_site_fract_x
_atom_site_fract_y
_atom_site_fract_z
_atom_type_partial_charge
O1    O     O_R   0.335860 0.638190 0.002110 -0.552454
O2    O     O_R   0.664140 0.361810 0.997890 -0.542196
O3    O     O_R   0.164140 0.138190 0.997890 -0.520685
O4    O     O_R   0.835860 0.861810 0.002110 -0.514639
O5    O     O_R   0.217530 0.305920 0.861960 -0.531760
O6    O     O_R   0.782470 0.694080 0.138040 -0.532259
O7    O     O_R   0.282470 0.805920 0.138040 -0.535342
O8    O     O_R   0.717530 0.194080 0.861960 -0.522706
C1    C     C_R   0.205396 0.475777 0.825709 0.745138
C2    C     C_R   0.793840 0.523363 0.174479 0.723745
C3    C     C_R   0.294249 0.977166 0.174231 0.738193
C4    C     C_R   0.705977 0.022526 0.825816 0.706164
O9    O     O_R   0.338690 0.308320 0.993240 -0.537050
O10   O     O_R   0.661310 0.691680 0.006760 -0.546519
O11   O     O_R   0.161310 0.808320 0.006760 -0.540238
O12   O     O_R   0.838690 0.191680 0.993240 -0.544197
O13   O     O_R   0.286170 0.140430 0.130100 -0.529389
O14   O     O_R   0.713830 0.859570 0.869900 -0.541504
O15   O     O_R   0.213830 0.640430 0.869900 -0.529420
O16   O     O_R   0.786170 0.359570 0.130100 -0.542852
C5    C     C_R   0.364584 0.478047 0.996013 0.696012
C6    C     C_R   0.635364 0.521904 0.003802 0.679089
C7    C     C_R   0.134610 0.977785 0.999575 0.721195
C8    C     C_R   0.864995 0.021912 0.997645 0.694031
O17   O     O_3   0.232630 0.472410 0.044750 -0.366811
O18   O     O_3   0.767370 0.527590 0.955250 -0.359442
O19   O     O_3   0.267370 0.972410 0.955250 -0.384460
O20   O     O_3   0.732630 0.027590 0.044750 -0.385705
V1    V     V_3+5 0.253220 0.196620 0.991700 1.496567
V2    V     V_3+5 0.746780 0.803380 0.008300 1.470040
V3    V     V_3+5 0.246780 0.696620 0.008300 1.477605
V4    V     V_3+5 0.753220 0.303380 0.991700 1.472479
C9    C     C_R   0.034953 0.835675 0.021087 -0.238803
C10   C     C_R   0.963522 0.162120 0.969098 -0.245598
C11   C     C_R   0.475416 0.343580 0.033159 -0.127051
C12   C     C_R   0.524423 0.655974 0.966230 -0.130350
H1    H     H_    0.062305 0.708919 0.042613 0.155281
H2    H     H_    0.935976 0.288418 0.947261 0.157499
H3    H     H_    0.457527 0.222214 0.060713 0.148570
H4    H     H_    0.542286 0.777214 0.938530 0.143122
C13   C     C_R   0.970273 0.841067 0.021304 0.221004
C14   C     C_R   0.028007 0.155354 0.966949 0.228176
C15   C     C_R   0.540882 0.349953 0.037650 0.201733
C16   C     C_R   0.458887 0.649210 0.961391 0.197489
C17   C     C_R   0.933798 0.007734 0.996536 -0.087811
C18   C     C_R   0.065028 0.990843 0.995600 -0.085229
C19   C     C_R   0.566470 0.508689 0.003787 -0.144317
C20   C     C_R   0.433411 0.490982 0.995758 -0.150168
C21   C     C_R   0.679274 0.009899 0.723811 -0.056800
C22   C     C_R   0.321947 0.982919 0.276268 -0.036498
C23   C     C_R   0.820189 0.513204 0.277020 -0.063571
C24   C     C_R   0.177546 0.474518 0.723601 -0.042713
C25   C     C_R   0.689634 0.932806 0.570934 -0.166417
C26   C     C_R   0.312622 0.919940 0.430518 -0.203427
C27   C     C_R   0.806589 0.493059 0.431990 -0.169657
C28   C     C_R   0.182329 0.355108 0.574203 -0.203234
C29   C     C_R   0.717555 0.949648 0.667267 0.161587
C30   C     C_R   0.284164 0.931297 0.333937 0.158149
C31   C     C_R   0.779424 0.499565 0.335065 0.145880
C32   C     C_R   0.213001 0.395092 0.668095 0.154624
C33   C     C_R   0.613362 0.047988 0.683714 0.117128
C34   C     C_R   0.387629 0.025032 0.314794 0.103392
C35   C     C_R   0.887499 0.511079 0.316417 0.128066
C36   C     C_R   0.112334 0.521683 0.684426 0.098965
C37   C     C_R   0.583161 0.001344 0.587915 0.020904
C38   C     C_R   0.418929 0.982920 0.410717 0.020495
C39   C     C_R   0.914999 0.481159 0.414326 0.024727
C40   C     C_R   0.078455 0.455981 0.592487 0.015711
C41   C     C_R   0.623269 0.962475 0.529762 -0.030683
C42   C     C_R   0.379768 0.938778 0.469602 -0.017434
C43   C     C_R   0.873907 0.490978 0.472994 -0.039656
C44   C     C_R   0.115247 0.375836 0.536717 -0.016676
C45   C     C_R   0.514882 0.985390 0.548590 -0.011259
C46   C     C_R   0.487441 0.979932 0.450044 -0.012340
C47   C     C_R   0.981842 0.442589 0.455848 -0.007994
C48   C     C_R   0.009797 0.465397 0.553611 -0.009613
C49   C     C_R   0.528908 0.949152 0.394375 -0.176378
C50   C     C_R   0.474473 0.945912 0.604716 -0.185242
C51   C     C_R   0.967775 0.476100 0.609727 -0.185683
C52   C     C_R   0.019285 0.357520 0.404449 -0.187406
C53   C     C_R   0.595499 0.943008 0.432070 0.357651
C54   C     C_R   0.408763 0.914383 0.566646 0.350309
C55   C     C_R   0.901181 0.489947 0.571437 0.347828
C56   C     C_R   0.084103 0.317819 0.443996 0.351556
H5    H     H_    0.720471 0.887404 0.529588 0.139482
H6    H     H_    0.281571 0.893329 0.474066 0.129225
H7    H     H_    0.773772 0.484050 0.474238 0.152455
H8    H     H_    0.211512 0.303779 0.531648 0.136660
H9    H     H_    0.510292 0.916875 0.320956 0.156420
H10   H     H_    0.494247 0.917989 0.678297 0.157066
H11   H     H_    0.985409 0.462847 0.684568 0.148857
H12   H     H_    0.997349 0.303494 0.335028 0.154443
N1    N     N_3   0.942410 0.678038 0.049182 -0.633693
H13   H     H_    0.974726 0.566234 0.061895 0.217501
H14   H     H_    0.934639 0.711475 0.112962 0.252677
N2    N     N_3   0.055094 0.314023 0.933470 -0.644258
H15   H     H_    0.023278 0.427006 0.921712 0.218924
H16   H     H_    0.060703 0.277232 0.868421 0.212400
N3    N     N_3   0.579939 0.194194 0.079413 -0.649223
H17   H     H_    0.594350 0.122140 0.027865 0.249389
H18   H     H_    0.620346 0.242447 0.131392 0.243976
N4    N     N_3   0.419522 0.803410 0.918261 -0.642365
H19   H     H_    0.404838 0.876931 0.969130 0.247315
H20   H     H_    0.379263 0.753081 0.866608 0.243851
O21   O     O_3   0.631384 0.916314 0.370403 -0.649124
H21   H     H_    0.671604 0.989901 0.392650 0.289784
O22   O     O_3   0.374947 0.859457 0.627300 -0.642734
H22   H     H_    0.343344 0.763035 0.595642 0.281680
O23   O     O_3   0.864897 0.503116 0.633362 -0.639242
H23   H     H_    0.828800 0.590184 0.607400 0.303458
O24   O     O_3   0.114988 0.221826 0.389100 -0.648110
H24   H     H_    0.145510 0.132690 0.429248 0.279288
N5    N     N_3   0.418152 0.131369 0.258009 -0.674449
H25   H     H_    0.456738 0.210487 0.298593 0.251683
H26   H     H_    0.432411 0.042527 0.211938 0.212644
N6    N     N_3   0.581072 0.154926 0.738702 -0.667130
H27   H     H_    0.540750 0.224617 0.696821 0.249267
H28   H     H_    0.568401 0.067589 0.786292 0.214388
N7    N     N_3   0.085278 0.654006 0.735291 -0.670888
H29   H     H_    0.049428 0.735006 0.690521 0.247568
H30   H     H_    0.068469 0.585137 0.785016 0.217224
N8    N     N_3   0.925913 0.565902 0.257267 -0.708511
H31   H     H_    0.968879 0.630450 0.294925 0.248614
H32   H     H_    0.934047 0.450773 0.218968 0.222477
N9    N     N_3   0.216446 0.895152 0.293869 -0.658670
H33   H     H_    0.194259 0.021671 0.268841 0.235667
H34   H     H_    0.195830 0.849658 0.345087 0.238268
N10   N     N_3   0.785216 0.908715 0.704424 -0.652401
H35   H     H_    0.801420 0.922489 0.777066 0.220203
H36   H     H_    0.810537 0.007480 0.677720 0.240359
N11   N     N_3   0.280482 0.355723 0.708049 -0.650602
H37   H     H_    0.304494 0.483432 0.724480 0.215322
H38   H     H_    0.299315 0.289626 0.659116 0.247996
N12   N     N_3   0.710269 0.495110 0.298626 -0.652148
H39   H     H_    0.694915 0.489874 0.225696 0.201201
H40   H     H_    0.692702 0.619843 0.318277 0.267348

loop_
_geom_bond_atom_site_label_1
_geom_bond_atom_site_label_2
_ccdc_geom_bond_type
O17   V3    S    
O1    C5    A    
N1    H13   S    
C27   C31   A    
O19   V1    S    
O13   V1    S    
C45   C46   A    
O3    C7    A    
O24   H24   S    
C10   C14   A    
C48   C51   A    
C52   C56   A    
O15   V3    S    
N10   H35   S    
C29   N10   S    
C4    C21   S    
C21   C29   A    
C50   H10   S    
O7    C3    A    
C49   H9    S    
C36   N7    S    
C14   N2    S    
C8    C17   S    
C36   C40   A    
O9    V1    S    
C15   N3    S    
O16   V4    S    
O4    C8    A    
C28   H8    S    
C2    C23   S    
C38   C46   A    
O1    V3    S    
C37   C45   A    
N6    H27   S    
C12   C19   A    
O2    V4    S    
C14   C18   A    
O3    V1    S    
C24   C32   A    
C1    O15   A    
C13   N1    S    
C2    O16   A    
C28   C44   A    
C46   C49   A    
N2    H16   S    
O2    C6    A    
O22   H22   S    
C55   O23   S    
O14   V2    S    
C11   C15   A    
C47   C52   A    
O5    V1    S    
C23   C35   A    
O8    C4    A    
C5    C20   S    
O11   C7    A    
C6    C19   S    
C25   C41   A    
O12   C8    A    
C7    C18   S    
C9    C18   A    
C1    C24   S    
O10   V2    S    
C11   C20   A    
C32   N11   S    
C43   C55   A    
N7    H30   S    
C53   O21   S    
C56   O24   S    
C21   C33   A    
C34   C38   A    
C22   C30   A    
C12   H4    S    
O7    V3    S    
C34   N5    S    
C24   C36   A    
C26   H6    S    
C25   C29   A    
O18   V4    S    
N12   H40   S    
C45   C50   A    
C9    H1    S    
C28   C32   A    
O8    V4    S    
C52   H12   S    
C11   H3    S    
C47   C48   A    
C35   C39   A    
O5    C1    A    
C50   C54   A    
N3    H17   S    
C26   C42   A    
C49   C53   A    
C40   C44   A    
N2    H15   S    
C33   N6    S    
O9    C5    A    
C10   C17   A    
C54   O22   S    
N4    H20   S    
C44   C56   A    
N3    H18   S    
N9    H33   S    
C22   C34   A    
C12   C16   A    
C23   C31   A    
N8    H32   S    
N11   H37   S    
C35   N8    S    
N5    H25   S    
C26   C30   A    
C3    O13   A    
C16   N4    S    
O6    V2    S    
C10   H2    S    
C51   H11   S    
N11   H38   S    
N10   H36   S    
O6    C2    A    
N7    H29   S    
O11   V3    S    
N12   H39   S    
O12   V4    S    
O21   H21   S    
C31   N12   S    
C9    C13   A    
O10   C6    A    
O20   V2    S    
C3    C22   S    
O23   H23   S    
C51   C55   A    
C40   C48   A    
C38   C42   A    
C37   C41   A    
N6    H28   S    
C39   C43   A    
C27   H7    S    
N4    H19   S    
C42   C54   A    
O4    V2    S    
C41   C53   A    
C33   C37   A    
C39   C47   A    
C30   N9    S    
N1    H14   S    
C4    O14   A    
N9    H34   S    
C13   C17   A    
C25   H5    S    
N8    H31   S    
C15   C19   A    
C27   C43   A    
C16   C20   A    
N5    H26   S    
