data_mof_unit_18826.cif
_audit_creation_date              2012-10-26T18:33:38-0400
_audit_creation_method            fapswitch 2.2
_symmetry_space_group_name_H-M    P1
_symmetry_Int_Tables_number       1
_space_group_crystal_system       triclinic
_cell_length_a                    15.148114
_cell_length_b                    13.749655
_cell_length_c                    10.905814
_cell_angle_alpha                 90.362611
_cell_angle_beta                  87.912901
_cell_angle_gamma                 90.371585
_cell_volume                      2269.88079053

loop_
_atom_site_label
_atom_site_type_symbol
_atom_type_description
_atom_site_fract_x
_atom_site_fract_y
_atom_site_fract_z
_atom_type_partial_charge
C1    C     C_R   0.328555 0.499587 0.497776 0.529386
C2    C     C_R   0.042186 0.636950 0.637975 0.161785
C3    C     C_R   0.090762 0.568605 0.565402 0.029334
C4    C     C_R   0.497221 0.499804 0.260066 0.646892
C5    C     C_R   0.045775 0.502937 0.488477 -0.116189
C6    C     C_R   0.093623 0.434701 0.414403 0.021507
C7    C     C_R   0.047312 0.373335 0.334283 0.378735
C8    C     C_R   0.955208 0.371989 0.335788 0.166447
C9    C     C_R   0.183567 0.566334 0.565484 0.346213
C10   C     C_R   0.231370 0.498504 0.493985 -0.021377
C11   C     C_R   0.186662 0.431092 0.419511 0.083522
C12   C     C_3   0.592098 0.505154 0.923030 0.234118
C13   C     C_R   0.443797 0.793098 0.578957 0.518294
C14   C     C_R   0.442533 0.207467 0.576431 0.473577
C15   C     C_R   0.560728 0.793620 0.428756 0.483705
C16   C     C_R   0.557968 0.206551 0.424535 0.499478
C17   C     C_R   0.560317 0.896657 0.424627 -0.074037
C18   C     C_R   0.558992 0.103588 0.422733 -0.076161
C19   C     C_R   0.671132 0.500463 0.497389 0.613359
C20   C     C_R   0.500573 0.948409 0.502735 -0.159933
C21   C     C_R   0.499986 0.052031 0.502169 -0.153327
C22   C     C_R   0.444183 0.896454 0.584771 0.001192
C23   C     C_R   0.814244 0.433047 0.422236 0.353787
C24   C     C_R   0.441428 0.104211 0.581821 -0.010817
C25   C     C_R   0.618752 0.949122 0.345902 0.420598
C26   C     C_R   0.617989 0.051083 0.344779 0.416397
C27   C     C_R   0.386002 0.051568 0.666097 0.149815
C28   C     C_R   0.391322 0.948974 0.671643 0.181237
C29   C     C_R   0.493829 0.499772 0.740250 0.497999
C30   C     C_3   0.422017 0.574936 0.076892 0.443494
C31   C     C_3   0.466975 0.393607 0.072695 0.428818
C32   C     C_3   0.436796 0.589887 0.933538 0.470693
C33   C     C_3   0.441988 0.402173 0.932840 0.460018
C34   C     C_R   0.767576 0.502613 0.491527 0.011845
C35   C     C_3   0.586792 0.527478 0.065456 0.633215
C36   C     C_3   0.493961 0.499499 0.122280 0.009839
C37   C     C_3   0.490502 0.498902 0.879099 -0.043782
C38   C     C_3   0.466728 0.752718 0.146609 -0.188311
C39   C     C_3   0.509646 0.219668 0.092750 -0.142905
C40   C     C_3   0.079117 0.650287 0.849575 -0.289321
C41   C     C_3   0.241303 0.266418 0.392656 -0.220338
C42   C     C_3   0.893334 0.349905 0.137307 -0.212262
C43   C     C_3   0.240623 0.114907 0.721585 -0.294749
C44   C     C_3   0.407943 0.911811 0.883148 -0.256642
C45   C     C_R   0.812286 0.576789 0.551996 0.310552
C46   C     C_3   0.293809 0.677969 0.921355 -0.168576
C47   C     C_3   0.300911 0.397537 0.809504 -0.209691
C48   C     C_3   0.724043 0.623887 0.897406 -0.149341
C49   C     C_3   0.731177 0.401542 0.899336 -0.262251
C50   C     C_3   0.896736 0.810567 0.610681 -0.217245
C51   C     C_R   0.905012 0.577391 0.553452 0.017711
C52   C     C_R   0.952671 0.505340 0.485623 -0.130529
C53   C     C_R   0.907027 0.436077 0.414040 -0.027380
C54   C     C_R   0.950545 0.646326 0.624401 0.148474
Cu1   Cu    Cu3+1 0.499990 0.597420 0.500010 1.179337
Cu2   Cu    Cu3+1 0.499990 0.402580 0.500010 1.141206
F1    F     F_    0.228786 0.631288 0.633686 -0.602330
F2    F     F_    0.395102 0.361628 0.144411 -0.647151
F3    F     F_    0.486826 0.671742 0.906378 -0.607573
F4    F     F_    0.470747 0.319729 0.869805 -0.618462
F5    F     F_    0.600491 0.625208 0.086056 -0.583580
F6    F     F_    0.652917 0.480785 0.126273 -0.619117
F7    F     F_    0.768286 0.363896 0.361466 -0.514489
F8    F     F_    0.764092 0.645460 0.613896 -0.623720
F9    F     F_    0.090383 0.316214 0.249700 -0.631129
F10   F     F_    0.386880 0.741382 0.651750 -0.554142
F11   F     F_    0.386551 0.260955 0.646524 -0.647717
F12   F     F_    0.623012 0.742796 0.363405 -0.525822
F13   F     F_    0.614995 0.257625 0.350968 -0.512980
F14   F     F_    0.676790 0.902156 0.268778 -0.533632
F15   F     F_    0.675726 0.097995 0.267105 -0.535998
F16   F     F_    0.340622 0.529462 0.096521 -0.635595
H1    H     H_    0.371599 0.660400 0.226506 0.280455
H2    H     H_    0.009681 0.632411 0.877597 0.121526
H3    H     H_    0.104876 0.702195 0.918069 0.124555
H4    H     H_    0.118818 0.582649 0.849894 0.179542
H5    H     H_    0.293841 0.390239 0.307277 0.335449
H6    H     H_    0.279556 0.267092 0.476872 0.166812
H7    H     H_    0.275037 0.218463 0.323620 0.165062
H8    H     H_    0.174736 0.235760 0.415118 0.170861
H9    H     H_    0.940825 0.240112 0.245465 0.293679
H10   H     H_    0.955980 0.366040 0.084936 0.139801
H11   H     H_    0.855089 0.418088 0.150438 0.190673
H12   H     H_    0.430457 0.812517 0.194838 0.062854
H13   H     H_    0.853661 0.297882 0.083510 0.166963
H14   H     H_    0.359059 0.154886 0.805012 0.324039
H15   H     H_    0.238439 0.168291 0.646127 0.164117
H16   H     H_    0.201434 0.143381 0.801827 0.146770
H17   H     H_    0.210059 0.045509 0.691509 0.143712
H18   H     H_    0.288710 0.918308 0.795761 0.261988
H19   H     H_    0.370391 0.888937 0.967151 0.109034
H20   H     H_    0.427468 0.988908 0.898078 0.142457
H21   H     H_    0.468550 0.867431 0.870288 0.217009
H22   H     H_    0.352958 0.596467 0.781633 0.320476
H23   H     H_    0.483574 0.780009 0.054490 0.225564
H24   H     H_    0.258154 0.710672 0.844893 0.216881
H25   H     H_    0.331103 0.736576 0.965421 0.178529
H26   H     H_    0.245131 0.647580 0.989352 0.174140
H27   H     H_    0.309291 0.363323 0.987960 0.335320
H28   H     H_    0.238688 0.439731 0.816593 0.124999
H29   H     H_    0.282279 0.320934 0.791248 0.191406
H30   H     H_    0.340671 0.427279 0.732661 0.205794
H31   H     H_    0.645092 0.573234 0.762234 0.285536
H32   H     H_    0.780339 0.598241 0.838043 0.127667
H33   H     H_    0.738799 0.604559 0.992702 0.216653
H34   H     H_    0.526882 0.740832 0.197108 0.282433
H35   H     H_    0.721592 0.704296 0.890609 0.211419
H36   H     H_    0.614204 0.374729 0.821361 0.306709
H37   H     H_    0.747861 0.323294 0.905827 0.161375
H38   H     H_    0.759563 0.439060 0.978522 0.199557
H39   H     H_    0.762312 0.429618 0.812719 0.108697
H40   H     H_    0.920506 0.738862 0.773277 0.238966
H41   H     H_    0.854171 0.864389 0.660379 0.164144
H42   H     H_    0.963028 0.843553 0.592464 0.111696
H43   H     H_    0.866296 0.792815 0.522022 0.223970
H44   H     H_    0.582918 0.335840 0.149599 0.349698
H45   H     H_    0.480784 0.203925 0.185628 0.157630
H46   H     H_    0.568049 0.172451 0.075860 0.183181
H47   H     H_    0.459746 0.201023 0.024373 0.196511
H48   H     H_    0.068390 0.766385 0.729506 0.248676
N1    N     N_R   0.499930 0.743810 0.499950 -0.256676
N2    N     N_2   0.351748 0.601492 0.875654 -0.416756
N3    N     N_2   0.344692 0.404729 0.924862 -0.408073
N4    N     N_2   0.641116 0.583000 0.855803 -0.388086
N5    N     N_2   0.635933 0.411150 0.897152 -0.469290
N6    N     N_2   0.903821 0.724035 0.684380 -0.460464
N7    N     N_R   0.499930 0.256190 0.499950 -0.236774
N8    N     N_2   0.411112 0.666296 0.147674 -0.463634
N9    N     N_2   0.536869 0.321068 0.085275 -0.407799
N10   N     N_2   0.084409 0.693644 0.728814 -0.442604
N11   N     N_2   0.235165 0.363763 0.343889 -0.389752
N12   N     N_2   0.911705 0.307520 0.254605 -0.383361
N13   N     N_2   0.330732 0.099358 0.755935 -0.507874
N14   N     N_2   0.353933 0.901134 0.776754 -0.434404
O1    O     O_R   0.370250 0.582280 0.500040 -0.438238
O2    O     O_R   0.370250 0.417720 0.500040 -0.515899
O3    O     O_R   0.499970 0.582270 0.317700 -0.486709
O4    O     O_R   0.499970 0.417730 0.317700 -0.449412
O5    O     O_R   0.629730 0.582260 0.499980 -0.406393
O6    O     O_R   0.629730 0.417740 0.499980 -0.438529
O7    O     O_R   0.500000 0.582270 0.682320 -0.447954
O8    O     O_R   0.500000 0.417730 0.682320 -0.450279

loop_
_geom_bond_atom_site_label_1
_geom_bond_atom_site_label_2
_ccdc_geom_bond_type
Cu1   Cu2   S    
C4    C36   S    
C47   H29   S    
C18   C21   A    
C35   C36   S    
C18   C26   A    
C24   C27   A    
C41   H8    S    
Cu1   N1    S    
Cu1   O5    S    
C7    C8    A    
C54   N6    S    
C43   H17   S    
H48   N10   S    
C43   H16   S    
C31   F2    S    
H27   N3    S    
C5    C6    A    
H18   N14   S    
Cu1   O1    S    
C48   H35   S    
C45   C51   A    
C48   H32   S    
C17   C20   A    
Cu2   O4    S    
C50   H43   S    
H5    N11   S    
Cu2   N7    S    
C14   C24   A    
C12   C37   S    
C43   N13   S    
C44   H21   S    
C4    O3    A    
H44   N9    S    
C19   O6    A    
C42   H10   S    
C38   H23   S    
C8    N12   S    
C14   F11   S    
C31   C33   S    
C5    C52   A    
C50   N6    S    
H36   N5    S    
C1    O2    A    
C9    C10   A    
H40   N6    S    
C44   H20   S    
C49   H39   S    
Cu2   O8    S    
C23   F7    S    
C46   H26   S    
C47   H30   S    
C22   C28   A    
C26   F15   S    
H31   N4    S    
Cu2   O2    S    
C23   C53   A    
C13   F10   S    
C44   N14   S    
C30   N8    S    
C1    C10   S    
C51   C52   A    
C27   N13   S    
C32   N2    S    
C2    C54   A    
C6    C11   A    
C41   N11   S    
H9    N12   S    
C12   N5    S    
C39   N9    S    
C25   C26   A    
C39   H45   S    
C33   C37   S    
C47   H28   S    
C40   H4    S    
C50   H42   S    
C38   H34   S    
C41   H7    S    
C3    C9    A    
C7    F9    S    
C13   N1    A    
H14   N13   S    
C47   N3    S    
C48   H33   S    
C12   N4    S    
Cu2   O6    S    
C23   C34   A    
C29   O7    A    
C35   F5    S    
C42   H13   S    
C32   C37   S    
C12   C35   S    
C38   N8    S    
C44   H19   S    
C34   C45   A    
H22   N2    S    
C16   C18   A    
C46   H25   S    
C20   C22   A    
C33   F4    S    
C28   N14   S    
H1    N8    S    
C41   H6    S    
C52   C53   A    
C49   H37   S    
C15   C17   A    
C40   N10   S    
C15   N1    A    
C38   H12   S    
Cu1   O7    S    
C42   H11   S    
C3    C5    A    
C19   C34   S    
C11   N11   S    
C8    C53   A    
C48   N4    S    
C30   F16   S    
C6    C7    A    
C39   H46   S    
C49   N5    S    
C16   F13   S    
C45   F8    S    
C15   F12   S    
Cu1   O3    S    
C40   H3    S    
C30   C36   S    
C50   H41   S    
C17   C25   A    
C51   C54   A    
C2    C3    A    
C43   H15   S    
C31   N9    S    
C30   C32   S    
C39   H47   S    
C29   O8    A    
C2    N10   S    
C40   H2    S    
C13   C22   A    
C35   F6    S    
C9    F1    S    
C16   N7    A    
C10   C11   A    
C14   N7    A    
C4    O4    A    
C46   H24   S    
C20   C21   A    
C19   O5    A    
C21   C24   A    
C29   C37   S    
C27   C28   A    
C33   N3    S    
C31   C36   S    
C46   N2    S    
C42   N12   S    
C25   F14   S    
C32   F3    S    
C1    O1    A    
C49   H38   S    
