data_mof_unit_16766.cif
_audit_creation_date              2013-03-05T15:47:18-0500
_audit_creation_method            fapswitch 2.2
_symmetry_space_group_name_H-M    P1
_symmetry_Int_Tables_number       1
_space_group_crystal_system       triclinic
_cell_length_a                    19.399759
_cell_length_b                    11.350727
_cell_length_c                    18.712565
_cell_angle_alpha                 90.000941
_cell_angle_beta                  89.846128
_cell_angle_gamma                 90.000587
_cell_volume                      4120.51755691

loop_
_atom_site_label
_atom_site_type_symbol
_atom_site_description
_atom_site_fract_x
_atom_site_fract_y
_atom_site_fract_z
_atom_type_partial_charge
O1    O     O_R   0.214130 0.708570 0.829890 -0.516798
O2    O     O_R   0.785870 0.708570 0.170110 -0.516792
O3    O     O_R   0.714130 0.208570 0.829890 -0.516795
O4    O     O_R   0.285870 0.208570 0.170110 -0.516793
O5    O     O_R   0.236050 0.959150 0.825270 -0.516727
O6    O     O_R   0.763950 0.959150 0.174730 -0.516731
O7    O     O_R   0.736050 0.459150 0.825270 -0.516729
O8    O     O_R   0.263950 0.459150 0.174730 -0.516731
C1    C     C_R   0.272362 0.043356 0.854137 0.528034
C2    C     C_R   0.727638 0.043353 0.145862 0.528032
C3    C     C_R   0.772362 0.543354 0.854138 0.528034
C4    C     C_R   0.227637 0.543350 0.145861 0.528031
O9    O     O_R   0.332100 0.076650 0.832310 -0.531094
O10   O     O_R   0.667900 0.076650 0.167690 -0.531094
O11   O     O_R   0.832100 0.576650 0.832310 -0.531096
O12   O     O_R   0.167900 0.576650 0.167690 -0.531094
O13   O     O_R   0.446500 0.918620 0.826240 -0.496906
O14   O     O_R   0.553500 0.918620 0.173760 -0.496901
O15   O     O_R   0.946500 0.418620 0.826240 -0.496906
O16   O     O_R   0.053500 0.418620 0.173760 -0.496895
C5    C     C_R   0.444837 0.817184 0.862340 0.532740
C6    C     C_R   0.555159 0.817184 0.137660 0.532740
C7    C     C_R   0.944835 0.317184 0.862341 0.532730
C8    C     C_R   0.055159 0.317184 0.137659 0.532739
O17   O     O_R   0.457310 0.715830 0.831280 -0.521621
O18   O     O_R   0.542690 0.715830 0.168720 -0.521619
O19   O     O_R   0.957310 0.215830 0.831280 -0.521619
O20   O     O_R   0.042690 0.215830 0.168720 -0.521613
O21   O     O_R   0.321000 0.623520 0.824130 -0.519877
O22   O     O_R   0.679000 0.623520 0.175870 -0.519873
O23   O     O_R   0.821000 0.123520 0.824130 -0.519877
O24   O     O_R   0.179000 0.123520 0.175870 -0.519874
C9    C     C_R   0.262064 0.642095 0.855028 0.536744
C10   C     C_R   0.737935 0.642095 0.144972 0.536762
C11   C     C_R   0.762065 0.142098 0.855029 0.536747
C12   C     C_R   0.237935 0.142097 0.144971 0.536756
O25   O     O_R   0.213990 0.710040 0.667000 -0.452770
O26   O     O_R   0.786010 0.710040 0.333000 -0.452700
O27   O     O_R   0.713990 0.210040 0.667000 -0.452763
O28   O     O_R   0.286010 0.210040 0.333000 -0.452757
O29   O     O_R   0.235920 0.960520 0.674260 -0.506520
O30   O     O_R   0.764080 0.960520 0.325740 -0.506514
O31   O     O_R   0.735920 0.460520 0.674260 -0.506526
O32   O     O_R   0.264080 0.460520 0.325740 -0.506522
C13   C     C_R   0.273156 0.043852 0.645855 0.535850
C14   C     C_R   0.726847 0.043861 0.354142 0.535845
C15   C     C_R   0.773158 0.543852 0.645855 0.535869
C16   C     C_R   0.226846 0.543858 0.354143 0.535844
O33   O     O_R   0.331960 0.078120 0.669410 -0.525245
O34   O     O_R   0.668040 0.078120 0.330590 -0.525247
O35   O     O_R   0.831960 0.578120 0.669410 -0.525232
O36   O     O_R   0.168040 0.578120 0.330590 -0.525251
O37   O     O_R   0.446360 0.919990 0.675230 -0.482326
O38   O     O_R   0.553640 0.919990 0.324770 -0.482320
O39   O     O_R   0.946360 0.419990 0.675230 -0.482328
O40   O     O_R   0.053640 0.419990 0.324770 -0.482324
C17   C     C_R   0.468444 0.821648 0.645401 0.549319
C18   C     C_R   0.531561 0.821649 0.354603 0.549329
C19   C     C_R   0.968449 0.321647 0.645405 0.549318
C20   C     C_R   0.031569 0.321649 0.354608 0.549350
O41   O     O_R   0.457170 0.717300 0.668380 -0.527243
O42   O     O_R   0.542830 0.717300 0.331620 -0.527243
O43   O     O_R   0.957170 0.217300 0.668380 -0.527249
O44   O     O_R   0.042830 0.217300 0.331620 -0.527230
O45   O     O_R   0.320870 0.624890 0.673130 -0.519670
O46   O     O_R   0.679130 0.624890 0.326870 -0.519689
O47   O     O_R   0.820870 0.124890 0.673130 -0.519669
O48   O     O_R   0.179130 0.124890 0.326870 -0.519678
C21   C     C_R   0.259960 0.638441 0.644539 0.566624
C22   C     C_R   0.740033 0.638450 0.355465 0.566728
C23   C     C_R   0.759961 0.138443 0.644538 0.566638
C24   C     C_R   0.240037 0.138444 0.355461 0.566662
Cr1   Cr    Cr6+3 0.229620 0.836040 0.749110 1.044272
Cr2   Cr    Cr6+3 0.770380 0.836040 0.250890 1.044311
Cr3   Cr    Cr6+3 0.729620 0.336040 0.749110 1.044275
Cr4   Cr    Cr6+3 0.270380 0.336040 0.250890 1.044276
Cr5   Cr    Cr6+3 0.387630 0.990680 0.750730 1.040907
Cr6   Cr    Cr6+3 0.612370 0.990680 0.249270 1.040912
Cr7   Cr    Cr6+3 0.887630 0.490680 0.750730 1.040901
Cr8   Cr    Cr6+3 0.112370 0.490680 0.249270 1.040916
Cr9   Cr    Cr6+3 0.386020 0.676590 0.749210 1.007288
Cr10  Cr    Cr6+3 0.613980 0.676590 0.250790 1.007295
Cr11  Cr    Cr6+3 0.886020 0.176590 0.749210 1.007286
Cr12  Cr    Cr6+3 0.113980 0.176590 0.250790 1.007308
O49   O     O_3   0.334430 0.834430 0.749680 -0.303834
O50   O     O_3   0.665570 0.834430 0.250320 -0.303851
O51   O     O_3   0.834430 0.334430 0.749680 -0.303836
O52   O     O_3   0.165570 0.334430 0.250320 -0.303846
C25   C     C_3   0.479432 0.915690 0.035620 -0.109118
C26   C     C_3   0.520565 0.915689 0.964381 -0.109118
C27   C     C_3   0.979433 0.415691 0.035621 -0.109116
C28   C     C_3   0.020564 0.415687 0.964381 -0.109113
C29   C     C_3   0.431413 0.818318 0.006332 -0.158640
C30   C     C_3   0.568582 0.818316 0.993668 -0.158640
C31   C     C_3   0.931412 0.318321 0.006335 -0.158644
C32   C     C_3   0.068581 0.318314 0.993667 -0.158639
H1    H     H_    0.376452 0.805365 0.017052 0.092426
H2    H     H_    0.623542 0.805358 0.982947 0.092425
H3    H     H_    0.876452 0.305370 0.017057 0.092430
H4    H     H_    0.123541 0.305353 0.982948 0.092422
H5    H     H_    0.464326 0.996073 0.065386 0.118227
H6    H     H_    0.535672 0.996071 0.934617 0.118225
H7    H     H_    0.964329 0.496075 0.065387 0.118229
H8    H     H_    0.035670 0.496069 0.934615 0.118225
C33   C     C_3   0.472523 0.819936 0.935937 0.056336
C34   C     C_3   0.527472 0.819936 0.064064 0.056334
C35   C     C_3   0.972520 0.319937 0.935938 0.056331
C36   C     C_3   0.027472 0.319936 0.064064 0.056331
C37   C     C_3   0.520080 0.723006 0.964613 -0.111687
C38   C     C_3   0.479912 0.723007 0.035387 -0.111691
C39   C     C_3   0.020078 0.223005 0.964614 -0.111688
C40   C     C_3   0.979911 0.223009 0.035388 -0.111694
H9    H     H_    0.535485 0.642181 0.935436 0.124345
H10   H     H_    0.464506 0.642185 0.064564 0.124343
H11   H     H_    0.035481 0.142180 0.935437 0.124347
H12   H     H_    0.964507 0.142186 0.064566 0.124347
C41   C     C_3   0.311972 0.528309 0.043293 -0.235635
C42   C     C_3   0.688021 0.528328 0.956701 -0.235636
C43   C     C_3   0.811979 0.028333 0.043298 -0.235637
C44   C     C_3   0.188020 0.028340 0.956699 -0.235635
H13   H     H_    0.317472 0.434007 0.053426 0.130959
H14   H     H_    0.682517 0.434024 0.946571 0.130964
H15   H     H_    0.817484 0.934030 0.053426 0.130959
H16   H     H_    0.182520 0.934033 0.946572 0.130966
H17   H     H_    0.353903 0.571186 0.074036 0.112096
H18   H     H_    0.646094 0.571208 0.925955 0.112095
H19   H     H_    0.853904 0.071215 0.074046 0.112097
H20   H     H_    0.146094 0.071218 0.925949 0.112095
C45   C     C_3   0.321408 0.553748 0.962989 -0.234141
C46   C     C_3   0.678582 0.553778 0.037004 -0.234149
C47   C     C_3   0.821418 0.053786 0.962995 -0.234145
C48   C     C_3   0.178579 0.053797 0.037001 -0.234149
H21   H     H_    0.365894 0.613882 0.955161 0.136740
H22   H     H_    0.634106 0.613931 0.044830 0.136733
H23   H     H_    0.865892 0.113942 0.955171 0.136732
H24   H     H_    0.134108 0.113960 0.044824 0.136727
H25   H     H_    0.333541 0.470377 0.934328 0.120259
H26   H     H_    0.666432 0.470417 0.065665 0.120267
H27   H     H_    0.833569 0.970426 0.934333 0.120270
H28   H     H_    0.166420 0.970440 0.065663 0.120271
H29   H     H_    0.665186 0.937689 0.047099 0.098176
H30   H     H_    0.334821 0.937706 0.952894 0.098186
H31   H     H_    0.165182 0.437690 0.047094 0.098176
H32   H     H_    0.834814 0.437691 0.952899 0.098176
H33   H     H_    0.708851 0.936312 0.925691 0.113077
H34   H     H_    0.291132 0.936304 0.074294 0.113083
H35   H     H_    0.208806 0.436327 0.925670 0.113065
H36   H     H_    0.791150 0.436314 0.074306 0.113079
C49   C     C_3   0.179879 0.523141 0.026086 -0.210108
C50   C     C_3   0.820113 0.523136 0.973913 -0.210112
C51   C     C_3   0.679886 0.023134 0.026085 -0.210109
C52   C     C_3   0.320113 0.023142 0.973913 -0.210112
C53   C     C_3   0.240592 0.706913 0.056604 -0.255701
C54   C     C_3   0.759415 0.706919 0.943398 -0.255706
C55   C     C_3   0.740583 0.206920 0.056604 -0.255702
C56   C     C_3   0.259418 0.206928 0.943398 -0.255703
C57   C     C_3   0.241142 0.574358 0.070163 0.064497
C58   C     C_3   0.758856 0.574364 0.929835 0.064507
C59   C     C_3   0.741144 0.074364 0.070165 0.064505
C60   C     C_3   0.258856 0.074372 0.929833 0.064509
H37   H     H_    0.195024 0.750076 0.081633 0.130060
H38   H     H_    0.804985 0.750077 0.918369 0.130060
H39   H     H_    0.695013 0.250075 0.081635 0.130063
H40   H     H_    0.304988 0.250084 0.918368 0.130055
H41   H     H_    0.287083 0.746108 0.081005 0.105711
H42   H     H_    0.712925 0.746121 0.919002 0.105711
H43   H     H_    0.787072 0.246125 0.081001 0.105716
H44   H     H_    0.212929 0.246135 0.919005 0.105713
C61   C     C_3   0.254944 0.610153 0.932181 0.052940
C62   C     C_3   0.745052 0.610158 0.067817 0.052931
C63   C     C_3   0.754947 0.110161 0.932183 0.052933
C64   C     C_3   0.245051 0.110163 0.067816 0.052933
C65   C     C_3   0.195037 0.524768 0.945227 -0.252069
C66   C     C_3   0.804946 0.524748 0.054769 -0.252092
C67   C     C_3   0.695055 0.024746 0.945229 -0.252091
C68   C     C_3   0.304938 0.024740 0.054768 -0.252105
C69   C     C_3   0.238486 0.725078 0.974758 -0.225098
C70   C     C_3   0.761525 0.725078 0.025245 -0.225109
C71   C     C_3   0.738472 0.225079 0.974758 -0.225114
C72   C     C_3   0.261532 0.225082 0.025245 -0.225112
H45   H     H_    0.273574 0.794423 0.958459 0.106333
H46   H     H_    0.726454 0.794439 0.041549 0.106348
H47   H     H_    0.773539 0.294446 0.958455 0.106349
H48   H     H_    0.226471 0.294458 0.041552 0.106355
H49   H     H_    0.185123 0.751599 0.960859 0.131715
H50   H     H_    0.814890 0.751576 0.039144 0.131724
H51   H     H_    0.685106 0.251571 0.960861 0.131720
H52   H     H_    0.314901 0.251560 0.039142 0.131723
H53   H     H_    0.632823 0.077484 0.035343 0.138971
H54   H     H_    0.367174 0.077500 0.964664 0.138965
H55   H     H_    0.132818 0.577493 0.035354 0.138974
H56   H     H_    0.867177 0.577487 0.964656 0.138971
H57   H     H_    0.148446 0.553685 0.915638 0.130664
H58   H     H_    0.851536 0.553619 0.084371 0.130672
H59   H     H_    0.648464 0.053614 0.915627 0.130665
H60   H     H_    0.351529 0.053588 0.084376 0.130667
C73   C     C_3   0.505215 0.693041 0.460159 -0.215079
C74   C     C_3   0.494780 0.693037 0.539839 -0.215082
C75   C     C_3   0.005211 0.193041 0.460161 -0.215066
C76   C     C_3   0.994777 0.193031 0.539841 -0.215075
H61   H     H_    0.549907 0.639492 0.446934 0.145754
H62   H     H_    0.450082 0.639501 0.553060 0.145746
H63   H     H_    0.049898 0.139475 0.446934 0.145759
H64   H     H_    0.950077 0.139506 0.553062 0.145747
H65   H     H_    0.461659 0.646281 0.434207 0.128985
H66   H     H_    0.538332 0.646261 0.565788 0.128990
H67   H     H_    0.961647 0.146305 0.434207 0.128999
H68   H     H_    0.038325 0.146241 0.565787 0.128989
H69   H     H_    0.616146 0.888650 0.453098 0.104305
H70   H     H_    0.383864 0.888649 0.546904 0.104313
H71   H     H_    0.116163 0.388633 0.453105 0.104314
H72   H     H_    0.883876 0.388652 0.546904 0.104337
H73   H     H_    0.600495 0.818643 0.575193 0.109475
H74   H     H_    0.399514 0.818698 0.424799 0.109496
H75   H     H_    0.100503 0.318597 0.575202 0.109459
H76   H     H_    0.899524 0.318782 0.424786 0.109556
C77   C     C_3   0.564382 0.896087 0.473544 -0.229249
C78   C     C_3   0.435631 0.896093 0.526466 -0.229247
C79   C     C_3   0.064402 0.396066 0.473556 -0.229266
C80   C     C_3   0.935648 0.396102 0.526476 -0.229278
C81   C     C_3   0.441372 0.874849 0.445416 -0.263704
C82   C     C_3   0.558645 0.874821 0.554591 -0.263721
C83   C     C_3   0.941396 0.374885 0.445426 -0.263694
C84   C     C_3   0.058661 0.374792 0.554602 -0.263721
C85   C     C_3   0.511219 0.821350 0.431070 0.036705
C86   C     C_3   0.488790 0.821345 0.568935 0.036732
C87   C     C_3   0.011231 0.321351 0.431077 0.036663
C88   C     C_3   0.988799 0.321339 0.568941 0.036762
H77   H     H_    0.440705 0.957627 0.417452 0.221233
H78   H     H_    0.559340 0.957583 0.582575 0.221193
H79   H     H_    0.940775 0.457693 0.417494 0.221253
H80   H     H_    0.059368 0.457545 0.582592 0.221165
H81   H     H_    0.450392 0.988778 0.535645 0.176552
H82   H     H_    0.549628 0.988776 0.464380 0.176548
H83   H     H_    0.950414 0.488783 0.535671 0.176447
H84   H     H_    0.049657 0.488761 0.464401 0.176446
C89   C     C_3   0.176703 0.645086 0.459151 -0.194145
C90   C     C_3   0.823310 0.645057 0.540838 -0.194185
C91   C     C_3   0.676702 0.145082 0.459152 -0.194142
C92   C     C_3   0.323305 0.145065 0.540843 -0.194149
H85   H     H_    0.128637 0.600016 0.447890 0.175854
H86   H     H_    0.871373 0.599960 0.552063 0.175695
H87   H     H_    0.628639 0.099995 0.447899 0.175844
H88   H     H_    0.371367 0.099974 0.552088 0.175809
H89   H     H_    0.172304 0.730604 0.430295 0.116293
H90   H     H_    0.827733 0.730563 0.569704 0.116343
H91   H     H_    0.672294 0.230596 0.430294 0.116309
H92   H     H_    0.327719 0.230577 0.569705 0.116316
C93   C     C_3   0.183044 0.667945 0.538161 0.104855
C94   C     C_3   0.816934 0.667946 0.461838 0.104848
C95   C     C_3   0.683047 0.167946 0.538161 0.104849
C96   C     C_3   0.316951 0.167940 0.461836 0.104854
H93   H     H_    0.192167 0.760390 0.543616 0.119203
H94   H     H_    0.807793 0.760387 0.456407 0.119171
H95   H     H_    0.692173 0.260389 0.543612 0.119193
H96   H     H_    0.307827 0.260387 0.456394 0.119173
H97   H     H_    0.720498 0.883696 0.452200 0.101673
H98   H     H_    0.279503 0.883682 0.547786 0.101684
H99   H     H_    0.220511 0.383680 0.452200 0.101682
H100  H     H_    0.779509 0.383687 0.547786 0.101682
H101  H     H_    0.690534 0.942839 0.572754 0.152010
H102  H     H_    0.309464 0.942836 0.427235 0.152050
H103  H     H_    0.190528 0.442841 0.572754 0.152003
H104  H     H_    0.809455 0.442837 0.427237 0.152134
C97   C     C_3   0.249901 0.457153 0.473020 -0.241459
C98   C     C_3   0.750100 0.457147 0.526978 -0.241512
C99   C     C_3   0.749900 0.957159 0.473017 -0.241473
C100  C     C_3   0.250101 0.957146 0.526974 -0.241488
C101  C     C_3   0.302416 0.649512 0.444070 -0.283772
C102  C     C_3   0.697592 0.649510 0.555938 -0.283774
C103  C     C_3   0.802416 0.149520 0.444069 -0.283770
C104  C     C_3   0.197592 0.149508 0.555932 -0.283771
C105  C     C_3   0.238995 0.573698 0.430274 0.021059
C106  C     C_3   0.761012 0.573688 0.569724 0.021074
C107  C     C_3   0.738995 0.073703 0.430273 0.021049
C108  C     C_3   0.261010 0.073688 0.569723 0.021053
H105  H     H_    0.347736 0.614026 0.414798 0.131107
H106  H     H_    0.652273 0.614034 0.585219 0.131114
H107  H     H_    0.847736 0.114037 0.414795 0.131122
H108  H     H_    0.152271 0.114033 0.585208 0.131108
H109  H     H_    0.293406 0.740541 0.425323 0.110898
H110  H     H_    0.706613 0.740538 0.574682 0.110898
H111  H     H_    0.793408 0.240550 0.425324 0.110899
H112  H     H_    0.206612 0.240536 0.574676 0.110898
C109  C     C_3   0.249201 0.605207 0.568744 0.042161
C110  C     C_3   0.750782 0.605207 0.431260 0.042195
C111  C     C_3   0.749204 0.105209 0.568743 0.042164
C112  C     C_3   0.250794 0.105204 0.431256 0.042175
C113  C     C_3   0.241416 0.473727 0.554545 -0.270386
C114  C     C_3   0.758570 0.473725 0.445453 -0.270353
C115  C     C_3   0.741419 0.973729 0.554543 -0.270392
C116  C     C_3   0.258579 0.973724 0.445449 -0.270368
C117  C     C_3   0.314735 0.646069 0.525786 -0.267033
C118  C     C_3   0.685256 0.646064 0.474225 -0.267087
C119  C     C_3   0.814737 0.146072 0.525784 -0.267042
C120  C     C_3   0.185264 0.146062 0.474218 -0.267045
H113  H     H_    0.336256 0.727641 0.545676 0.114325
H114  H     H_    0.663738 0.727640 0.454341 0.114320
H115  H     H_    0.836261 0.227642 0.545675 0.114319
H116  H     H_    0.163747 0.227633 0.454331 0.114330
H117  H     H_    0.354165 0.577719 0.535277 0.141285
H118  H     H_    0.645822 0.577715 0.464740 0.141287
H119  H     H_    0.854166 0.077717 0.535272 0.141293
H120  H     H_    0.145827 0.077719 0.464728 0.141288
H121  H     H_    0.304739 0.434697 0.463884 0.146952
H122  H     H_    0.695265 0.434690 0.536126 0.146971
H123  H     H_    0.804736 0.934698 0.463875 0.147004
H124  H     H_    0.195266 0.934690 0.536116 0.146959
H125  H     H_    0.281373 0.422743 0.583679 0.113931
H126  H     H_    0.718609 0.422742 0.416324 0.113933
H127  H     H_    0.781379 0.922745 0.583672 0.113935
H128  H     H_    0.218618 0.922743 0.416318 0.113938
N1    N     N_R   0.116594 0.647043 0.575049 0.044145
O53   O     O_R   0.113015 0.599604 0.638373 -0.352344
O54   O     O_R   0.061717 0.699254 0.550697 -0.334197
N2    N     N_R   0.883360 0.647084 0.424903 0.044262
O55   O     O_R   0.886899 0.599356 0.361651 -0.352570
O56   O     O_R   0.938208 0.699643 0.449082 -0.333924
N3    N     N_R   0.616600 0.147048 0.575054 0.044157
O57   O     O_R   0.613022 0.099585 0.638371 -0.352359
O58   O     O_R   0.561725 0.199281 0.550715 -0.334093
N4    N     N_R   0.383391 0.147042 0.424929 0.044189
O59   O     O_R   0.386954 0.099511 0.361628 -0.352414
O60   O     O_R   0.438266 0.199315 0.449237 -0.334060

loop_
_geom_bond_atom_site_label_1
_geom_bond_atom_site_label_2
_geom_bond_distance
_ccdc_geom_bond_type
N4    O60   1.301855 A    
O4    C12   1.287512 A    
C18   O42   1.278719 A    
O39   C19   1.319042 A    
C74   H66   1.110745 S    
C102  C106  1.524048 S    
C21   C109  1.482931 S    
Cr7   O51   2.052098 S    
C93   H93   1.069059 S    
C99   C107  1.560592 S    
C62   C70   1.561075 S    
C118  H114  1.082097 S    
O25   C21   1.276895 A    
C31   H3    1.094321 S    
O21   C9    1.297086 A    
C92   H88   1.084729 S    
C1    O9    1.284585 A    
O44   Cr12  2.096493 S    
C52   H54   1.115050 S    
C3    O11   1.284592 A    
C4    O12   1.284598 A    
C55   H43   1.105456 S    
H34   C68   1.101070 S    
C25   C34   1.528352 S    
H31   C49   1.084432 S    
C4    C57   1.482231 S    
C100  C116  1.545438 S    
C101  C117  1.548804 S    
C29   C38   1.534278 S    
O2    C10   1.287514 A    
C103  H107  1.110260 S    
C32   C36   1.538173 S    
C75   C76   1.504161 S    
C76   H68   1.110744 S    
C97   C113  1.545440 S    
C101  H109  1.105234 S    
C46   H22   1.109689 S    
C95   C111  1.576629 S    
C96   C112  1.576606 S    
C67   H59   1.110785 S    
O31   Cr3   1.993052 S    
C12   C64   1.494593 S    
O16   Cr8   1.994609 S    
C96   N4    1.479784 S    
C119  H115  1.082116 S    
H72   C80   1.077026 S    
C55   C59   1.525902 S    
H36   C66   1.101074 S    
O28   Cr4   2.121503 S    
C53   H37   1.112945 S    
N2    O55   1.303339 A    
O12   Cr8   2.105787 S    
O22   Cr10  1.977337 S    
O15   C7    1.335283 A    
C116  H128  1.111416 S    
O46   Cr10  1.994566 S    
H73   C82   1.102766 S    
C94   N2    1.479729 S    
O48   C24   1.307460 A    
C47   C63   1.552026 S    
H35   C65   1.101138 S    
C94   C110  1.576516 S    
C89   H89   1.114156 S    
C19   C88   1.483273 S    
C70   H46   1.083833 S    
C45   H21   1.109718 S    
C66   H58   1.110779 S    
C42   C58   1.552564 S    
H100  C98   1.083318 S    
C98   H122  1.106764 S    
C62   C66   1.532320 S    
C25   H5    1.108024 S    
Cr12  O52   2.052190 S    
C26   C33   1.528346 S    
C27   H7    1.108022 S    
C17   O41   1.278715 A    
C43   H15   1.092347 S    
C13   C108  1.483772 S    
C30   C37   1.534277 S    
C19   O43   1.278696 A    
C20   O44   1.278723 A    
H69   C77   1.076968 S    
Cr8   O52   2.052117 S    
C56   C72   1.546017 S    
O46   C22   1.307418 A    
C99   C115  1.545439 S    
C111  C119  1.572288 S    
C112  C120  1.572259 S    
C28   H8    1.108019 S    
C70   H50   1.109663 S    
C16   O36   1.284402 A    
C45   H25   1.112597 S    
C43   C59   1.552556 S    
C44   C60   1.552559 S    
C54   C58   1.525896 S    
O27   C23   1.276901 A    
C91   H87   1.084746 S    
C48   C64   1.552015 S    
O31   C15   1.302692 A    
C78   C86   1.555427 S    
C72   H48   1.083844 S    
C104  H112  1.105232 S    
N3    O58   1.301865 A    
O47   Cr11  1.994545 S    
C91   C107  1.550926 S    
C39   C40   1.534806 S    
H97   C99   1.083319 S    
H98   C100  1.083306 S    
O24   C12   1.297076 A    
N2    O56   1.302050 A    
C98   C106  1.560574 S    
O30   C14   1.302696 A    
C83   C87   1.508256 S    
N1    O54   1.301879 A    
C56   H44   1.105452 S    
C109  C113  1.523436 S    
O8    Cr4   2.000081 S    
C110  C118  1.572231 S    
C42   H14   1.092350 S    
O32   Cr4   1.993020 S    
C26   H6    1.108022 S    
H32   C50   1.084426 S    
C79   C84   1.539435 S    
O11   Cr7   2.105778 S    
C74   H62   1.086834 S    
C43   C47   1.540630 S    
O27   Cr3   2.121465 S    
C41   C45   1.540620 S    
C38   H10   1.108226 S    
O8    C4    1.305218 A    
Cr5   O49   2.052098 S    
C104  H108  1.110270 S    
C90   C94   1.506375 S    
C117  H113  1.082104 S    
H103  C113  1.100798 S    
C63   C71   1.561076 S    
C61   C69   1.561088 S    
C113  H125  1.111425 S    
C32   C39   1.534275 S    
C53   C69   1.546013 S    
C49   H55   1.115060 S    
O22   C10   1.297075 A    
C115  H127  1.111425 S    
H33   C67   1.101080 S    
C56   C60   1.525909 S    
C2    O10   1.284597 A    
C27   C28   1.551807 S    
C1    C60   1.482229 S    
C55   H39   1.112943 S    
C68   H60   1.110770 S    
C51   C59   1.560773 S    
O5    C1    1.305215 A    
C102  C118  1.548801 S    
C103  H111  1.105230 S    
O3    C11   1.287520 A    
C48   H24   1.109681 S    
Cr1   O49   2.033430 S    
C100  C108  1.560593 S    
C101  H105  1.110267 S    
C98   C114  1.545430 S    
C102  H110  1.105237 S    
C103  C119  1.548797 S    
C97   C105  1.560613 S    
C117  H117  1.104238 S    
C29   H1    1.094324 S    
C40   H12   1.108222 S    
C78   C81   1.539424 S    
C119  H119  1.104233 S    
O26   Cr2   2.121503 S    
Cr3   O51   2.033430 S    
C120  H120  1.104237 S    
C99   H123  1.106784 S    
C33   C37   1.533740 S    
O29   C13   1.302689 A    
O28   C24   1.276906 A    
C53   H41   1.105466 S    
O14   C6    1.335251 A    
C35   C39   1.533740 S    
C54   H38   1.112942 S    
C89   C105  1.550939 S    
C8    O20   1.311145 A    
C78   H81   1.103874 S    
C74   C86   1.559055 S    
H71   C79   1.076940 S    
C14   C107  1.483773 S    
O40   Cr8   1.982249 S    
C89   H85   1.084743 S    
O41   Cr9   2.096495 S    
C49   C57   1.560776 S    
C69   H45   1.083888 S    
C32   H4    1.094334 S    
O33   Cr5   2.115638 S    
O5    Cr1   2.000047 S    
C73   C74   1.504161 S    
O35   Cr7   2.115638 S    
C47   H27   1.112577 S    
O29   Cr1   1.993052 S    
O32   C16   1.302687 A    
C82   H78   1.075585 S    
C61   C65   1.532339 S    
C41   H17   1.109958 S    
C80   C83   1.539394 S    
Cr9   O49   2.052208 S    
C64   C68   1.532327 S    
C77   C85   1.555442 S    
C43   H19   1.109953 S    
C94   H94   1.069044 S    
Cr11  O51   2.052208 S    
O26   C22   1.276941 A    
O20   Cr12  2.116846 S    
C11   C63   1.494603 S    
C80   H83   1.103902 S    
C73   H65   1.110736 S    
C9    C61   1.494605 S    
H75   C84   1.102753 S    
C15   C106  1.483745 S    
C91   C95   1.506421 S    
C112  C116  1.523432 S    
C31   C40   1.534280 S    
C34   C38   1.533735 S    
C71   H51   1.109660 S    
C30   H2    1.094331 S    
C95   N3    1.479795 S    
C84   C88   1.508308 S    
C69   H49   1.109694 S    
C80   C88   1.555391 S    
C91   H91   1.114153 S    
C76   C88   1.559054 S    
H30   C52   1.084416 S    
C5    O17   1.311147 A    
C72   H52   1.109660 S    
C55   C71   1.546015 S    
O6    Cr2   2.000081 S    
C8    C36   1.479872 S    
C64   C72   1.561085 S    
N4    O59   1.303261 A    
O42   Cr10  2.096493 S    
O18   Cr10  2.116846 S    
C75   H63   1.086878 S    
O34   Cr6   2.115604 S    
C83   H79   1.075573 S    
C26   C30   1.546738 S    
O24   Cr12  1.977337 S    
O30   Cr2   1.993020 S    
C51   C67   1.540706 S    
C110  C114  1.523449 S    
O48   Cr12  1.994566 S    
O37   C17   1.319029 A    
C15   O35   1.284364 A    
Cr10  O50   2.052190 S    
C36   C40   1.533728 S    
C81   C85   1.508282 S    
O43   Cr11  2.096495 S    
O37   Cr5   1.982237 S    
O21   Cr9   1.977346 S    
C42   C46   1.540629 S    
H74   C81   1.102783 S    
O39   Cr7   1.982237 S    
C95   H95   1.069050 S    
C13   O33   1.284381 A    
C104  C108  1.524023 S    
C90   H90   1.114165 S    
O13   Cr5   1.994638 S    
O15   Cr7   1.994638 S    
C18   C85   1.483308 S    
C31   C35   1.538174 S    
C104  C120  1.548793 S    
C114  H126  1.111420 S    
C54   C70   1.546011 S    
C65   H57   1.110835 S    
O23   C11   1.297084 A    
C77   C82   1.539429 S    
C14   O34   1.284397 A    
C50   C58   1.560772 S    
C27   C36   1.528349 S    
C77   H82   1.103864 S    
O6    C2    1.305222 A    
C44   H20   1.109978 S    
C48   H28   1.112577 S    
C101  C105  1.524024 S    
O1    Cr1   2.113364 S    
C102  H106  1.110277 S    
O19   Cr11  2.116831 S    
H76   C83   1.102823 S    
C37   C38   1.534807 S    
N1    O53   1.303250 A    
C90   C106  1.550970 S    
C46   C62   1.552029 S    
O45   C21   1.307495 A    
H101  C115  1.100799 S    
H102  C116  1.100796 S    
O47   C23   1.307485 A    
C53   C57   1.525894 S    
O13   C5    1.335266 A    
C118  H118  1.104236 S    
N3    O57   1.303238 A    
O40   C20   1.319016 A    
C120  H116  1.082063 S    
C6    O18   1.311142 A    
C81   H77   1.075590 S    
C92   H92   1.114162 S    
C54   H42   1.105457 S    
C79   C87   1.555449 S    
C25   C26   1.551808 S    
O36   Cr8   2.115604 S    
C75   C87   1.559053 S    
C2    C59   1.482232 S    
C5    C33   1.479881 S    
C3    C58   1.482223 S    
O38   Cr6   1.982249 S    
C73   C85   1.559060 S    
C52   C60   1.560779 S    
C23   C111  1.482931 S    
C24   C112  1.482929 S    
C28   C32   1.546738 S    
O1    C9    1.287520 A    
O7    C3    1.305205 A    
C45   C61   1.552040 S    
C103  C107  1.524042 S    
C47   H23   1.109685 S    
C84   H80   1.075571 S    
C82   C86   1.508306 S    
O23   Cr11  1.977346 S    
C41   H13   1.092339 S    
C29   C33   1.538169 S    
O45   Cr9   1.994545 S    
O16   C8    1.335253 A    
C22   C110  1.482933 S    
C73   H61   1.086846 S    
C7    O19   1.311163 A    
Cr4   O52   2.033425 S    
C10   C62   1.494594 S    
C37   H9    1.108226 S    
C96   H96   1.069071 S    
C16   C105  1.483770 S    
Cr6   O50   2.052117 S    
C7    C35   1.479883 S    
C93   C109  1.576644 S    
C25   C29   1.546738 S    
C89   C93   1.506425 S    
C100  H124  1.106762 S    
C50   H56   1.115053 S    
C71   H47   1.083828 S    
O9    Cr5   2.105778 S    
C41   C57   1.552554 S    
C97   H121  1.106779 S    
O7    Cr3   2.000047 S    
C6    C34   1.479878 S    
C63   C67   1.532323 S    
C92   C108  1.550940 S    
H99   C97   1.083310 S    
C76   H64   1.086816 S    
C28   C35   1.528345 S    
C75   H67   1.110730 S    
H104  C114  1.100807 S    
Cr2   O50   2.033425 S    
C17   C86   1.483295 S    
O14   Cr6   1.994609 S    
C50   C66   1.540701 S    
C111  C115  1.523435 S    
O3    Cr3   2.113364 S    
H29   C51   1.084426 S    
O38   C18   1.319022 A    
O25   Cr1   2.121465 S    
C30   C34   1.538173 S    
C44   C48   1.540633 S    
C79   H84   1.103844 S    
O17   Cr9   2.116831 S    
O2    Cr2   2.113337 S    
C92   C96   1.506422 S    
C90   H86   1.084712 S    
H70   C78   1.076998 S    
C20   C87   1.483324 S    
C49   C65   1.540721 S    
O10   Cr6   2.105787 S    
O4    Cr4   2.113337 S    
C93   N1    1.479811 S    
C52   C68   1.540697 S    
C51   H53   1.115057 S    
C56   H40   1.112945 S    
C27   C31   1.546733 S    
C109  C117  1.572288 S    
C39   H11   1.108226 S    
C42   H18   1.109956 S    
C44   H16   1.092364 S    
C46   H26   1.112580 S    
