data_mof_unit_58384.cif
_audit_creation_date              2012-12-10T22:11:08-0500
_audit_creation_method            fapswitch 2.2
_symmetry_space_group_name_H-M    P1
_symmetry_Int_Tables_number       1
_space_group_crystal_system       triclinic
_cell_length_a                    12.140996
_cell_length_b                    12.349185
_cell_length_c                    22.995079
_cell_angle_alpha                 90.92902
_cell_angle_beta                  90.43344
_cell_angle_gamma                 90.310316
_cell_volume                      3447.07978489

loop_
_atom_site_label
_atom_site_type_symbol
_atom_type_description
_atom_site_fract_x
_atom_site_fract_y
_atom_site_fract_z
_atom_type_partial_charge
C1    C     C_R   0.656762 0.998048 0.579248 0.865229
C2    C     C_R   0.342595 0.001890 0.421096 0.869271
C3    C     C_R   0.899597 0.769169 0.151131 -0.207383
C4    C     C_R   0.093065 0.242021 0.842577 -0.207514
C5    C     C_R   0.094111 0.891096 0.168240 0.147707
C6    C     C_R   0.912553 0.097726 0.837645 0.136624
C7    C     C_R   0.083437 0.816599 0.122502 -0.223618
C8    C     C_R   0.918641 0.180779 0.879142 -0.229367
C9    C     C_R   0.893821 0.131524 0.174264 0.147888
C10   C     C_R   0.102533 0.876194 0.830940 0.135666
C11   C     C_R   0.902970 0.207375 0.130519 -0.227727
C12   C     C_R   0.093224 0.798522 0.873625 -0.237403
C13   C     C_R   0.142545 0.908990 0.306896 -0.160262
C14   C     C_R   0.838202 0.083246 0.703582 -0.196946
C15   C     C_R   0.224819 0.907318 0.348701 -0.200374
C16   C     C_R   0.757072 0.085400 0.660982 -0.200901
C17   C     C_R   0.853987 0.101970 0.311959 -0.160321
C18   C     C_R   0.162389 0.901251 0.696255 -0.176010
C19   C     C_R   0.772809 0.100446 0.353509 -0.198984
C20   C     C_R   0.243270 0.903743 0.654557 -0.202290
C21   C     C_3   0.996216 0.007938 0.248767 -0.108229
C22   C     C_3   0.003871 0.990424 0.751950 -0.099905
C23   C     C_R   0.655379 0.001463 0.421211 0.870143
C24   C     C_R   0.345062 0.998575 0.578997 0.867704
C25   C     C_R   0.092824 0.007370 0.291459 0.128997
C26   C     C_R   0.904657 0.990634 0.710292 0.118304
C27   C     C_R   0.255502 0.003107 0.377844 -0.023197
C28   C     C_R   0.741980 0.996331 0.623518 -0.016398
C29   C     C_R   0.901997 0.004815 0.292041 0.129189
C30   C     C_R   0.099296 0.994266 0.708851 0.120438
C31   C     C_R   0.741575 0.002419 0.378204 -0.024226
C32   C     C_R   0.260452 0.997614 0.622815 -0.019581
C33   C     C_R   0.989648 0.108099 0.209257 0.088170
C34   C     C_R   0.012291 0.889517 0.790678 0.088733
C35   C     C_R   0.997977 0.268631 0.123883 -0.053374
C36   C     C_R   0.004297 0.727322 0.874480 -0.058002
C37   C     C_R   0.000212 0.911659 0.204812 0.087235
C38   C     C_R   0.999952 0.086768 0.795950 0.087476
C39   C     C_R   0.989877 0.752676 0.115713 -0.053714
C40   C     C_R   0.008435 0.250844 0.882289 -0.045939
C41   C     C_R   0.992205 0.663447 0.074295 0.875220
C42   C     C_R   0.007480 0.338076 0.924814 0.872568
C43   C     C_R   0.999222 0.351890 0.080477 0.877205
C44   C     C_R   0.001156 0.646614 0.918908 0.877019
C45   C     C_R   0.118321 0.101172 0.324814 -0.175773
C46   C     C_R   0.891258 0.903885 0.670028 -0.163616
C47   C     C_R   0.200787 0.099722 0.366421 -0.202802
C48   C     C_R   0.809315 0.905650 0.628094 -0.200913
C49   C     C_R   0.876859 0.908274 0.321237 -0.175262
C50   C     C_R   0.112717 0.085777 0.673525 -0.164033
C51   C     C_R   0.795196 0.906520 0.362754 -0.205243
C52   C     C_R   0.194504 0.088490 0.631978 -0.206298
C53   C     C_R   0.085285 0.172363 0.200717 -0.232713
C54   C     C_R   0.925625 0.811895 0.791379 -0.217935
C55   C     C_R   0.088806 0.251874 0.159322 -0.205734
C56   C     C_R   0.922393 0.731595 0.832401 -0.208195
C57   C     C_R   0.903879 0.848417 0.194158 -0.230071
C58   C     C_R   0.088065 0.162883 0.799512 -0.239881
H1    H     H_    0.220428 0.173897 0.390158 0.157113
H2    H     H_    0.800387 0.837109 0.598391 0.153475
H3    H     H_    0.919734 0.833688 0.311404 0.137112
H4    H     H_    0.059979 0.155677 0.678651 0.143740
H5    H     H_    0.160542 0.162395 0.224881 0.145001
H6    H     H_    0.854602 0.815016 0.763222 0.148921
H7    H     H_    0.829403 0.857693 0.218636 0.144712
H8    H     H_    0.157828 0.161013 0.770966 0.150360
H9    H     H_    0.117503 0.832744 0.287011 0.128210
H10   H     H_    0.849667 0.155683 0.729941 0.145152
H11   H     H_    0.879089 0.179784 0.295559 0.127652
H12   H     H_    0.148845 0.825067 0.717555 0.139392
H13   H     H_    0.775195 0.830554 0.383180 0.156853
H14   H     H_    0.204562 0.160574 0.606282 0.154510
H15   H     H_    0.163356 0.299517 0.154715 0.159049
H16   H     H_    0.853819 0.675049 0.832379 0.155548
H17   H     H_    0.825791 0.720097 0.146012 0.158000
H18   H     H_    0.162326 0.297759 0.844085 0.155647
H19   H     H_    0.151420 0.805230 0.092753 0.153198
H20   H     H_    0.851747 0.191091 0.909683 0.154401
H21   H     H_    0.833501 0.220030 0.101560 0.156038
H22   H     H_    0.156446 0.793733 0.907008 0.157315
H23   H     H_    0.263869 0.830934 0.358282 0.155548
H24   H     H_    0.706373 0.156917 0.657258 0.153114
H25   H     H_    0.734968 0.176308 0.366315 0.157322
H26   H     H_    0.291926 0.831660 0.646985 0.155721
H27   H     H_    0.074770 0.176268 0.318351 0.136292
H28   H     H_    0.945046 0.834287 0.671134 0.139745
O1    O     O_R   0.621380 0.090460 0.561410 -0.626121
O2    O     O_R   0.378620 0.909540 0.438590 -0.627972
O3    O     O_R   0.617150 0.909540 0.438590 -0.631383
O4    O     O_R   0.382850 0.090460 0.561410 -0.630659
O5    O     O_R   0.619720 0.093230 0.440890 -0.628591
O6    O     O_R   0.380280 0.906770 0.559110 -0.627519
O7    O     O_R   0.618800 0.906770 0.559110 -0.629977
O8    O     O_R   0.381200 0.093230 0.440890 -0.631456
O9    O     O_R   0.087590 0.627480 0.058790 -0.634342
O10   O     O_R   0.912410 0.372520 0.941210 -0.632964
O11   O     O_R   0.905660 0.383870 0.059980 -0.635303
O12   O     O_R   0.094340 0.616130 0.940020 -0.634495
O13   O     O_R   0.092570 0.390420 0.063230 -0.625696
O14   O     O_R   0.907430 0.609580 0.936770 -0.624291
O15   O     O_R   0.900680 0.620930 0.055550 -0.626361
O16   O     O_R   0.099320 0.379070 0.944450 -0.624886
Zn1   Zn    Zn3+2 0.501730 0.123520 0.501540 0.936885
Zn2   Zn    Zn3+2 0.498270 0.876480 0.498460 0.936816
Zn3   Zn    Zn3+2 0.125690 0.504390 0.002180 0.930415
Zn4   Zn    Zn3+2 0.874310 0.495610 0.997820 0.930306
C59   C     C_3   0.209259 0.939719 0.174650 -0.435097
C60   C     C_3   0.295333 0.851551 0.187722 -0.340715
C61   C     C_3   0.408820 0.900392 0.199341 -0.897387
H29   H     H_    0.438369 0.940140 0.159437 0.260616
H30   H     H_    0.405585 0.960034 0.235970 0.272523
H31   H     H_    0.467577 0.835446 0.210900 0.250156
H32   H     H_    0.270552 0.804383 0.226153 0.224855
H33   H     H_    0.302492 0.793827 0.150447 0.217935
H34   H     H_    0.231139 0.980384 0.133474 0.199771
H35   H     H_    0.216636 0.001636 0.208741 0.219065
C62   C     C_3   0.808100 0.029200 0.840046 -0.438522
C63   C     C_3   0.802509 0.963721 0.896340 -0.318772
C64   C     C_3   0.702830 0.887908 0.896120 -0.877750
H36   H     H_    0.625651 0.935624 0.894589 0.258163
H37   H     H_    0.705007 0.831535 0.858046 0.261007
H38   H     H_    0.703238 0.839545 0.936412 0.254270
H39   H     H_    0.878666 0.915709 0.901702 0.244968
H40   H     H_    0.796240 0.018949 0.934748 0.207634
H41   H     H_    0.735854 0.084129 0.838363 0.193582
H42   H     H_    0.797164 0.974641 0.802426 0.219641
C65   C     C_3   0.778296 0.084366 0.180274 -0.435592
C66   C     C_3   0.695309 0.173265 0.197730 -0.339698
C67   C     C_3   0.581943 0.126045 0.209827 -0.895541
H43   H     H_    0.547632 0.089677 0.169176 0.262189
H44   H     H_    0.587171 0.063940 0.244146 0.271560
H45   H     H_    0.525947 0.191377 0.224840 0.249499
H46   H     H_    0.724546 0.217950 0.237172 0.224228
H47   H     H_    0.686202 0.233012 0.162465 0.216666
H48   H     H_    0.752542 0.047179 0.137903 0.198080
H49   H     H_    0.771982 0.019926 0.211892 0.219041
C68   C     C_3   0.209685 0.941263 0.832457 -0.432716
C69   C     C_3   0.311673 0.868652 0.825145 -0.345754
C70   C     C_3   0.415469 0.935815 0.814778 -0.890953
H50   H     H_    0.407243 0.981862 0.773872 0.266834
H51   H     H_    0.430111 0.993290 0.851719 0.259496
H52   H     H_    0.487552 0.881313 0.810790 0.251232
H53   H     H_    0.325033 0.820009 0.864747 0.217788
H54   H     H_    0.299571 0.811811 0.787683 0.226075
H55   H     H_    0.213958 0.001046 0.798223 0.226607
H56   H     H_    0.215806 0.986511 0.874571 0.202811

loop_
_geom_bond_atom_site_label_1
_geom_bond_atom_site_label_2
_ccdc_geom_bond_type
C1    O1    A    
C8    H20   S    
C17   H11   S    
C5    C37   A    
C53   H5    S    
C17   C29   A    
C19   C31   A    
C66   C67   S    
C39   C41   S    
C29   C49   A    
C9    C65   S    
O12   Zn3   S    
C42   O10   A    
C68   H55   S    
C43   O13   A    
C69   H53   S    
C61   H30   S    
C5    C59   S    
C10   C12   A    
C70   H52   S    
C59   H35   S    
C21   C33   S    
C22   C38   S    
C24   O6    A    
C60   C61   S    
O16   Zn3   S    
C60   H33   S    
C63   C64   S    
C32   C52   A    
O10   Zn4   S    
O9    Zn3   S    
C38   C58   A    
C44   O12   A    
C58   H8    S    
C4    C40   A    
C49   C51   A    
C1    C28   S    
C50   C52   A    
C59   C60   S    
C6    C38   A    
C2    O2    A    
C2    C27   S    
C18   C30   A    
C10   C68   S    
C12   C36   A    
C3    H17   S    
C62   H42   S    
C6    C62   S    
C18   C20   A    
C16   C28   A    
C7    H19   S    
C67   H45   S    
C45   C47   A    
C30   C50   A    
C3    C39   A    
C9    C33   A    
C13   C25   A    
C51   H13   S    
C19   H25   S    
C42   O16   A    
O7    Zn2   S    
O2    Zn2   S    
C48   H2    S    
C46   C48   A    
C53   C55   A    
C33   C53   A    
C22   C34   S    
C54   C56   A    
C49   H3    S    
C35   C55   A    
C68   H56   S    
C2    O8    A    
C56   H16   S    
C65   H49   S    
C15   H23   S    
C61   H29   S    
C61   H31   S    
O5    Zn1   S    
C5    C7    A    
C26   C46   A    
C44   O14   A    
C6    C8    A    
C21   C29   S    
C23   C31   S    
C60   H32   S    
C45   H27   S    
C24   C32   S    
C52   H14   S    
C66   H47   S    
C15   C27   A    
C64   H36   S    
C57   H7    S    
C16   H24   S    
C23   O3    A    
C10   C34   A    
C63   H40   S    
C14   C26   A    
C9    C11   A    
C59   H34   S    
C64   H37   S    
C11   H21   S    
O1    Zn1   S    
O11   Zn4   S    
C3    C57   A    
O8    Zn1   S    
C34   C54   A    
C13   C15   A    
O3    Zn2   S    
C50   H4    S    
C23   O5    A    
C36   C44   S    
C65   C66   S    
C25   C45   A    
C35   C43   S    
C67   H43   S    
C20   C32   A    
C64   H38   S    
C27   C47   A    
O15   Zn4   S    
C21   C25   S    
C28   C48   A    
C7    C39   A    
C22   C30   S    
C13   H9    S    
C43   O11   A    
C31   C51   A    
C40   C42   S    
C24   O4    A    
C70   H50   S    
C68   C69   S    
O14   Zn4   S    
C18   H12   S    
C20   H26   S    
C69   H54   S    
C66   H46   S    
C70   H51   S    
C41   O9    A    
C54   H6    S    
C12   H22   S    
C11   C35   A    
C36   C56   A    
C17   C19   A    
C41   O15   A    
C14   C16   A    
C63   H39   S    
C65   H48   S    
O13   Zn3   S    
O4    Zn1   S    
C4    H18   S    
C69   C70   S    
O6    Zn2   S    
C47   H1    S    
C55   H15   S    
C21   C37   S    
C1    O7    A    
C22   C26   S    
C4    C58   A    
C14   H10   S    
C8    C40   A    
C46   H28   S    
C62   C63   S    
C62   H41   S    
C37   C57   A    
C67   H44   S    
