data_mof_unit_34764.cif
_audit_creation_date              2012-12-11T15:54:47-0500
_audit_creation_method            fapswitch 2.2
_symmetry_space_group_name_H-M    P1
_symmetry_Int_Tables_number       1
_space_group_crystal_system       triclinic
_cell_length_a                    17.522195
_cell_length_b                    24.585384
_cell_length_c                    15.157135
_cell_angle_alpha                 89.995621
_cell_angle_beta                  127.063792
_cell_angle_gamma                 90.007627
_cell_volume                      5210.34456446

loop_
_atom_site_label
_atom_site_type_symbol
_atom_type_description
_atom_site_fract_x
_atom_site_fract_y
_atom_site_fract_z
_atom_type_partial_charge
C1    C     C_R   0.904957 0.870856 0.090176 -0.105339
C2    C     C_R   0.145154 0.847247 0.092564 -0.127128
C3    C     C_R   0.318344 0.647397 0.996082 -0.040927
C4    C     C_R   0.713368 0.000011 0.619263 0.024064
C5    C     C_R   0.213386 0.500005 0.619252 0.024132
C6    C     C_R   0.089071 0.999990 0.378688 0.038645
C7    C     C_R   0.589072 0.499999 0.378681 0.038565
C8    C     C_R   0.268561 0.954380 0.244687 -0.087260
C9    C     C_R   0.268567 0.045628 0.244693 -0.087282
C10   C     C_R   0.768567 0.454379 0.244744 -0.087292
C11   C     C_R   0.768574 0.545628 0.244749 -0.087282
C12   C     C_R   0.986662 0.046076 0.719634 -0.106701
C13   C     C_R   0.645150 0.652754 0.092576 -0.127202
C14   C     C_R   0.986694 0.953928 0.719666 -0.106657
C15   C     C_R   0.486769 0.546076 0.719723 -0.106543
C16   C     C_R   0.486761 0.453926 0.719723 -0.106619
C17   C     C_R   0.748772 0.149375 0.787044 0.100596
C18   C     C_R   0.652507 0.132765 0.717248 -0.217009
C19   C     C_R   0.589612 0.155542 0.611992 -0.134078
C20   C     C_R   0.623577 0.192272 0.572666 -0.098857
C21   C     C_R   0.720631 0.205700 0.638063 -0.072835
C22   C     C_R   0.783166 0.184061 0.744482 -0.135748
C23   C     C_R   0.748475 0.850787 0.787032 0.100487
C24   C     C_R   0.645145 0.347245 0.092563 -0.126977
C25   C     C_R   0.782587 0.816044 0.744231 -0.135770
C26   C     C_R   0.719805 0.794435 0.637809 -0.072894
C27   C     C_R   0.622795 0.807958 0.572648 -0.099364
C28   C     C_R   0.589123 0.844760 0.612198 -0.133831
C29   C     C_R   0.652258 0.867499 0.717456 -0.216914
C30   C     C_R   0.248696 0.649323 0.787028 0.100464
C31   C     C_R   0.152437 0.632687 0.717293 -0.216990
C32   C     C_R   0.089470 0.655458 0.612033 -0.133924
C33   C     C_R   0.123359 0.692210 0.572641 -0.098987
C34   C     C_R   0.220409 0.705665 0.637975 -0.072751
C35   C     C_R   0.325029 0.000006 0.268364 -0.042878
C36   C     C_R   0.283017 0.684030 0.744401 -0.135779
C37   C     C_R   0.248473 0.350794 0.787056 0.100557
C38   C     C_R   0.282727 0.316052 0.744415 -0.135833
C39   C     C_R   0.220066 0.294386 0.638029 -0.073123
C40   C     C_R   0.123029 0.307848 0.572739 -0.099199
C41   C     C_R   0.089208 0.344641 0.612129 -0.133879
C42   C     C_R   0.152230 0.367440 0.717351 -0.216950
C43   C     C_R   0.825038 0.500006 0.268441 -0.042864
C44   C     C_R   0.993513 0.000004 0.671817 0.102893
C45   C     C_R   0.493641 0.500001 0.671925 0.102781
C46   C     C_R   0.112078 0.815728 0.001489 0.064211
C47   C     C_R   0.112082 0.184285 0.001495 0.064161
C48   C     C_R   0.612066 0.315724 0.001488 0.064375
C49   C     C_R   0.905037 0.129246 0.090173 -0.105375
C50   C     C_R   0.612080 0.684282 0.001514 0.064239
C51   C     C_3   0.005097 0.050600 0.441555 -0.475914
C52   C     C_3   0.004933 0.949433 0.441437 -0.475742
C53   C     C_3   0.505065 0.550584 0.441543 -0.475768
C54   C     C_3   0.505057 0.449416 0.441548 -0.475857
C55   C     C_3   0.979928 0.052572 0.521708 0.120509
C56   C     C_3   0.979987 0.947405 0.521783 0.120344
C57   C     C_3   0.480068 0.552590 0.521843 0.120381
C58   C     C_3   0.480003 0.447425 0.521804 0.120513
C59   C     C_3   0.160037 0.999939 0.587977 0.437874
C60   C     C_R   0.404757 0.371018 0.090168 -0.105043
C61   C     C_3   0.660100 0.500008 0.587991 0.437847
C62   C     C_3   0.068419 0.999987 0.462673 0.144686
C63   C     C_3   0.568458 0.500002 0.462698 0.144724
C64   C     C_3   0.016660 0.000004 0.593538 0.138481
C65   C     C_3   0.516759 0.500001 0.593620 0.138466
C66   C     C_R   0.813426 0.130958 0.903561 0.072301
C67   C     C_R   0.813331 0.869131 0.903588 0.072537
C68   C     C_R   0.313397 0.630929 0.903562 0.072414
C69   C     C_R   0.313231 0.369215 0.903570 0.072579
C70   C     C_3   0.127438 0.000046 0.663291 -0.615556
C71   C     C_R   0.404994 0.629207 0.090169 -0.105383
C72   C     C_3   0.627533 0.499979 0.663337 -0.615568
C73   C     C_3   0.663042 0.197534 0.888581 -0.392365
C74   C     C_3   0.662833 0.802624 0.888695 -0.392534
C75   C     C_3   0.163015 0.697526 0.888562 -0.392227
C76   C     C_3   0.162726 0.302663 0.888620 -0.392484
C77   C     C_3   0.100257 0.736698 0.894776 -0.409006
C78   C     C_3   0.099995 0.263487 0.894928 -0.408914
C79   C     C_3   0.600257 0.236674 0.894817 -0.408984
C80   C     C_3   0.600093 0.763479 0.895030 -0.409015
C81   C     C_3   0.319721 0.745092 0.038923 0.074247
C82   C     C_R   0.053331 0.847849 0.908945 -0.148736
C83   C     C_3   0.319564 0.255153 0.038952 0.074221
C84   C     C_3   0.819719 0.245137 0.038891 0.074211
C85   C     C_3   0.819581 0.754963 0.038731 0.074076
C86   C     C_3   0.743236 0.177627 0.087837 -0.424513
C87   C     C_3   0.743311 0.822386 0.088084 -0.424430
C88   C     C_3   0.243157 0.677595 0.087800 -0.424460
C89   C     C_3   0.242945 0.322543 0.087915 -0.424391
C90   C     C_3   0.762313 0.190628 0.001554 0.273027
C91   C     C_3   0.762208 0.809484 0.001607 0.273159
C92   C     C_3   0.262272 0.690593 0.001548 0.272946
C93   C     C_R   0.053403 0.152146 0.908949 -0.148873
C94   C     C_3   0.262029 0.309631 0.001597 0.273006
C95   C     C_3   0.163481 0.768514 0.004211 0.319080
C96   C     C_3   0.163379 0.231578 0.004244 0.319228
C97   C     C_3   0.663484 0.268520 0.004212 0.319087
C98   C     C_3   0.663454 0.731525 0.004270 0.319192
C99   C     C_3   0.253562 0.791424 0.019549 -0.447375
C100  C     C_3   0.253401 0.208759 0.019323 -0.447574
C101  C     C_3   0.753516 0.291451 0.019471 -0.447396
C102  C     C_3   0.753356 0.708636 0.019184 -0.447518
C103  C     C_3   0.195107 0.727557 0.098956 -0.379201
C104  C     C_R   0.553332 0.347849 0.908946 -0.148869
C105  C     C_3   0.195124 0.272466 0.099170 -0.379476
C106  C     C_3   0.695186 0.227583 0.099005 -0.379257
C107  C     C_3   0.695375 0.772368 0.099283 -0.379607
C108  C     C_3   0.479194 0.948788 0.347509 -0.397352
C109  C     C_3   0.479210 0.051219 0.347470 -0.397220
C110  C     C_3   0.979186 0.448792 0.347525 -0.397310
C111  C     C_3   0.979206 0.551223 0.347530 -0.397404
C112  C     C_R   0.754669 0.955712 0.687314 -0.125204
C113  C     C_R   0.754672 0.044302 0.687331 -0.125492
C114  C     C_R   0.254679 0.455708 0.687314 -0.125329
C115  C     C_R   0.553379 0.652152 0.908961 -0.148911
C116  C     C_R   0.254687 0.544298 0.687322 -0.125387
C117  C     C_3   0.587597 0.949492 0.443163 -0.378046
C118  C     C_3   0.587633 0.050506 0.443097 -0.378001
C119  C     C_3   0.087596 0.449490 0.443163 -0.378070
C120  C     C_3   0.087630 0.550504 0.443114 -0.378000
C121  C     C_3   0.445486 0.000017 0.465038 -0.362337
C122  C     C_3   0.945517 0.500003 0.465104 -0.362366
C123  C     C_3   0.430157 0.000008 0.353563 0.360528
C124  C     C_3   0.930164 0.500007 0.353620 0.360589
C125  C     C_3   0.612848 0.000015 0.517613 0.352801
C126  C     C_R   0.145163 0.152758 0.092567 -0.127237
C127  C     C_3   0.112861 0.500008 0.517625 0.352835
C128  C     C_3   0.551156 0.000057 0.559783 -0.395876
C129  C     C_3   0.051192 0.500036 0.559825 -0.395853
C130  C     C_R   0.066592 0.045075 0.310386 0.137787
C131  C     C_R   0.066576 0.954914 0.310377 0.137717
C132  C     C_R   0.566587 0.545080 0.310377 0.137786
C133  C     C_R   0.566573 0.454918 0.310375 0.137697
C134  C     C_R   0.818261 0.852696 0.996113 -0.041006
C135  C     C_R   0.818397 0.147444 0.996087 -0.040828
C136  C     C_R   0.318043 0.352875 0.996090 -0.041182
H1    H     H_    0.934291 0.863210 0.175197 0.133102
H2    H     H_    0.019093 0.911976 0.577155 0.113102
H3    H     H_    0.509184 0.663363 0.822831 0.094232
H4    H     H_    0.188671 0.165625 0.178020 0.120888
H5    H     H_    0.188695 0.834386 0.178022 0.120823
H6    H     H_    0.688659 0.665614 0.178033 0.120898
H7    H     H_    0.688683 0.334383 0.178021 0.120828
H8    H     H_    0.042260 0.089068 0.451127 0.207528
H9    H     H_    0.041846 0.910922 0.450679 0.207480
H10   H     H_    0.542084 0.589077 0.450908 0.207509
H11   H     H_    0.542109 0.410928 0.450983 0.207525
H12   H     H_    0.626025 0.103164 0.745603 0.126187
H13   H     H_    0.519126 0.588032 0.577196 0.112980
H14   H     H_    0.514988 0.143826 0.560030 0.135053
H15   H     H_    0.575104 0.209326 0.490591 0.126993
H16   H     H_    0.747359 0.233130 0.606574 0.146787
H17   H     H_    0.858015 0.194884 0.793914 0.144460
H18   H     H_    0.857404 0.805157 0.793472 0.144564
H19   H     H_    0.746308 0.766955 0.606135 0.146935
H20   H     H_    0.574132 0.790928 0.490573 0.126857
H21   H     H_    0.514538 0.856554 0.560413 0.135149
H22   H     H_    0.625998 0.897133 0.746014 0.126194
H23   H     H_    0.126014 0.603080 0.745715 0.126176
H24   H     H_    0.518991 0.411967 0.577138 0.112872
H25   H     H_    0.014850 0.643723 0.560121 0.135065
H26   H     H_    0.074828 0.709262 0.490562 0.126928
H27   H     H_    0.247077 0.733113 0.606433 0.146845
H28   H     H_    0.357864 0.694874 0.793788 0.144490
H29   H     H_    0.357565 0.305215 0.793748 0.144579
H30   H     H_    0.246686 0.266911 0.606483 0.146850
H31   H     H_    0.074458 0.290773 0.490691 0.126882
H32   H     H_    0.014598 0.356382 0.560246 0.135100
H33   H     H_    0.125858 0.397072 0.745775 0.126166
H34   H     H_    0.156618 0.036042 0.719043 0.208010
H35   H     H_    0.156728 0.964178 0.719384 0.208118
H36   H     H_    0.656815 0.535887 0.719317 0.208101
H37   H     H_    0.656742 0.464025 0.719196 0.208065
H38   H     H_    0.672349 0.216198 0.829133 0.213017
H39   H     H_    0.671982 0.783980 0.829106 0.213002
H40   H     H_    0.172354 0.716175 0.829127 0.213021
H41   H     H_    0.934379 0.136917 0.175195 0.133120
H42   H     H_    0.172037 0.283984 0.829180 0.212947
H43   H     H_    0.625129 0.157968 0.860067 0.175763
H44   H     H_    0.624956 0.842201 0.860290 0.175859
H45   H     H_    0.125055 0.657973 0.860035 0.175798
H46   H     H_    0.124742 0.342210 0.860046 0.175860
H47   H     H_    0.542872 0.214483 0.890982 0.207078
H48   H     H_    0.542905 0.785682 0.891546 0.207353
H49   H     H_    0.042804 0.714537 0.890852 0.207116
H50   H     H_    0.042723 0.285674 0.891352 0.207309
H51   H     H_    0.064563 0.762300 0.819645 0.159614
H52   H     H_    0.433983 0.363449 0.175203 0.132957
H53   H     H_    0.064005 0.237973 0.819630 0.159456
H54   H     H_    0.564474 0.262252 0.819650 0.159579
H55   H     H_    0.564039 0.737993 0.819730 0.159560
H56   H     H_    0.230690 0.814720 0.944255 0.206482
H57   H     H_    0.230445 0.185616 0.943824 0.206406
H58   H     H_    0.730593 0.314720 0.944131 0.206455
H59   H     H_    0.730273 0.685500 0.943656 0.206458
H60   H     H_    0.810315 0.168085 0.170612 0.168424
H61   H     H_    0.810445 0.831914 0.170828 0.168434
H62   H     H_    0.310225 0.668046 0.170582 0.168434
H63   H     H_    0.434324 0.636873 0.175186 0.133115
H64   H     H_    0.309997 0.332175 0.170671 0.168459
H65   H     H_    0.695856 0.141430 0.060650 0.198063
H66   H     H_    0.695914 0.858560 0.061048 0.198142
H67   H     H_    0.195763 0.641402 0.060594 0.198039
H68   H     H_    0.195389 0.358660 0.060679 0.198152
H69   H     H_    0.632729 0.214149 0.095382 0.205877
H70   H     H_    0.633042 0.785741 0.095949 0.205810
H71   H     H_    0.132608 0.714130 0.095259 0.205804
H72   H     H_    0.132703 0.285783 0.095737 0.205839
H73   H     H_    0.247209 0.747066 0.180786 0.160791
H74   H     H_    0.938347 0.049618 0.355085 0.208200
H75   H     H_    0.247414 0.252934 0.180932 0.160802
H76   H     H_    0.747307 0.247109 0.180808 0.160770
H77   H     H_    0.747630 0.752786 0.180980 0.160783
H78   H     H_    0.378489 0.742465 0.129332 0.126100
H79   H     H_    0.378226 0.257754 0.129418 0.126270
H80   H     H_    0.878485 0.242530 0.129308 0.126100
H81   H     H_    0.878364 0.757498 0.129151 0.126233
H82   H     H_    0.294193 0.819895 0.091049 0.156724
H83   H     H_    0.294066 0.180172 0.090633 0.156969
H84   H     H_    0.794128 0.319948 0.090929 0.156743
H85   H     H_    0.938107 0.950553 0.355040 0.208315
H86   H     H_    0.794005 0.680038 0.090456 0.156944
H87   H     H_    0.448823 0.910847 0.354574 0.148857
H88   H     H_    0.448864 0.089166 0.354543 0.148850
H89   H     H_    0.948814 0.410847 0.354577 0.148838
H90   H     H_    0.948881 0.589163 0.354653 0.148879
H91   H     H_    0.467384 0.947653 0.266722 0.178162
H92   H     H_    0.467368 0.052345 0.266659 0.178119
H93   H     H_    0.967360 0.447670 0.266727 0.178146
H94   H     H_    0.967332 0.552367 0.266709 0.178113
H95   H     H_    0.628825 0.950302 0.409138 0.204938
H96   H     H_    0.438254 0.549524 0.355126 0.208276
H97   H     H_    0.628830 0.049641 0.409034 0.204973
H98   H     H_    0.128810 0.450302 0.409119 0.204920
H99   H     H_    0.128798 0.549641 0.409016 0.204957
H100  H     H_    0.753482 0.915849 0.657328 0.134758
H101  H     H_    0.753510 0.084168 0.657362 0.134832
H102  H     H_    0.253496 0.415844 0.657336 0.134777
H103  H     H_    0.253532 0.584163 0.657354 0.134822
H104  H     H_    0.606946 0.911400 0.490640 0.168846
H105  H     H_    0.607044 0.088617 0.490537 0.168736
H106  H     H_    0.106949 0.411395 0.490639 0.168830
H107  H     H_    0.438263 0.450452 0.355108 0.208201
H108  H     H_    0.107060 0.588614 0.490559 0.168769
H109  H     H_    0.411688 0.963517 0.472013 0.181132
H110  H     H_    0.411617 0.036492 0.471954 0.181217
H111  H     H_    0.911720 0.463501 0.472073 0.181152
H112  H     H_    0.911664 0.536476 0.472050 0.181195
H113  H     H_    0.567350 0.963966 0.612108 0.169011
H114  H     H_    0.567310 0.036221 0.611923 0.168965
H115  H     H_    0.067393 0.463935 0.612131 0.168988
H116  H     H_    0.067360 0.536191 0.611994 0.168976
H117  H     H_    0.290249 0.912295 0.258813 0.098318
H118  H     H_    0.018859 0.088043 0.577036 0.112737
H119  H     H_    0.290267 0.087714 0.258828 0.098357
H120  H     H_    0.790255 0.412294 0.258882 0.098303
H121  H     H_    0.790276 0.587714 0.258897 0.098354
H122  H     H_    0.987669 0.088396 0.701301 0.108427
H123  H     H_    0.987747 0.911609 0.701375 0.108577
H124  H     H_    0.487829 0.588395 0.701427 0.108518
H125  H     H_    0.487806 0.411607 0.701430 0.108479
H126  H     H_    0.009020 0.836622 0.822821 0.094287
H127  H     H_    0.009220 0.163343 0.822812 0.094159
H128  H     H_    0.509037 0.336626 0.822819 0.094268
I1    I     I_    0.831270 0.074377 0.436921 -0.454587
I2    I     I_    0.394817 0.232799 0.972710 -0.499437
I3    I     I_    0.894574 0.267624 0.972226 -0.499497
I4    I     I_    0.894433 0.732571 0.972049 -0.499352
I5    I     I_    0.138149 0.121374 0.360094 -0.464992
I6    I     I_    0.138121 0.878626 0.360039 -0.464806
I7    I     I_    0.638133 0.621379 0.360048 -0.464835
I8    I     I_    0.638024 0.378599 0.360019 -0.464759
I9    I     I_    0.831434 0.925412 0.437268 -0.454589
I10   I     I_    0.331487 0.574514 0.437255 -0.454615
I11   I     I_    0.331379 0.425560 0.437160 -0.454620
I12   I     I_    0.254866 0.068160 0.635473 -0.356188
I13   I     I_    0.254408 0.931483 0.635512 -0.356067
I14   I     I_    0.754670 0.568371 0.635505 -0.356058
I15   I     I_    0.754724 0.431695 0.635448 -0.356121
I16   I     I_    0.394568 0.767566 0.972249 -0.499250
N1    N     N_R   0.950530 0.896220 0.057200 -0.032396
N2    N     N_R   0.818150 0.028600 0.792440 -0.050746
N3    N     N_R   0.318150 0.471400 0.792440 -0.050798
N4    N     N_R   0.318150 0.528600 0.792440 -0.050770
N5    N     N_R   0.025710 0.028600 0.207560 -0.078985
N6    N     N_R   0.025710 0.971400 0.207560 -0.079002
N7    N     N_R   0.525710 0.528600 0.207560 -0.078997
N8    N     N_R   0.525710 0.471400 0.207560 -0.079029
N9    N     N_R   0.181850 0.971400 0.207560 -0.028592
N10   N     N_R   0.181850 0.028600 0.207560 -0.028594
N11   N     N_R   0.681850 0.471400 0.207560 -0.028609
N12   N     N_R   0.950530 0.103780 0.057200 -0.032445
N13   N     N_R   0.681850 0.528600 0.207560 -0.028608
N14   N     N_R   0.974290 0.028600 0.792440 -0.043711
N15   N     N_R   0.974290 0.971400 0.792440 -0.043726
N16   N     N_R   0.474290 0.528600 0.792440 -0.043715
N17   N     N_R   0.474290 0.471400 0.792440 -0.043717
N18   N     N_R   0.049470 0.896220 0.942800 -0.043541
N19   N     N_R   0.049470 0.103780 0.942800 -0.043503
N20   N     N_R   0.549470 0.396220 0.942800 -0.043547
N21   N     N_R   0.549470 0.603780 0.942800 -0.043520
N22   N     N_R   0.106670 0.103780 0.057200 -0.037110
N23   N     N_R   0.450530 0.396220 0.057200 -0.032270
N24   N     N_R   0.106670 0.896220 0.057200 -0.037124
N25   N     N_R   0.606670 0.603780 0.057200 -0.037128
N26   N     N_R   0.606670 0.396220 0.057200 -0.037149
N27   N     N_R   0.450530 0.603780 0.057200 -0.032417
N28   N     N_R   0.893330 0.103780 0.942800 -0.061565
N29   N     N_R   0.893330 0.896220 0.942800 -0.061539
N30   N     N_R   0.393330 0.603780 0.942800 -0.061553
N31   N     N_R   0.393330 0.396220 0.942800 -0.061520
N32   N     N_R   0.818150 0.971400 0.792440 -0.050788
Ni1   Ni    Ni4+2 0.065600 0.934400 0.131190 0.254040
Ni2   Ni    Ni4+2 0.065600 0.065600 0.131190 0.254000
Ni3   Ni    Ni4+2 0.565600 0.434400 0.131190 0.254125
Ni4   Ni    Ni4+2 0.565600 0.565600 0.131190 0.253995
Ni5   Ni    Ni4+2 0.934400 0.065600 0.868810 0.212951
Ni6   Ni    Ni4+2 0.934400 0.934400 0.868810 0.212983
Ni7   Ni    Ni4+2 0.434400 0.565600 0.868810 0.212972
Ni8   Ni    Ni4+2 0.434400 0.434400 0.868810 0.212974

loop_
_geom_bond_atom_site_label_1
_geom_bond_atom_site_label_2
_ccdc_geom_bond_type
C87   C91   S    
C61   I14   S    
C19   C20   A    
C55   I1    S    
C9    H119  S    
C57   I10   S    
C44   C64   S    
C78   H53   S    
N1    Ni1   S    
C4    C125  S    
C72   H36   S    
N2    Ni5   S    
C7    C133  A    
C37   C69   S    
C14   H123  S    
C95   C99   S    
C54   C63   S    
C19   H14   S    
N11   Ni3   S    
C21   H16   S    
C89   C94   S    
C61   C63   S    
C76   C94   S    
C66   N28   A    
C100  H83   S    
C78   C96   S    
C78   H50   S    
C118  H105  S    
N14   Ni5   S    
C25   H18   S    
C60   H52   S    
C21   C22   A    
C109  C118  S    
C49   H41   S    
C4    C113  A    
C121  C128  S    
C86   C90   S    
C57   C65   S    
C67   N29   A    
C98   C102  S    
C84   I3    S    
C3    C92   S    
C8    C35   A    
C70   H35   S    
C37   C38   A    
N21   N25   A    
N31   Ni8   S    
C17   C66   S    
C72   H37   S    
C7    C132  A    
C121  H110  S    
C115  H3    S    
C83   C100  S    
C10   H120  S    
C101  H58   S    
C102  H86   S    
C47   C126  A    
N23   N31   A    
C27   H20   S    
C89   H64   S    
C75   H40   S    
C79   C97   S    
C16   C45   A    
C82   N18   A    
C29   H22   S    
C128  H113  S    
C20   H15   S    
C30   C36   A    
C12   C44   A    
C1    N1    A    
C9    N10   A    
C53   H10   S    
C51   C55   S    
C121  C123  S    
N13   Ni4   S    
C87   C107  S    
C20   C21   A    
C93   N19   A    
C104  H128  S    
C38   H29   S    
C129  H115  S    
C101  H84   S    
C6    C130  A    
C120  C127  S    
N25   Ni4   S    
C11   H121  S    
N11   N13   A    
C76   C78   S    
C73   C90   S    
C50   C115  A    
N12   Ni2   S    
C99   H56   S    
N30   Ni7   S    
C24   H7    S    
C37   C42   A    
C23   C67   S    
C86   H60   S    
C46   C82   A    
C81   C92   S    
C57   H13   S    
C56   C64   S    
C60   C136  A    
C87   H66   S    
C113  N2    A    
C114  H102  S    
C49   C135  A    
C55   C64   S    
C26   H19   S    
C86   C106  S    
C51   C62   S    
C84   C90   S    
C95   C103  S    
N9    N10   A    
C8    N9    A    
C15   N16   A    
C50   C98   S    
C24   C48   A    
C67   C134  A    
C39   C40   A    
C109  C123  S    
C25   C26   A    
N21   Ni7   S    
C127  C129  S    
N29   Ni6   S    
C58   C65   S    
C31   C32   A    
C107  H77   S    
C99   H82   S    
C104  N20   A    
C133  N8    A    
C59   I12   S    
C17   C18   A    
C73   C79   S    
C75   C77   S    
C7    C63   S    
C16   H125  S    
C45   C65   S    
N32   Ni6   S    
C122  C124  S    
C1    H1    S    
C105  H72   S    
N10   Ni2   S    
C11   N13   A    
N9    Ni1   S    
C108  C117  S    
C110  C119  S    
C65   C72   S    
N27   N30   A    
C54   H107  S    
C35   C123  S    
C52   C62   S    
C90   C135  S    
C53   C63   S    
C118  H97   S    
C91   C134  S    
C96   C100  S    
C79   H47   S    
C34   C36   A    
C80   H48   S    
N19   N22   A    
C53   H96   S    
N23   Ni3   S    
C13   C50   A    
C114  N3    A    
C89   H68   S    
N5    Ni2   S    
C89   C105  S    
N3    N4    A    
C49   N12   A    
N8    Ni3   S    
C117  C125  S    
C15   H124  S    
C122  H111  S    
C22   H17   S    
C119  C127  S    
C96   C105  S    
C41   C42   A    
C3    C68   A    
C102  H59   S    
C103  H73   S    
N24   Ni1   S    
C100  H57   S    
N20   Ni8   S    
C48   C97   S    
C116  H103  S    
C26   C27   A    
C13   N25   A    
N26   Ni3   S    
C28   C29   A    
N1    N29   A    
C76   H42   S    
N28   Ni5   S    
C120  H99   S    
N14   N15   A    
C9    C35   A    
C132  N7    A    
C41   H32   S    
C8    H117  S    
C18   C19   A    
C88   H62   S    
C73   H38   S    
C60   N23   A    
C40   H31   S    
C110  C124  S    
C82   H126  S    
C47   C96   S    
C118  C125  S    
C122  C129  S    
C121  H109  S    
C52   H85   S    
C74   C80   S    
N22   Ni2   S    
C61   I15   S    
C85   I4    S    
C68   N30   A    
C69   N31   A    
C109  H92   S    
C12   N14   A    
C71   N27   A    
C108  H87   S    
C53   C57   S    
C133  I8    S    
C112  H100  S    
C83   C94   S    
C117  H95   S    
C128  H114  S    
C98   C107  S    
C74   C91   S    
C3    C71   A    
N5    N6    A    
C42   H33   S    
N7    N8    A    
C126  N22   A    
C5    C127  S    
C86   H65   S    
C97   C106  S    
C61   C72   S    
C69   C136  A    
C59   I13   S    
C80   H55   S    
C116  N4    A    
C87   H61   S    
C108  C123  S    
C23   C29   A    
N19   Ni5   S    
C14   C44   A    
N20   N26   A    
C130  I5    S    
C80   C98   S    
C111  H90   S    
C83   I2    S    
C103  H71   S    
C6    C131  A    
N2    N32   A    
C131  N6    A    
C83   H79   S    
C71   H63   S    
C10   N11   A    
C108  H91   S    
C81   C99   S    
C17   C22   A    
C105  H75   S    
C32   C33   A    
C6    C62   S    
C39   H30   S    
C33   H26   S    
C70   H34   S    
C74   H39   S    
C58   H24   S    
C14   N15   A    
C51   H74   S    
C38   C39   A    
C28   H21   S    
C24   N26   A    
C119  H106  S    
N3    Ni8   S    
C59   C70   S    
C66   C135  A    
N4    Ni7   S    
C56   I9    S    
C36   H28   S    
C30   C68   S    
C52   H9    S    
C5    C114  A    
C81   I16   S    
C77   H49   S    
C106  H69   S    
C85   C91   S    
C51   H8    S    
C2    C46   A    
C131  I6    S    
C126  H4    S    
N16   Ni7   S    
C110  H93   S    
C18   H12   S    
C48   C104  A    
N6    Ni1   S    
C120  H108  S    
C85   H81   S    
C107  H70   S    
C46   C95   S    
C88   C92   S    
C117  H104  S    
C79   H54   S    
C125  C128  S    
C94   C136  S    
C11   C43   A    
C64   C70   S    
N18   Ni6   S    
N12   N28   A    
C113  H101  S    
C4    C112  A    
C129  H116  S    
C112  N32   A    
C84   C101  S    
C12   H122  S    
C130  N5    A    
C76   H46   S    
C47   C93   A    
C34   H27   S    
C13   H6    S    
C16   N17   A    
C77   C95   S    
C111  C120  S    
N7    Ni4   S    
C56   H2    S    
C119  H98   S    
C81   H78   S    
C30   C31   A    
C106  H76   S    
C32   H25   S    
C33   C34   A    
C115  N21   A    
N18   N24   A    
C109  H88   S    
C75   C92   S    
C40   C41   A    
C5    C116  A    
C77   H51   S    
C15   C45   A    
C1    C134  A    
C75   H45   S    
C88   C103  S    
C122  H112  S    
C54   C58   S    
C2    H5    S    
N15   Ni6   S    
C58   I11   S    
N16   N17   A    
C59   C62   S    
C10   C43   A    
C110  H89   S    
C55   H118  S    
C132  I7    S    
C23   C25   A    
C88   H67   S    
C31   H23   S    
C85   C102  S    
C73   H43   S    
C52   C56   S    
C74   H44   S    
C27   C28   A    
C111  H94   S    
N27   Ni4   S    
N17   Ni8   S    
C2    N24   A    
C111  C124  S    
C43   C124  S    
C97   C101  S    
C84   H80   S    
C54   H11   S    
C93   H127  S    
