data_mof_unit_26474.cif
_audit_creation_date              2012-12-10T16:52:10-0500
_audit_creation_method            fapswitch 2.2
_symmetry_space_group_name_H-M    P1
_symmetry_Int_Tables_number       1
_space_group_crystal_system       triclinic
_cell_length_a                    7.800884
_cell_length_b                    8.606917
_cell_length_c                    14.894393
_cell_angle_alpha                 90.925723
_cell_angle_beta                  86.872173
_cell_angle_gamma                 92.518127
_cell_volume                      997.483920811

loop_
_atom_site_label
_atom_site_type_symbol
_atom_type_description
_atom_site_fract_x
_atom_site_fract_y
_atom_site_fract_z
_atom_type_partial_charge
C1    C     C_R   0.544855 0.794330 0.497889 0.960761
C2    C     C_R   0.615478 0.612735 0.813459 0.484938
C3    C     C_R   0.488653 0.496298 0.232412 -0.191720
C4    C     C_R   0.514821 0.501119 0.768062 -0.178708
C5    C     C_R   0.574703 0.616152 0.186095 -0.289806
C6    C     C_R   0.423262 0.381098 0.812743 -0.288836
C7    C     C_R   0.586578 0.611666 0.093485 -0.029766
C8    C     C_R   0.426692 0.369370 0.905424 -0.001515
C9    C     C_R   0.508658 0.485272 0.046941 -0.122856
C10   C     C_R   0.520699 0.483764 0.952966 -0.112195
C11   C     C_R   0.408546 0.368263 0.094279 -0.135923
C12   C     C_R   0.455311 0.205742 0.503402 0.965877
C13   C     C_R   0.622642 0.600754 0.906627 -0.169718
C14   C     C_R   0.677493 0.731080 0.046804 0.435643
C15   C     C_R   0.331688 0.249318 0.951279 0.381742
C16   C     C_3   0.414746 0.144105 0.265702 -0.300526
C17   C     C_3   0.816335 0.743557 0.719521 -0.239436
C18   C     C_3   0.627791 0.986376 0.062170 -0.395083
C19   C     C_3   0.355901 0.024983 0.868549 -0.287856
C20   C     C_3   0.004220 0.701622 0.911779 0.122165
C21   C     C_3   0.129691 0.744185 0.985318 -0.326870
C22   C     C_3   0.096497 0.650476 0.070972 -0.864119
C23   C     C_R   0.719616 0.710462 0.955893 0.431467
C24   C     C_3   0.029367 0.184976 0.079857 0.173038
C25   C     C_3   0.948411 0.257293 0.166203 -0.360170
C26   C     C_3   0.922677 0.140407 0.242611 -0.726084
C27   C     C_R   0.313000 0.255017 0.045810 0.365415
C28   C     C_2   0.569041 0.957128 0.497154 -0.382203
C29   C     C_2   0.431526 0.042998 0.506416 -0.399948
C30   C     C_R   0.504757 0.505687 0.672794 0.925995
C31   C     C_R   0.496171 0.498992 0.327452 0.928849
C32   C     C_R   0.404959 0.371728 0.188968 0.504964
H1    H     H_    0.636834 0.710523 0.223144 0.197893
H2    H     H_    0.787647 0.761084 0.648643 0.178922
H3    H     H_    0.883553 0.632699 0.725721 0.129853
H4    H     H_    0.905715 0.841310 0.737765 0.197166
H5    H     H_    0.648503 0.090562 0.105011 0.179345
H6    H     H_    0.488045 0.953424 0.068837 0.186966
H7    H     H_    0.666579 0.020692 0.992100 0.204156
H8    H     H_    0.468088 0.077840 0.829125 0.182422
H9    H     H_    0.286258 0.945495 0.822398 0.193405
H10   H     H_    0.403016 0.954214 0.922497 0.152287
H11   H     H_    0.074230 0.726300 0.846422 0.115862
H12   H     H_    0.345593 0.299346 0.774364 0.200368
H13   H     H_    0.973598 0.573530 0.909965 0.105794
H14   H     H_    0.261439 0.719265 0.958570 0.174238
H15   H     H_    0.126678 0.869958 0.001968 0.284623
H16   H     H_    0.976940 0.682894 0.108249 0.289864
H17   H     H_    0.203720 0.674099 0.115979 0.261215
H18   H     H_    0.089521 0.524734 0.054465 0.227843
H19   H     H_    0.958419 0.075486 0.063742 0.226090
H20   H     H_    0.010545 0.263248 0.022524 0.079658
H21   H     H_    0.029416 0.358559 0.188050 0.251169
H22   H     H_    0.821694 0.302656 0.151916 0.158397
H23   H     H_    0.699806 0.005934 0.488364 0.180729
H24   H     H_    0.823705 0.049272 0.226849 0.250180
H25   H     H_    0.879203 0.201587 0.305423 0.224817
H26   H     H_    0.043448 0.082635 0.254370 0.305067
H27   H     H_    0.300766 0.994180 0.515150 0.182328
H28   H     H_    0.013450 0.381203 0.433214 0.202987
H29   H     H_    0.987303 0.620194 0.565713 0.170400
H30   H     H_    0.353470 0.088299 0.326498 0.181515
H31   H     H_    0.546311 0.186412 0.282336 0.139608
H32   H     H_    0.420925 0.052713 0.212844 0.203117
N1    N     N_2   0.950330 0.457950 0.475660 -0.174844
N2    N     N_2   0.049670 0.542050 0.524340 -0.177715
O1    O     O_R   0.389250 0.738570 0.505970 -0.616564
O2    O     O_3   0.662648 0.753741 0.773238 -0.617199
O3    O     O_3   0.729017 0.866282 0.090715 -0.625204
O4    O     O_3   0.240896 0.135260 0.904501 -0.615692
O5    O     O_3   0.858322 0.795688 0.917586 -0.589077
O6    O     O_3   0.202571 0.148541 0.090743 -0.599625
O7    O     O_R   0.610750 0.261430 0.494030 -0.618264
O8    O     O_R   0.678390 0.711620 0.490370 -0.645533
O9    O     O_R   0.321610 0.288380 0.509630 -0.624310
O10   O     O_R   0.355420 0.513510 0.639950 -0.625117
O11   O     O_R   0.644580 0.486490 0.360050 -0.631041
O12   O     O_R   0.644560 0.486560 0.624350 -0.633216
O13   O     O_R   0.355440 0.513440 0.375650 -0.597101
O14   O     O_3   0.309275 0.262974 0.240195 -0.589151
Zn1   Zn    Zn3+2 0.306940 0.517990 0.510420 0.951930
Zn2   Zn    Zn3+2 0.693060 0.482010 0.489580 0.931920

loop_
_geom_bond_atom_site_label_1
_geom_bond_atom_site_label_2
_ccdc_geom_bond_type
C24   H20   S    
C22   H16   S    
C12   C29   S    
C1    O8    A    
C28   C29   D    
C18   H5    S    
C25   H21   S    
C2    O2    S    
C13   C23   A    
C2    C13   A    
H29   N2    S    
C7    C14   A    
C29   H27   S    
C5    H1    S    
C1    C28   S    
C20   O5    S    
C16   H31   S    
C9    C10   A    
C20   H13   S    
C19   H10   S    
C22   H18   S    
C18   O3    S    
C6    H12   S    
C12   O7    A    
C16   H30   S    
O8    Zn2   S    
C28   H23   S    
C31   O11   A    
C23   O5    S    
C25   H22   S    
C4    C6    A    
C5    C7    A    
O9    Zn1   S    
C6    C8    A    
C25   C26   S    
C16   O14   S    
C14   C23   A    
C2    C4    A    
C18   H7    S    
C32   O14   S    
C30   O10   A    
O12   Zn2   S    
C15   C27   A    
C11   C27   A    
C24   C25   S    
C3    C31   S    
C26   H26   S    
C22   H17   S    
C17   H4    S    
C11   C32   A    
O1    Zn1   S    
C8    C15   A    
C9    C11   A    
C14   O3    S    
C17   H2    S    
O7    Zn2   S    
C20   H11   S    
C24   O6    S    
O13   Zn1   S    
C21   H14   S    
C7    C9    A    
C15   O4    S    
C17   O2    S    
C3    C5    A    
C10   C13   A    
C26   H24   S    
O10   Zn1   S    
H28   N1    S    
C31   O13   A    
C17   H3    S    
C18   H6    S    
N2    Zn1   S    
N1    Zn2   S    
O11   Zn2   S    
C24   H19   S    
C1    O1    A    
C3    C32   A    
C26   H25   S    
C19   H8    S    
C30   O12   A    
C20   C21   S    
C8    C10   A    
N1    N2    D    
C12   O9    A    
C19   O4    S    
C16   H32   S    
C21   C22   S    
C4    C30   S    
C27   O6    S    
C19   H9    S    
C21   H15   S    
