data_mof_unit_49825.cif
_audit_creation_date              2012-10-26T18:49:36-0400
_audit_creation_method            fapswitch 2.2
_symmetry_space_group_name_H-M    P1
_symmetry_Int_Tables_number       1
_space_group_crystal_system       triclinic
_cell_length_a                    19.369157
_cell_length_b                    11.04106
_cell_length_c                    9.806983
_cell_angle_alpha                 111.079091
_cell_angle_beta                  98.156701
_cell_angle_gamma                 91.035727
_cell_volume                      1931.71622484

loop_
_atom_site_label
_atom_site_type_symbol
_atom_type_description
_atom_site_fract_x
_atom_site_fract_y
_atom_site_fract_z
_atom_type_partial_charge
C1    C     C_R   0.494981 0.254082 0.440652 0.558067
C2    C     C_R   0.632668 0.501030 0.498930 0.563936
C3    C     C_R   0.262169 0.504129 0.628168 0.261558
C4    C     C_R   0.737831 0.495868 0.371831 0.261556
C5    C     C_R   0.189380 0.497027 0.620293 -0.115410
C6    C     C_R   0.810620 0.502969 0.379708 -0.115411
C7    C     C_R   0.144793 0.486143 0.489899 -0.019106
C8    C     C_R   0.855207 0.513856 0.510103 -0.019105
C9    C     C_R   0.173597 0.475417 0.361746 -0.025970
C10   C     C_R   0.826403 0.524585 0.638256 -0.025971
C11   C     C_R   0.246267 0.482228 0.369828 -0.185804
C12   C     C_R   0.505019 0.745918 0.559348 0.558066
C13   C     C_R   0.753733 0.517775 0.630174 -0.185804
C14   C     C_R   0.291075 0.496062 0.501257 0.004262
C15   C     C_R   0.708924 0.503937 0.498743 0.004263
C16   C     C_R   0.930841 0.508480 0.506842 0.337895
C17   C     C_R   0.069159 0.491519 0.493160 0.337894
C18   C     C_3   0.305920 0.632551 0.865818 -0.110505
C19   C     C_3   0.694081 0.367446 0.134181 -0.110506
C20   C     C_R   0.130003 0.446668 0.214982 0.057005
C21   C     C_R   0.138679 0.525424 0.132567 -0.099187
C22   C     C_R   0.100244 0.494061 0.990946 -0.103189
C23   C     C_2   0.492221 0.114831 0.407145 -0.127694
C24   C     C_R   0.053349 0.383537 0.930115 -0.083426
C25   C     C_R   0.044250 0.304902 0.011342 -0.118992
C26   C     C_R   0.082524 0.335893 0.153027 -0.070469
C27   C     C_R   0.869997 0.553334 0.785019 0.057005
C28   C     C_R   0.917475 0.664110 0.846976 -0.070470
C29   C     C_R   0.955750 0.695100 0.988660 -0.118991
C30   C     C_R   0.946653 0.616463 0.069885 -0.083425
C31   C     C_R   0.899758 0.505938 0.009053 -0.103188
C32   C     C_R   0.861322 0.474576 0.867433 -0.099185
C33   C     C_2   0.507779 0.885169 0.592854 -0.127694
C34   C     C_2   0.501325 0.069548 0.516691 -0.159913
C35   C     C_2   0.498675 0.930452 0.483309 -0.159913
C36   C     C_2   0.506106 0.510411 0.081299 -0.025439
C37   C     C_2   0.493893 0.489592 0.918701 -0.025440
C38   C     C_R   0.367332 0.498969 0.501070 0.563935
Cu1   Cu    Cu3+1 0.512140 0.521810 0.644910 0.948858
Cu2   Cu    Cu3+1 0.487860 0.478190 0.355090 0.948858
H1    H     H_    0.167697 0.501370 0.717579 0.128956
H2    H     H_    0.546932 0.582444 0.154280 0.174042
H3    H     H_    0.568889 0.622195 0.934440 0.208068
H4    H     H_    0.431112 0.377802 0.065559 0.208068
H5    H     H_    0.322145 0.710027 0.826486 0.120178
H6    H     H_    0.345118 0.638168 0.962501 0.142955
H7    H     H_    0.254484 0.650748 0.904497 0.097747
H8    H     H_    0.654886 0.361832 0.037495 0.142954
H9    H     H_    0.677851 0.289971 0.173509 0.120181
H10   H     H_    0.745518 0.349247 0.095510 0.097746
H11   H     H_    0.175121 0.610988 0.178032 0.101807
H12   H     H_    0.832304 0.498624 0.282421 0.128956
H13   H     H_    0.106477 0.555936 0.928808 0.115649
H14   H     H_    0.023470 0.359490 0.820735 0.161104
H15   H     H_    0.007706 0.219617 0.964259 0.106879
H16   H     H_    0.075799 0.272815 0.213709 0.113761
H17   H     H_    0.924198 0.727191 0.786295 0.113760
H18   H     H_    0.992293 0.780385 0.035742 0.106880
H19   H     H_    0.976532 0.640508 0.179264 0.161104
H20   H     H_    0.893526 0.444060 0.071190 0.115649
H21   H     H_    0.824882 0.389010 0.821966 0.101807
H22   H     H_    0.267795 0.472884 0.270647 0.144732
H23   H     H_    0.732205 0.527121 0.729355 0.144732
H24   H     H_    0.489181 0.864727 0.368057 0.154169
H25   H     H_    0.510819 0.135273 0.631943 0.154169
H26   H     H_    0.517284 0.951173 0.707911 0.099149
H27   H     H_    0.482716 0.048827 0.292088 0.099149
H28   H     H_    0.453066 0.417560 0.845721 0.174044
N1    N     N_R   0.029286 0.551571 0.414975 -0.231928
N2    N     N_R   0.970714 0.448428 0.585028 -0.231928
N3    N     N_R   0.961294 0.559263 0.421019 -0.259804
N4    N     N_R   0.038706 0.440736 0.578984 -0.259806
N5    N     N_2   0.469620 0.445420 0.137370 -0.356821
N6    N     N_2   0.530380 0.554580 0.862630 -0.356822
O1    O     O_R   0.506480 0.332340 0.577400 -0.499055
O2    O     O_3   0.695428 0.492436 0.244215 -0.555836
O3    O     O_R   0.493520 0.667660 0.422600 -0.499056
O4    O     O_R   0.485980 0.295500 0.332650 -0.495318
O5    O     O_R   0.514020 0.704500 0.667350 -0.495317
O6    O     O_R   0.410390 0.518410 0.622410 -0.445444
O7    O     O_R   0.589610 0.481590 0.377590 -0.445443
O8    O     O_R   0.389900 0.481570 0.377660 -0.511464
O9    O     O_R   0.610100 0.518430 0.622340 -0.511465
O10   O     O_3   0.304572 0.507561 0.755784 -0.555837

loop_
_geom_bond_atom_site_label_1
_geom_bond_atom_site_label_2
_ccdc_geom_bond_type
C10   C27   S    
C37   N6    D    
C37   H28   S    
C17   N1    A    
C36   H2    S    
C11   H22   S    
C18   H7    S    
C28   H17   S    
C20   C26   A    
C19   O2    S    
C32   H21   S    
C30   C31   A    
C11   C14   A    
C24   H14   S    
C12   O5    A    
Cu2   N5    S    
C34   C35   S    
Cu1   N6    S    
C23   H27   S    
N1    N3    A    
C7    C17   S    
C18   O10   S    
C35   H24   S    
Cu1   O1    S    
H3    N6    S    
C8    C16   S    
C21   C22   A    
C12   O3    A    
C1    O4    A    
C2    O9    A    
C16   N3    A    
C18   H6    S    
C34   H25   S    
C33   H26   S    
C22   H13   S    
C1    O1    A    
Cu2   O8    S    
C16   N2    A    
C24   C25   A    
C4    C6    A    
Cu1   Cu2   S    
C5    C7    A    
C19   H8    S    
C6    C8    A    
C25   C26   A    
Cu1   O5    S    
C31   H20   S    
C29   C30   A    
C14   C38   S    
C19   H9    S    
C9    C20   S    
C31   C32   A    
C13   H23   S    
C23   C34   D    
C30   H19   S    
C20   C21   A    
C2    C15   S    
C9    C11   A    
C3    C14   A    
C8    C10   A    
C1    C23   S    
C13   C15   A    
Cu2   O4    S    
C18   H5    S    
C21   H11   S    
C7    C9    A    
C5    H1    S    
C28   C29   A    
C27   C32   A    
Cu2   O7    S    
C25   H15   S    
C3    C5    A    
C10   C13   A    
C26   H16   S    
Cu1   O6    S    
C4    C15   A    
Cu1   O9    S    
C19   H10   S    
C38   O6    A    
C33   C35   D    
C22   C24   A    
H4    N5    S    
C4    O2    S    
C36   N5    D    
C29   H18   S    
C17   N4    A    
C36   C37   S    
C3    O10   S    
Cu2   O3    S    
C2    O7    A    
N2    N4    A    
C6    H12   S    
C12   C33   S    
C38   O8    A    
C27   C28   A    
