data_mof_unit_32829.cif
_audit_creation_date              2012-12-10T17:22:13-0500
_audit_creation_method            fapswitch 2.2
_symmetry_space_group_name_H-M    P1
_symmetry_Int_Tables_number       1
_space_group_crystal_system       triclinic
_cell_length_a                    15.904502
_cell_length_b                    10.859537
_cell_length_c                    9.60064
_cell_angle_alpha                 87.985613
_cell_angle_beta                  89.542354
_cell_angle_gamma                 92.918783
_cell_volume                      1654.92569722

loop_
_atom_site_label
_atom_site_type_symbol
_atom_type_description
_atom_site_fract_x
_atom_site_fract_y
_atom_site_fract_z
_atom_type_partial_charge
C1    C     C_R   0.506205 0.262744 0.502898 0.846339
C2    C     C_3   0.949824 0.491724 0.654574 0.058733
C3    C     C_3   0.916702 0.499837 0.500818 0.163907
C4    C     C_3   0.956667 0.621039 0.427549 -0.090508
C5    C     C_3   0.053929 0.622506 0.440086 -0.468847
C6    C     C_1   0.824354 0.502734 0.499345 0.020653
C7    C     C_1   0.175672 0.499390 0.501595 0.014224
C8    C     C_1   0.251070 0.500321 0.501532 -0.186036
C9    C     C_R   0.490105 0.094668 0.769385 0.229017
C10   C     C_R   0.436671 0.033104 0.869028 -0.162514
C11   C     C_R   0.390464 0.925994 0.835080 -0.184002
C12   C     C_R   0.340467 0.500151 0.500535 0.809193
C13   C     C_R   0.404885 0.872702 0.707538 -0.129856
C14   C     C_R   0.460387 0.932830 0.608460 -0.002055
C15   C     C_R   0.488167 0.055581 0.629541 0.036621
C16   C     C_R   0.516236 0.128643 0.510545 -0.227216
C17   C     C_R   0.547396 0.068738 0.393956 0.182862
C18   C     C_R   0.547526 0.940307 0.398592 0.220517
C19   C     C_R   0.496084 0.871996 0.496317 -0.194641
C20   C     C_R   0.624133 0.645363 0.134389 -0.148188
C21   C     C_R   0.691273 0.702899 0.057666 0.194191
C22   C     C_R   0.686598 0.710207 0.914114 -0.243980
C23   C     C_R   0.496673 0.737337 0.498355 0.836229
C24   C     C_R   0.619862 0.651581 0.847550 -0.176993
C25   C     C_R   0.559457 0.573631 0.921065 0.220986
C26   C     C_R   0.560259 0.572462 0.070371 0.151083
C27   C     C_R   0.442154 0.431802 0.077493 -0.061142
C28   C     C_R   0.441878 0.432386 0.929630 -0.091716
C29   C     C_R   0.659561 0.501058 0.499481 0.795216
C30   C     C_3   0.046647 0.472705 0.652768 0.025349
C31   C     C_3   0.047291 0.386111 0.407774 0.460773
C32   C     C_3   0.946515 0.389471 0.412106 -0.063882
C33   C     C_1   0.748979 0.502590 0.498734 -0.214827
C34   C     C_3   0.083331 0.496099 0.500557 0.107951
Cu1   Cu    Cu3+1 0.499990 0.499990 0.640660 0.926696
Cu2   Cu    Cu3+1 0.500010 0.500010 0.359340 0.930060
H1    H     H_    0.940430 0.581695 0.702019 0.172472
H2    H     H_    0.941377 0.619622 0.314537 0.160949
H3    H     H_    0.434959 0.063616 0.975224 0.132395
H4    H     H_    0.349403 0.878391 0.912115 0.143020
H5    H     H_    0.373976 0.783892 0.688264 0.149712
H6    H     H_    0.395121 0.375164 0.135449 0.139041
H7    H     H_    0.056377 0.375171 0.678469 0.144028
H8    H     H_    0.622986 0.662628 0.242234 0.225751
H9    H     H_    0.734985 0.761697 0.852940 0.153636
H10   H     H_    0.619632 0.670284 0.738377 0.208498
H11   H     H_    0.394811 0.375840 0.877345 0.146147
H12   H     H_    0.927724 0.415385 0.303812 0.139280
H13   H     H_    0.076517 0.699548 0.503882 0.214859
H14   H     H_    0.083816 0.647141 0.337344 0.155235
N1    N     N_R   0.500800 0.501210 0.147910 -0.192563
N2    N     N_R   0.500820 0.501290 0.852040 -0.196251
O1    O     O_R   0.499990 0.319640 0.618810 -0.574238
O2    O     O_R   0.500000 0.319660 0.381240 -0.578754
O3    O     O_R   0.379430 0.499990 0.618840 -0.575482
O4    O     O_R   0.379440 0.500020 0.381260 -0.575161
O5    O     O_R   0.500000 0.680340 0.618760 -0.604055
O6    O     O_R   0.500010 0.680360 0.381190 -0.573447
O7    O     O_R   0.620560 0.499980 0.618740 -0.588353
O8    O     O_R   0.620570 0.500010 0.381160 -0.603995
N3    N     N_2   0.902985 0.395671 0.738491 -0.437153
H15   H     H_    0.934891 0.319969 0.771446 0.239157
C35   C     C_3   0.846503 0.437217 0.844156 -0.698865
H16   H     H_    0.807297 0.357390 0.888052 0.232634
H17   H     H_    0.803846 0.505469 0.798643 0.249886
H18   H     H_    0.883342 0.479750 0.929514 0.214060
N4    N     N_2   0.091052 0.535467 0.765514 -0.419329
H19   H     H_    0.071581 0.501813 0.863020 0.250143
C36   C     C_3   0.109444 0.667431 0.761628 -0.684428
H20   H     H_    0.133777 0.695457 0.864560 0.214326
H21   H     H_    0.052083 0.718442 0.740537 0.208475
H22   H     H_    0.160165 0.692979 0.684560 0.234284
N5    N     N_2   0.589588 0.134625 0.280815 -0.429647
H23   H     H_    0.553096 0.181085 0.210264 0.265839
C37   C     C_3   0.672844 0.188257 0.306620 -0.675200
H24   H     H_    0.672416 0.290236 0.297215 0.242247
H25   H     H_    0.717376 0.156170 0.227767 0.219779
H26   H     H_    0.695434 0.160962 0.412091 0.225353
C38   C     C_3   0.563438 0.172155 0.823407 -0.817701
H27   H     H_    0.597011 0.117537 0.903473 0.212688
H28   H     H_    0.610178 0.199808 0.740123 0.235502
H29   H     H_    0.541336 0.254906 0.873010 0.242585
N6    N     N_2   0.613160 0.882325 0.329253 -0.410224
H30   H     H_    0.627042 0.916280 0.229621 0.279751
C39   C     C_3   0.686900 0.866484 0.415431 -0.716778
H31   H     H_    0.743542 0.912731 0.364454 0.226261
H32   H     H_    0.696507 0.766804 0.432090 0.210840
H33   H     H_    0.680314 0.906192 0.520139 0.225192
C40   C     C_3   0.768423 0.756382 0.126634 -0.896525
H34   H     H_    0.772196 0.722077 0.236232 0.236434
H35   H     H_    0.825651 0.726874 0.072568 0.228085
H36   H     H_    0.768597 0.858638 0.121140 0.235620
N7    N     N_2   0.075549 0.409192 0.262055 -0.442775
H37   H     H_    0.057209 0.490041 0.215217 0.226272
C41   C     C_3   0.064621 0.308691 0.166715 -0.701695
H38   H     H_    0.090285 0.339085 0.062496 0.214674
H39   H     H_    0.996913 0.281320 0.155253 0.220303
H40   H     H_    0.099375 0.227555 0.202219 0.246814
N8    N     N_2   0.085152 0.270614 0.457042 -0.407920
H41   H     H_    0.147743 0.263124 0.430960 0.258510
C42   C     C_3   0.050322 0.168663 0.544747 -0.732043
H42   H     H_    0.020866 0.096356 0.479643 0.237932
H43   H     H_    0.006026 0.197345 0.624242 0.220999
H44   H     H_    0.102212 0.125702 0.602437 0.214369
C43   C     C_3   0.893364 0.267358 0.433343 -0.836784
H45   H     H_    0.829055 0.279660 0.393540 0.217404
H46   H     H_    0.918865 0.194096 0.370305 0.242438
H47   H     H_    0.885229 0.237675 0.543948 0.257284
C44   C     C_3   0.922139 0.742839 0.476960 -0.890432
H48   H     H_    0.936918 0.759785 0.587315 0.229952
H49   H     H_    0.950680 0.821491 0.412763 0.238551
H50   H     H_    0.853038 0.743430 0.463467 0.235936

loop_
_geom_bond_atom_site_label_1
_geom_bond_atom_site_label_2
_ccdc_geom_bond_type
C23   O6    A    
C4    C44   S    
C35   H17   S    
C28   H11   S    
N7    H37   S    
Cu1   O1    S    
C41   H38   S    
C11   C13   A    
N5    H23   S    
Cu1   Cu2   S    
C2    H1    S    
C37   H24   S    
C3    C6    S    
C13   H5    S    
C41   H40   S    
C7    C8    T    
C21   C40   S    
C39   H31   S    
C43   H46   S    
C42   H42   S    
Cu2   O6    S    
C36   H20   S    
C44   H49   S    
C15   C16   A    
C29   C33   S    
Cu1   O7    S    
C18   C19   A    
C9    C38   S    
C36   H21   S    
C1    O1    A    
C13   C14   A    
N8    H41   S    
C16   C17   A    
C31   N8    S    
C40   H35   S    
C9    C10   A    
C30   N4    S    
C2    N3    S    
N3    H15   S    
C35   H18   S    
C42   H43   S    
C21   C22   A    
C17   N5    S    
N5    C37   S    
C5    H13   S    
C11   H4    S    
C20   H8    S    
C27   N1    A    
C18   N6    S    
C39   H32   S    
C43   H47   S    
C30   C34   S    
Cu1   O3    S    
N4    H19   S    
C29   O7    A    
C24   C25   A    
C44   H50   S    
C38   H28   S    
C25   C26   A    
C31   N7    S    
C38   H27   S    
C10   H3    S    
N4    C36   S    
C36   H22   S    
C19   C23   S    
C1    O2    A    
Cu2   O4    S    
N6    H30   S    
C29   O8    A    
C8    C12   S    
C5    C34   S    
N3    C35   S    
C17   C18   A    
C31   C34   S    
C1    C16   S    
C40   H36   S    
C37   H25   S    
C12   O4    A    
Cu2   N1    S    
N8    C42   S    
C4    H2    S    
C42   H44   S    
C32   C43   S    
C7    C34   S    
C22   C24   A    
C30   H7    S    
C3    C4    S    
Cu1   N2    S    
C39   H33   S    
C23   O5    A    
N6    C39   S    
C14   C19   A    
C31   C32   S    
C4    C5    S    
Cu2   O8    S    
C38   H29   S    
C41   H39   S    
C43   H45   S    
C6    C33   T    
C2    C30   S    
Cu1   O5    S    
C24   H10   S    
C2    C3    S    
C9    C15   A    
C25   N2    A    
C26   N1    A    
C28   N2    A    
C27   H6    S    
C32   H12   S    
C20   C26   A    
C3    C32   S    
C5    H14   S    
C37   H26   S    
C12   O3    A    
Cu2   O2    S    
C10   C11   A    
C35   H16   S    
C22   H9    S    
C20   C21   A    
N7    C41   S    
C27   C28   A    
C14   C15   A    
C40   H34   S    
C44   H48   S    
