data_mof_unit_11411.cif
_audit_creation_date              2012-12-11T15:15:41-0500
_audit_creation_method            fapswitch 2.2
_symmetry_space_group_name_H-M    P1
_symmetry_Int_Tables_number       1
_space_group_crystal_system       triclinic
_cell_length_a                    20.553894
_cell_length_b                    22.960123
_cell_length_c                    6.927542
_cell_angle_alpha                 90.000163
_cell_angle_beta                  86.966864
_cell_angle_gamma                 90.00043
_cell_volume                      3264.6652809

loop_
_atom_site_label
_atom_site_type_symbol
_atom_type_description
_atom_site_fract_x
_atom_site_fract_y
_atom_site_fract_z
_atom_type_partial_charge
O1    O     O_R   0.387100 0.552640 0.378490 -0.526516
O2    O     O_R   0.612900 0.052640 0.621510 -0.526515
O3    O     O_R   0.249610 0.559600 0.072250 -0.544067
O4    O     O_R   0.750390 0.059600 0.927750 -0.544065
O5    O     O_R   0.249120 0.447360 0.902040 -0.536246
O6    O     O_R   0.750880 0.947360 0.097960 -0.536234
C1    C     C_R   0.227002 0.573552 0.244134 0.733843
C2    C     C_R   0.772998 0.073552 0.755867 0.733867
O7    O     O_R   0.386610 0.559560 0.048860 -0.535546
O8    O     O_R   0.613390 0.059560 0.951140 -0.535546
O9    O     O_R   0.387100 0.447320 0.878470 -0.543835
O10   O     O_R   0.612900 0.947320 0.121530 -0.543836
C3    C     C_R   0.403471 0.578542 0.216581 0.727221
C4    C     C_R   0.596526 0.078541 0.783420 0.727217
O11   O     O_R   0.249120 0.552680 0.402050 -0.530819
O12   O     O_R   0.750880 0.052680 0.597950 -0.530811
O13   O     O_3   0.318110 0.463180 0.223790 -0.372031
O14   O     O_3   0.681890 0.963180 0.776210 -0.372039
V1    V     V_3+5 0.318110 0.506830 0.948930 1.477582
V2    V     V_3+5 0.681890 0.006830 0.051070 1.477590
O15   O     O_R   0.386610 0.440400 0.548840 -0.540358
O16   O     O_R   0.613390 0.940400 0.451160 -0.540362
C5    C     C_R   0.407529 0.425321 0.714641 0.681653
C6    C     C_R   0.592471 0.925322 0.285359 0.681653
O17   O     O_R   0.249610 0.440440 0.572240 -0.541223
O18   O     O_R   0.750390 0.940440 0.427760 -0.541230
C7    C     C_R   0.228643 0.424719 0.744724 0.679314
C8    C     C_R   0.771357 0.924719 0.255274 0.679345
V3    V     V_3+5 0.318110 0.493170 0.448930 1.479774
V4    V     V_3+5 0.681890 0.993170 0.551070 1.479762
O19   O     O_3   0.318110 0.536820 0.723940 -0.349248
O20   O     O_3   0.681890 0.036820 0.276060 -0.349248
C9    C     C_R   0.177947 0.378289 0.760735 -0.150124
C10   C     C_R   0.822054 0.878289 0.239253 -0.150131
C11   C     C_R   0.141031 0.366382 0.599688 -0.159507
C12   C     C_R   0.858945 0.866355 0.400333 -0.159563
C13   C     C_R   0.092752 0.323506 0.607740 -0.150578
C14   C     C_R   0.907226 0.823480 0.392261 -0.150597
C15   C     C_R   0.078840 0.292063 0.778763 -0.025542
C16   C     C_R   0.921169 0.792071 0.221184 -0.025505
C17   C     C_R   0.114575 0.304388 0.941074 -0.130962
C18   C     C_R   0.885458 0.804424 0.058843 -0.130948
C19   C     C_R   0.165219 0.345242 0.932394 0.337020
C20   C     C_R   0.834809 0.845272 0.067541 0.337000
C21   C     C_R   0.879897 0.201146 0.881722 0.223564
C22   C     C_R   0.120097 0.701143 0.118303 0.223718
C23   C     C_R   0.832590 0.157356 0.895261 -0.189644
C24   C     C_R   0.167404 0.657353 0.104750 -0.189702
C25   C     C_R   0.864243 0.125108 0.570802 -0.138147
C26   C     C_R   0.135762 0.625106 0.429219 -0.138131
C27   C     C_R   0.912410 0.168176 0.558049 -0.121512
C28   C     C_R   0.087596 0.668173 0.441987 -0.121652
C29   C     C_R   0.920775 0.206201 0.713072 0.154870
C30   C     C_R   0.079222 0.706196 0.286966 0.154833
C31   C     C_2   0.028271 0.245076 0.789052 0.358329
C32   C     C_2   0.971747 0.745090 0.210851 0.358330
C33   C     C_2   0.972487 0.250872 0.696890 -0.169145
C34   C     C_2   0.027504 0.750861 0.303167 -0.169143
C35   C     C_R   0.824252 0.118900 0.740394 -0.077534
C36   C     C_R   0.175747 0.618898 0.259615 -0.077528
H1    H     H_    0.149508 0.390264 0.465905 0.175161
H2    H     H_    0.850449 0.890214 0.534155 0.175278
H3    H     H_    0.801477 0.154234 0.026010 0.167928
H4    H     H_    0.198513 0.654232 0.973994 0.167924
H5    H     H_    0.858784 0.096277 0.448970 0.138375
H6    H     H_    0.141226 0.596276 0.551051 0.138374
H7    H     H_    0.963729 0.289069 0.609660 0.121119
H8    H     H_    0.036228 0.789023 0.390593 0.121111
H9    H     H_    0.104434 0.280991 0.075136 0.139787
H10   H     H_    0.895621 0.781054 0.924738 0.139768
H11   H     H_    0.066902 0.314560 0.478833 0.133571
H12   H     H_    0.933056 0.814514 0.521195 0.133553
H13   H     H_    0.943611 0.171570 0.427577 0.157133
H14   H     H_    0.056398 0.671566 0.572468 0.157155
C37   C     C_R   0.575586 0.364798 0.637402 -0.138950
C38   C     C_R   0.424416 0.864798 0.362638 -0.138949
H15   H     H_    0.532197 0.449175 0.621006 0.109583
H16   H     H_    0.467807 0.949174 0.379038 0.109587
H17   H     H_    0.662267 0.284193 0.568064 0.162248
H18   H     H_    0.337736 0.784192 0.431987 0.162249
H19   H     H_    0.623036 0.381105 0.587451 0.125065
H20   H     H_    0.376968 0.881103 0.412614 0.125068
C39   C     C_R   0.461925 0.383899 0.713710 -0.036727
C40   C     C_R   0.538074 0.883900 0.286293 -0.036728
C41   C     C_R   0.482790 0.102345 0.861589 -0.153907
C42   C     C_R   0.517205 0.602348 0.138393 -0.153899
C43   C     C_R   0.430946 0.140116 0.896651 -0.116691
C44   C     C_R   0.569048 0.640120 0.103321 -0.116703
C45   C     C_R   0.437808 0.199226 0.858752 -0.139365
C46   C     C_R   0.562186 0.699230 0.141226 -0.139372
C47   C     C_R   0.496842 0.222431 0.778129 0.060132
C48   C     C_R   0.503154 0.722433 0.221867 0.060138
C49   C     C_R   0.550435 0.183084 0.734253 0.025085
C50   C     C_R   0.449561 0.683086 0.265751 0.025078
C51   C     C_R   0.503938 0.283756 0.739823 0.075465
C52   C     C_R   0.496059 0.783757 0.260182 0.075465
C53   C     C_R   0.565741 0.305258 0.673913 0.099462
C54   C     C_R   0.434259 0.805258 0.326115 0.099460
C55   C     C_R   0.616677 0.267118 0.630801 -0.184911
C56   C     C_R   0.383324 0.767118 0.369233 -0.184911
C57   C     C_R   0.608388 0.207219 0.645481 0.083681
C58   C     C_R   0.391611 0.707219 0.354538 0.083680
C59   C     C_R   0.451819 0.324677 0.759056 -0.207387
C60   C     C_R   0.548178 0.824679 0.240935 -0.207397
C61   C     C_R   0.523996 0.403662 0.655959 -0.164755
C62   C     C_R   0.476006 0.903662 0.344072 -0.164756
C63   C     C_R   0.542990 0.122276 0.783788 -0.076145
C64   C     C_R   0.457007 0.622278 0.216210 -0.076146
H21   H     H_    0.402588 0.311786 0.800019 0.089086
H22   H     H_    0.597408 0.811789 0.199949 0.089080
H23   H     H_    0.476261 0.056866 0.900164 0.108614
H24   H     H_    0.523734 0.556870 0.099814 0.108614
H25   H     H_    0.396041 0.225886 0.897554 0.109320
H26   H     H_    0.603951 0.725892 0.102415 0.109308
H27   H     H_    0.385191 0.123554 0.958981 0.124089
H28   H     H_    0.614801 0.623561 0.040975 0.124081
I1    I     I_    0.680169 0.164397 0.469618 -0.378524
I2    I     I_    0.319830 0.664394 0.530398 -0.378523
I3    I     I_    0.885266 0.259924 0.116787 -0.423204
I4    I     I_    0.114730 0.759926 0.883251 -0.423107
O21   O     O_3   0.201853 0.350085 0.092471 -0.649907
H29   H     H_    0.248058 0.354336 0.046617 0.286097
O22   O     O_3   0.798198 0.850140 0.907424 -0.649944
H30   H     H_    0.751985 0.854357 0.953232 0.286102
O23   O     O_3   0.036984 0.195127 0.896648 -0.629982
H31   H     H_    0.083137 0.193120 0.930545 0.288857
O24   O     O_3   0.963074 0.695178 0.103034 -0.629994
H32   H     H_    0.916925 0.693164 0.069098 0.288840

loop_
_geom_bond_atom_site_label_1
_geom_bond_atom_site_label_2
_ccdc_geom_bond_type
C60   H22   S    
O13   V3    S    
C37   C53   A    
O4    C2    A    
V1    O19   S    
O22   H30   S    
C15   C17   A    
C13   H11   S    
C7    C9    S    
O9    V1    S    
C5    C39   S    
H17   C55   S    
C11   C13   A    
C28   H14   S    
C2    C35   S    
C23   H3    S    
C42   C44   A    
C24   H4    S    
C38   C54   A    
C18   H10   S    
C32   O24   S    
O7    C3    A    
C9    C11   A    
O5    C7    A    
C46   C48   A    
O7    V1    S    
O6    C8    A    
C31   O23   S    
C28   C30   A    
C25   C27   A    
C52   C54   A    
C26   C28   A    
O3    V1    S    
O14   V4    S    
C45   C47   A    
C19   O21   S    
C43   H27   S    
C58   I2    S    
V2    O20   S    
C24   C36   A    
C15   C31   S    
C21   I3    S    
C16   C18   A    
C8    C10   S    
C2    O12   A    
H18   C56   S    
C17   C19   A    
O10   V2    S    
C18   C20   A    
C33   H7    S    
C3    C64   S    
C12   H2    S    
C48   C50   A    
C53   C55   A    
C51   C59   A    
O11   V3    S    
C14   H12   S    
C21   C23   A    
C48   C52   A    
O17   V3    S    
C45   H25   S    
C23   C35   A    
C41   C43   A    
C9    C19   A    
C10   C20   A    
O8    C4    A    
C49   C57   A    
C29   C33   S    
C37   H19   S    
C1    O11   A    
C16   C32   S    
O15   V3    S    
C39   C61   A    
C27   C29   A    
C44   H28   S    
C42   H24   S    
C25   H5    S    
V4    O20   S    
C47   C49   A    
C40   C62   A    
C50   C64   A    
C22   C30   A    
O1    V3    S    
C22   I4    S    
C11   H1    S    
C26   H6    S    
O21   H29   S    
C39   C59   A    
C34   H8    S    
C4    C63   S    
C55   C57   A    
C44   C46   A    
O18   V4    S    
C54   C56   A    
O15   C5    A    
O23   H31   S    
C40   C60   A    
O16   C6    A    
O1    C3    A    
O2    V4    S    
C38   H20   S    
O24   H32   S    
C1    C36   S    
C17   H9    S    
C56   C58   A    
C30   C34   S    
C52   C60   A    
C38   C62   A    
O16   V4    S    
O18   C8    A    
C42   C64   A    
C27   H13   S    
C41   H23   S    
C51   C53   A    
C37   C61   A    
O5    V1    S    
O17   C7    A    
O6    V2    S    
O10   C6    A    
C20   O22   S    
O3    C1    A    
H15   C61   S    
C25   C35   A    
H16   C62   S    
C59   H21   S    
C57   I1    S    
C31   C33   D    
C6    C40   S    
C26   C36   A    
C13   C15   A    
C49   C63   A    
C12   C14   A    
C14   C16   A    
O8    V2    S    
O9    C5    A    
O13   V1    S    
C10   C12   A    
C32   C34   D    
O14   V2    S    
C46   H26   S    
O2    C4    A    
C21   C29   A    
O4    V2    S    
C22   C24   A    
C50   C58   A    
C47   C51   A    
V3    O19   S    
C43   C45   A    
C41   C63   A    
O12   V4    S    
