data_mof_unit_54487.cif
_audit_creation_date              2012-12-11T17:14:04-0500
_audit_creation_method            fapswitch 2.2
_symmetry_space_group_name_H-M    P1
_symmetry_Int_Tables_number       1
_space_group_crystal_system       triclinic
_cell_length_a                    18.219196
_cell_length_b                    7.105229
_cell_length_c                    12.93698
_cell_angle_alpha                 90.000148
_cell_angle_beta                  72.709786
_cell_angle_gamma                 89.999977
_cell_volume                      1599.034634

loop_
_atom_site_label
_atom_site_type_symbol
_atom_type_description
_atom_site_fract_x
_atom_site_fract_y
_atom_site_fract_z
_atom_type_partial_charge
O1    O     O_R   0.453880 0.506200 0.150010 -0.536288
O2    O     O_R   0.546120 0.006200 0.849990 -0.536287
O3    O     O_R   0.604080 0.177770 0.007280 -0.539357
O4    O     O_R   0.395920 0.677770 0.992720 -0.539358
C1    C     C_R   0.635929 0.344472 0.001916 0.731972
C2    C     C_R   0.364071 0.844472 0.998084 0.731971
O5    O     O_R   0.458010 0.176640 0.159130 -0.542253
O6    O     O_R   0.541990 0.676640 0.840870 -0.542253
O7    O     O_R   0.399010 0.004010 0.002930 -0.535556
O8    O     O_R   0.600990 0.504010 0.997070 -0.535556
C3    C     C_R   0.444228 0.344754 0.201736 0.690767
C4    C     C_R   0.555772 0.844754 0.798264 0.690767
O9    O     O_3   0.480810 0.338440 0.948570 -0.372999
O10   O     O_3   0.519190 0.838440 0.051430 -0.372999
V1    V     V_3+5 0.503560 0.064490 0.009540 1.415466
V2    V     V_3+5 0.496440 0.564490 0.990460 1.415466
C5    C     C_R   0.570423 0.853319 0.503646 -0.149715
C6    C     C_R   0.429578 0.353325 0.496354 -0.149715
H1    H     H_    0.477297 0.858052 0.651321 0.104826
H2    H     H_    0.522704 0.358057 0.348679 0.104825
H3    H     H_    0.530598 0.854012 0.456111 0.138233
H4    H     H_    0.469403 0.354021 0.543888 0.138233
C7    C     C_R   0.587509 0.850862 0.680922 -0.033148
C8    C     C_R   0.412491 0.350864 0.319078 -0.033147
C9    C     C_R   0.941785 0.881309 0.387217 -0.223154
C10   C     C_R   0.058215 0.381296 0.612783 -0.223154
C11   C     C_R   0.909936 0.922542 0.497377 0.323686
C12   C     C_R   0.090064 0.422525 0.502623 0.323688
C13   C     C_R   0.829972 0.949432 0.538307 0.102335
C14   C     C_R   0.170028 0.449421 0.461693 0.102333
C15   C     C_R   0.780924 0.895058 0.474952 -0.009120
C16   C     C_R   0.219076 0.395054 0.525048 -0.009123
C17   C     C_R   0.813673 0.877546 0.360344 -0.022913
C18   C     C_R   0.186327 0.377544 0.639656 -0.022912
C19   C     C_R   0.700125 0.869263 0.521692 0.056202
C20   C     C_R   0.299875 0.369262 0.478308 0.056202
C21   C     C_R   0.651115 0.854644 0.454947 0.084858
C22   C     C_R   0.348885 0.354647 0.545052 0.084859
C23   C     C_R   0.682937 0.842686 0.341772 0.126765
C24   C     C_R   0.317063 0.342688 0.658228 0.126766
C25   C     C_R   0.762731 0.872466 0.294172 0.102057
C26   C     C_R   0.237269 0.372465 0.705828 0.102056
C27   C     C_R   0.666764 0.844698 0.634167 -0.201768
C28   C     C_R   0.333236 0.344698 0.365833 -0.201769
C29   C     C_R   0.539149 0.856675 0.615649 -0.188556
C30   C     C_R   0.460851 0.356679 0.384351 -0.188555
C31   C     C_R   0.896055 0.870068 0.317656 -0.127636
C32   C     C_R   0.103945 0.370064 0.682344 -0.127634
H5    H     H_    0.701543 0.818149 0.687053 0.123034
H6    H     H_    0.298457 0.318148 0.312947 0.123033
H7    H     H_    0.003420 0.867759 0.352688 0.133853
H8    H     H_    0.996580 0.367741 0.647311 0.133857
C33   C     C_1   0.216308 0.858894 0.000267 -0.190051
C34   C     C_1   0.783692 0.358894 0.999732 -0.190051
C35   C     C_1   0.283625 0.852550 0.998983 -0.191176
C36   C     C_1   0.716375 0.352550 0.001017 -0.191176
O11   O     O_R   0.899030 0.205490 0.002790 -0.537976
O12   O     O_R   0.100970 0.705490 0.997210 -0.537976
O13   O     O_R   0.042000 0.536370 0.840840 -0.542817
O14   O     O_R   0.958000 0.036370 0.159160 -0.542817
C37   C     C_R   0.061675 0.369538 0.798811 0.725971
C38   C     C_R   0.938325 0.869539 0.201189 0.725973
O15   O     O_R   0.895930 0.535070 0.992690 -0.542069
O16   O     O_R   0.104070 0.035070 0.007310 -0.542069
O17   O     O_R   0.953870 0.707520 0.150040 -0.537690
O18   O     O_R   0.046130 0.207520 0.849960 -0.537690
C39   C     C_R   0.864180 0.366820 0.998615 0.729774
C40   C     C_R   0.135820 0.866820 0.001385 0.729773
O19   O     O_3   0.019200 0.374340 0.051340 -0.373684
O20   O     O_3   0.980800 0.874340 0.948660 -0.373685
V3    V     V_3+5 0.996440 0.648350 0.990470 1.396228
V4    V     V_3+5 0.003560 0.148350 0.009530 1.396227
C41   C     C_3   0.632125 0.787034 0.272264 -0.767821
H9    H     H_    0.665527 0.728861 0.192570 0.217097
H10   H     H_    0.592824 0.671040 0.311248 0.194415
H11   H     H_    0.597985 0.910037 0.260134 0.207917
C42   C     C_3   0.367876 0.287038 0.727736 -0.767822
H12   H     H_    0.334474 0.228856 0.807427 0.217096
H13   H     H_    0.407180 0.171051 0.688749 0.194416
H14   H     H_    0.402012 0.410044 0.739871 0.207918
C43   C     C_3   0.801543 0.070768 0.639332 -0.806417
H15   H     H_    0.841386 0.189762 0.636821 0.213742
H16   H     H_    0.745458 0.138168 0.645733 0.220851
H17   H     H_    0.798265 0.987304 0.713104 0.198664
C44   C     C_3   0.198454 0.570758 0.360669 -0.806401
H18   H     H_    0.158610 0.689750 0.363182 0.213747
H19   H     H_    0.254539 0.638161 0.354266 0.220846
H20   H     H_    0.201731 0.487294 0.286896 0.198665
N1    N     N_2   0.956764 0.951341 0.567824 -0.530817
H21   H     H_    0.933661 0.902714 0.645882 0.262058
C45   C     C_3   0.039569 0.938705 0.527391 -0.549170
H22   H     H_    0.064941 0.977484 0.592569 0.207232
H23   H     H_    0.062373 0.036694 0.458522 0.205519
H24   H     H_    0.056616 0.793044 0.502569 0.228089
N2    N     N_2   0.043237 0.451313 0.432174 -0.530812
H25   H     H_    0.066336 0.402654 0.354121 0.262055
C46   C     C_3   0.960430 0.438721 0.472611 -0.549165
H26   H     H_    0.935061 0.477507 0.407431 0.207234
H27   H     H_    0.937637 0.536727 0.541475 0.205519
H28   H     H_    0.943372 0.293070 0.497443 0.228088
C47   C     C_3   0.789171 0.932389 0.176747 -0.718332
H29   H     H_    0.741653 0.974880 0.144575 0.201882
H30   H     H_    0.822554 0.063384 0.171069 0.213077
H31   H     H_    0.822048 0.818865 0.124442 0.213901
C48   C     C_3   0.210829 0.432385 0.823254 -0.718333
H32   H     H_    0.258347 0.474873 0.855427 0.201882
H33   H     H_    0.177445 0.563380 0.828933 0.213077
H34   H     H_    0.177952 0.318859 0.875557 0.213902

loop_
_geom_bond_atom_site_label_1
_geom_bond_atom_site_label_2
_ccdc_geom_bond_type
C14   C16   A    
C47   H29   S    
C7    C29   A    
C11   C13   A    
C41   H9    S    
C1    C36   S    
N2    H25   S    
O1    C3    A    
C2    C35   S    
O2    C4    A    
C46   H28   S    
C2    O7    A    
C43   H15   S    
C23   C25   A    
C42   H12   S    
O5    C3    A    
C48   H33   S    
C4    C7    S    
C12   N2    S    
O16   C40   A    
C19   C21   A    
C5    C29   A    
O12   V3    S    
C44   H20   S    
O14   V4    S    
C3    C8    S    
C7    C27   A    
O14   C38   A    
O6    V2    S    
O19   V3    S    
C33   C40   S    
C43   H16   S    
C37   O18   A    
O18   V4    S    
C18   C26   A    
C15   C17   A    
O20   V3    S    
N1    C45   S    
C19   C27   A    
C9    C31   A    
C10   C32   A    
C31   C38   S    
C24   C26   A    
C47   H30   S    
C41   H10   S    
O11   C39   A    
C6    C30   A    
C46   H27   S    
C46   H26   S    
C34   C36   T    
C42   H13   S    
C48   H34   S    
O15   C39   A    
O13   C37   A    
C44   H19   S    
O4    C2    A    
C45   H22   S    
C27   H5    S    
C34   C39   S    
C44   H18   S    
C5    H3    S    
C16   C18   A    
O4    V2    S    
O19   V4    S    
C9    H7    S    
C13   C43   S    
C10   H8    S    
C45   H23   S    
O10   V1    S    
O6    C4    A    
H1    C29   S    
O1    V2    S    
C5    C21   A    
C14   C44   S    
O2    V1    S    
C23   C41   S    
O12   C40   A    
O15   V3    S    
C47   H31   S    
C17   C31   A    
C41   H11   S    
C15   C19   A    
C20   C28   A    
C18   C32   A    
C33   C35   T    
C16   C20   A    
C43   H17   S    
O3    V1    S    
C42   H14   S    
C28   H6    S    
C38   O17   A    
C6    H4    S    
O3    C1    A    
O20   V4    S    
N2    C46   S    
C9    C11   A    
C48   H32   S    
C10   C12   A    
C8    C30   A    
C12   C14   A    
C6    C22   A    
C17   C25   A    
C1    O8    A    
C13   C15   A    
O17   V3    S    
C45   H24   S    
C22   C24   A    
C32   C37   S    
C8    C28   A    
O5    V1    S    
C20   C22   A    
C25   C47   S    
C11   N1    S    
O16   V4    S    
O11   V4    S    
O7    V1    S    
C26   C48   S    
C21   C23   A    
O9    V2    S    
C24   C42   S    
O8    V2    S    
N1    H21   S    
H2    C30   S    
O13   V3    S    
