data_mof_unit_58627.cif
_audit_creation_date              2013-03-05T16:15:21-0500
_audit_creation_method            fapswitch 2.2
_symmetry_space_group_name_H-M    P1
_symmetry_Int_Tables_number       1
_space_group_crystal_system       triclinic
_cell_length_a                    27.770919
_cell_length_b                    10.645156
_cell_length_c                    9.432724
_cell_angle_alpha                 89.477086
_cell_angle_beta                  90.282016
_cell_angle_gamma                 89.963317
_cell_volume                      2788.40568162

loop_
_atom_site_label
_atom_site_type_symbol
_atom_site_description
_atom_site_fract_x
_atom_site_fract_y
_atom_site_fract_z
_atom_type_partial_charge
O1    O     O_R   0.500020 0.316850 0.620870 -0.598588
O2    O     O_R   0.499980 0.683150 0.379130 -0.600190
O3    O     O_R   0.500000 0.316860 0.379090 -0.569853
O4    O     O_R   0.500000 0.683140 0.620910 -0.569132
C1    C     C_R   0.500005 0.259861 0.500691 0.899690
C2    C     C_R   0.499997 0.740143 0.499312 0.899317
O5    O     O_R   0.430270 0.500020 0.620880 -0.557505
O6    O     O_R   0.569730 0.499980 0.379120 -0.558407
O7    O     O_R   0.430250 0.500030 0.379090 -0.520501
O8    O     O_R   0.569750 0.499970 0.620910 -0.520532
C3    C     C_R   0.407470 0.499410 0.499704 0.929461
C4    C     C_R   0.592517 0.499018 0.500449 0.930486
Cu1   Cu    Cu3+1 0.500010 0.499990 0.643150 1.024383
Cu2   Cu    Cu3+1 0.499990 0.500010 0.356850 1.023290
C5    C     C_R   0.177872 0.378926 0.473190 0.620885
C6    C     C_R   0.822075 0.579748 0.590141 0.649864
O9    O     O_2   0.203728 0.279325 0.429430 -0.474959
O10   O     O_2   0.796145 0.668223 0.657193 -0.479087
N1    N     N_R   0.201426 0.487374 0.506290 -0.447580
N2    N     N_R   0.798495 0.492753 0.510298 -0.448558
C7    C     C_R   0.177379 0.592284 0.548694 0.648848
C8    C     C_R   0.822500 0.402197 0.437509 0.628551
C9    C     C_R   0.276733 0.551509 0.389711 0.370299
C10   C     C_R   0.721456 0.431336 0.615699 0.366521
C11   C     C_R   0.327855 0.551292 0.385756 0.217083
C12   C     C_R   0.670435 0.436240 0.616131 0.219530
C13   C     C_R   0.329675 0.436613 0.612124 0.335907
C14   C     C_R   0.671953 0.554216 0.391902 0.334369
C15   C     C_R   0.279264 0.432825 0.610670 -0.293750
C16   C     C_R   0.722456 0.553506 0.397074 -0.288426
C17   C     C_R   0.253072 0.489656 0.501103 0.236726
C18   C     C_R   0.746852 0.493324 0.508037 0.238358
C19   C     C_R   0.101628 0.479432 0.527498 -0.174687
C20   C     C_R   0.898355 0.482834 0.528782 -0.173337
C21   C     C_R   0.127248 0.371420 0.484295 -0.094047
C22   C     C_R   0.872766 0.576727 0.602565 -0.096239
C23   C     C_R   0.101791 0.258655 0.458512 0.154953
C24   C     C_R   0.898327 0.661149 0.690265 0.164451
C25   C     C_R   0.126758 0.591676 0.559075 -0.059072
C26   C     C_R   0.873159 0.394991 0.444198 -0.050752
C27   C     C_R   0.354208 0.496667 0.499541 -0.137104
C28   C     C_R   0.645751 0.495710 0.502155 -0.137741
H1    H     H_    0.259983 0.386414 0.695864 0.170854
H2    H     H_    0.743100 0.599655 0.314561 0.172251
C29   C     C_R   0.974623 0.378209 0.473631 0.033218
C30   C     C_R   0.025372 0.580458 0.590513 0.028451
C31   C     C_R   0.974821 0.571874 0.611248 -0.054056
C32   C     C_R   0.025230 0.367983 0.493894 -0.051240
C33   C     C_R   0.949248 0.477399 0.538393 0.046767
C34   C     C_R   0.050764 0.475713 0.537864 0.046141
C35   C     C_R   0.949321 0.297114 0.383104 -0.313088
C36   C     C_R   0.050587 0.693186 0.612169 -0.303112
C37   C     C_R   0.899137 0.303573 0.368201 0.451314
C38   C     C_R   0.100743 0.699974 0.598480 0.456168
O11   O     O_2   0.797053 0.318970 0.360426 -0.442230
O12   O     O_2   0.202755 0.696099 0.581833 -0.436628
C39   C     C_R   0.051412 0.255579 0.468897 0.318940
C40   C     C_R   0.948734 0.655485 0.699047 0.322867
H3    H     H_    0.968620 0.230754 0.318498 0.192123
H4    H     H_    0.031240 0.778783 0.634748 0.196152
C41   C     C_3   0.500607 0.039264 0.637961 -0.377708
C42   C     C_3   0.499395 0.960756 0.362052 -0.379011
C43   C     C_3   0.539167 0.957747 0.565046 0.341762
C44   C     C_3   0.460836 0.042273 0.434970 0.341783
H5    H     H_    0.501091 0.071467 0.749564 0.178718
H6    H     H_    0.498911 0.928562 0.250446 0.178588
C45   C     C_3   0.499993 0.876310 0.497320 -0.133661
C46   C     C_3   0.500009 0.123704 0.502694 -0.133007
C47   C     C_3   0.461419 0.957862 0.566873 0.352196
C48   C     C_3   0.538584 0.042158 0.433144 0.352328
C49   C     C_3   0.496153 0.613925 0.049669 -0.113401
C50   C     C_3   0.503847 0.386072 0.950329 -0.111334
C51   C     C_3   0.460349 0.548664 0.947940 -0.034014
C52   C     C_3   0.539650 0.451330 0.052060 -0.035493
H7    H     H_    0.426886 0.587533 0.899851 0.163689
H8    H     H_    0.573112 0.412450 0.100144 0.164343
H9    H     H_    0.493726 0.709475 0.095195 0.140930
H10   H     H_    0.506276 0.290525 0.904797 0.141340
N3    N     N_3   0.500040 0.499970 0.858290 -0.178241
N4    N     N_3   0.499960 0.500030 0.141710 -0.178899
C53   C     C_3   0.534950 0.563633 0.951339 0.265873
C54   C     C_3   0.465050 0.436361 0.048662 0.266916
O13   O     O_3   0.355563 0.379067 0.720192 -0.711121
H11   H     H_    0.332946 0.341748 0.789847 0.331565
O14   O     O_3   0.647628 0.614904 0.282919 -0.710226
H12   H     H_    0.671271 0.650534 0.215151 0.334403
O15   O     O_3   0.420478 0.909807 0.633711 -0.704971
H13   H     H_    0.402914 0.984208 0.669068 0.348668
O16   O     O_3   0.579523 0.090236 0.366317 -0.705344
H14   H     H_    0.597090 0.015848 0.330947 0.347960
N5    N     N_3   0.574815 0.635341 0.892291 -0.509672
H15   H     H_    0.595773 0.666366 0.977343 0.215970
H16   H     H_    0.560272 0.715531 0.843862 0.253361
N6    N     N_3   0.425190 0.364639 0.107720 -0.509632
H17   H     H_    0.404248 0.333539 0.022675 0.214340
H18   H     H_    0.439741 0.284491 0.156218 0.253305
N7    N     N_3   0.127000 0.144580 0.426986 -0.464684
H19   H     H_    0.114086 0.110390 0.330434 0.258249
H20   H     H_    0.119458 0.078293 0.506240 0.264423
N8    N     N_3   0.873228 0.750700 0.775587 -0.477455
H21   H     H_    0.881250 0.732557 0.882263 0.257668
H22   H     H_    0.885783 0.840570 0.749640 0.254690
O17   O     O_3   0.644032 0.383097 0.724977 -0.700962
H23   H     H_    0.662862 0.389126 0.814098 0.342867
O18   O     O_3   0.352737 0.604262 0.273752 -0.698697
H24   H     H_    0.333261 0.595081 0.186234 0.340379
O19   O     O_3   0.747697 0.365413 0.716469 -0.698458
H25   H     H_    0.727746 0.295610 0.753662 0.344778
O20   O     O_3   0.248826 0.612229 0.288722 -0.696162
H26   H     H_    0.267460 0.683064 0.248176 0.346419
O21   O     O_3   0.875248 0.221823 0.279035 -0.653566
H27   H     H_    0.898681 0.163600 0.235446 0.327779
O22   O     O_3   0.124543 0.812043 0.621903 -0.659504
H28   H     H_    0.101127 0.877196 0.650903 0.323179
O23   O     O_3   0.029631 0.139039 0.465615 -0.752286
H29   H     H_    0.001447 0.140876 0.529667 0.338051
O24   O     O_3   0.970680 0.725794 0.803311 -0.746504
H30   H     H_    0.998945 0.678098 0.839297 0.338187
O25   O     O_3   0.580712 0.909598 0.629813 -0.714668
H31   H     H_    0.598416 0.983884 0.665211 0.349874
O26   O     O_3   0.419292 0.090446 0.370217 -0.714011
H32   H     H_    0.401582 0.016173 0.334810 0.350292

loop_
_geom_bond_atom_site_label_1
_geom_bond_atom_site_label_2
_geom_bond_distance
_ccdc_geom_bond_type
O15   H13   0.991128 S    
Cu1   N3    2.029351 S    
C54   N6    1.455319 S    
C13   C15   1.400575 A    
O21   H27   0.991675 S    
C41   C46   1.554059 S    
N1    C17   1.435548 S    
C23   N7    1.435537 S    
N7    H19   1.045734 S    
C39   O23   1.381084 S    
C11   O18   1.381472 S    
C32   C39   1.421879 A    
C31   C33   1.413081 A    
O14   H12   0.991774 S    
O5    C3    1.304023 A    
C19   C25   1.417379 A    
C52   H8    1.110174 S    
C42   C45   1.554100 S    
O1    C1    1.290610 A    
C44   C46   1.532151 S    
C21   C23   1.415851 A    
C10   C12   1.417869 A    
C50   N3    1.488184 S    
C25   C38   1.413708 A    
C29   C35   1.405860 A    
O23   H29   0.991396 S    
C38   O22   1.383213 S    
C30   C36   1.405777 A    
C42   C48   1.545838 S    
C14   C28   1.412484 A    
O4    Cu1   1.959009 S    
C41   C43   1.545864 S    
C50   H10   1.109823 S    
C36   H4    1.080905 S    
C24   C40   1.403107 A    
C4    C28   1.478778 S    
O19   H25   0.989885 S    
Cu2   N4    2.029351 S    
O17   H23   0.990428 S    
C42   C44   1.545876 S    
C47   O15   1.397776 S    
O6    C4    1.304989 A    
C37   O21   1.383273 S    
C32   C34   1.413103 A    
C52   N4    1.488370 S    
Cu1   Cu2   2.700583 S    
C15   H1    1.083475 S    
C51   H7    1.110170 S    
C16   H2    1.083325 S    
O2    C2    1.290652 A    
C1    C46   1.449357 S    
C5    C21   1.412550 A    
C49   N4    1.488172 S    
N7    H20   1.045355 S    
C36   C38   1.401333 A    
C9    O20   1.380838 S    
C43   C45   1.532201 S    
C42   H6    1.110121 S    
C50   C52   1.547811 S    
C11   C27   1.416345 A    
N5    H15   1.044967 S    
N3    C53   1.474074 S    
C19   C34   1.416954 A    
C40   O24   1.380941 S    
C45   C47   1.532250 S    
C9    C17   1.401433 A    
C5    N1    1.365153 A    
O7    Cu2   1.949099 S    
C10   C18   1.399856 A    
C12   O17   1.381710 S    
N5    H16   1.044562 S    
C43   O25   1.397739 S    
C13   C27   1.412764 A    
O13   H11   0.991786 S    
C7    C25   1.409696 A    
C43   C48   1.528110 S    
C29   C33   1.414120 A    
C6    N2    1.364674 A    
C8    C26   1.409945 A    
N8    H22   1.045795 S    
C51   N3    1.488361 S    
C10   O19   1.381079 S    
C44   C47   1.528108 S    
C53   N5    1.455311 S    
N6    H18   1.044556 S    
O7    C3    1.304467 A    
O26   H32   0.991086 S    
O3    Cu2   1.959008 S    
O8    C4    1.303165 A    
N4    C54   1.474092 S    
C2    C45   1.449465 S    
N2    C8    1.364133 A    
C20   C26   1.417592 A    
O4    C2    1.292717 A    
O1    Cu1   1.962756 S    
C52   C53   1.525350 S    
C51   C54   1.525360 S    
C49   H9    1.109822 S    
C12   C28   1.416430 A    
C49   C51   1.547826 S    
O22   H28   0.991659 S    
N2    C18   1.434224 S    
C29   C32   1.421382 A    
C41   C47   1.545825 S    
C5    O9    1.349100 S    
C30   C31   1.421238 A    
C20   C33   1.416913 A    
O6    Cu2   1.947074 S    
N1    C7    1.364916 A    
C6    O10   1.349109 S    
O3    C1    1.292721 A    
O8    Cu1   1.949099 S    
C7    O12   1.349366 S    
O25   H31   0.991095 S    
C8    O11   1.349273 S    
O18   H24   0.990330 S    
C30   C34   1.414112 A    
C22   C24   1.415794 A    
C14   C16   1.403125 A    
C15   C17   1.394213 A    
O20   H26   0.989861 S    
C6    C22   1.412337 A    
C31   C40   1.421795 A    
C16   C18   1.394706 A    
C24   N8    1.435622 S    
C13   O13   1.382777 S    
N8    H21   1.045785 S    
C19   C21   1.415865 A    
C3    C27   1.479427 S    
C20   C22   1.415993 A    
C9    C11   1.420388 A    
N6    H17   1.044937 S    
O2    Cu2   1.962755 S    
C50   C54   1.525096 S    
C48   O16   1.397781 S    
C41   H5    1.110121 S    
O5    Cu1   1.947074 S    
C35   H3    1.080853 S    
C46   C48   1.532200 S    
C26   C37   1.413623 A    
C14   O14   1.382383 S    
C35   C37   1.401628 A    
O16   H14   0.991123 S    
O24   H30   0.991400 S    
C23   C39   1.403354 A    
C44   O26   1.397744 S    
C49   C53   1.525094 S    
