data_mof_unit_31729.cif
_audit_creation_date              2012-12-10T18:13:32-0500
_audit_creation_method            fapswitch 2.2
_symmetry_space_group_name_H-M    P1
_symmetry_Int_Tables_number       1
_space_group_crystal_system       triclinic
_cell_length_a                    12.583232
_cell_length_b                    13.116851
_cell_length_c                    16.672789
_cell_angle_alpha                 90.910485
_cell_angle_beta                  98.099044
_cell_angle_gamma                 97.694247
_cell_volume                      2698.21283819

loop_
_atom_site_label
_atom_site_type_symbol
_atom_type_description
_atom_site_fract_x
_atom_site_fract_y
_atom_site_fract_z
_atom_type_partial_charge
C1    C     C_R   0.559919 0.691474 0.513252 0.868106
C2    C     C_R   0.630831 0.526179 0.241325 -0.197912
C3    C     C_R   0.600915 0.629893 0.854408 -0.226456
C4    C     C_R   0.594961 0.584922 0.777905 -0.166561
C5    C     C_R   0.398876 0.550693 0.767966 -0.206172
C6    C     C_R   0.405121 0.594293 0.845342 -0.168577
C7    C     C_R   0.506334 0.632024 0.889273 0.066230
C8    C     C_2   0.570768 0.590030 0.023883 -0.338234
C9    C     C_2   0.514095 0.652076 0.976855 0.440361
C10   C     C_R   0.494096 0.543627 0.734725 -0.026322
C11   C     C_R   0.287463 0.064039 0.554027 -0.202057
C12   C     C_R   0.514059 0.499489 0.349051 0.867580
C13   C     C_R   0.403165 0.199806 0.499747 -0.055885
C14   C     C_R   0.702453 0.840103 0.511577 -0.201408
C15   C     C_R   0.733902 0.945984 0.509495 0.268844
C16   C     C_R   0.657448 0.012463 0.515662 -0.213010
C17   C     C_R   0.550636 0.974121 0.528442 0.036850
C18   C     C_R   0.526270 0.869535 0.544904 0.081633
C19   C     C_R   0.467208 0.036460 0.525705 0.094015
C20   C     C_R   0.368379 0.999960 0.554055 0.174395
C21   C     C_R   0.352779 0.900752 0.582832 -0.258157
C22   C     C_R   0.430629 0.835970 0.578124 -0.178424
C23   C     C_R   0.439594 0.308503 0.492172 0.868443
C24   C     C_R   0.478680 0.133410 0.493108 -0.258174
C25   C     C_R   0.305731 0.164800 0.528362 -0.204969
C26   C     C_R   0.597843 0.801413 0.526524 -0.167263
C27   C     C_R   0.901120 0.354847 0.619670 0.116775
C28   C     C_R   0.211386 0.630931 0.407438 -0.038385
C29   C     C_R   0.115534 0.673196 0.399578 -0.260447
C30   C     C_R   0.033279 0.634691 0.443867 0.220218
C31   C     C_R   0.043786 0.543285 0.488536 0.004023
C32   C     C_R   0.146791 0.509021 0.499267 0.197389
C33   C     C_R   0.959412 0.485500 0.524295 -0.047015
C34   C     C_R   0.488700 0.508133 0.650987 0.830154
C35   C     C_R   0.983790 0.408301 0.580835 0.169168
C36   C     C_R   0.089204 0.383922 0.595179 -0.295374
C37   C     C_R   0.167689 0.430853 0.552804 -0.214625
C38   C     C_R   0.850188 0.495883 0.501749 -0.085637
C39   C     C_R   0.796093 0.377570 0.599333 -0.010030
C40   C     C_R   0.526864 0.514726 0.264418 -0.036606
C41   C     C_R   0.436773 0.527193 0.207571 -0.245026
C42   C     C_R   0.450762 0.553418 0.129162 -0.080875
C43   C     C_R   0.555220 0.569337 0.107310 0.234051
C44   C     C_R   0.644686 0.552924 0.162886 -0.196966
H1    H     H_    0.355700 0.517374 0.223742 0.159341
H2    H     H_    0.331759 0.594247 0.872448 0.146317
H3    H     H_    0.246351 0.216022 0.534114 0.149880
H4    H     H_    0.279429 0.872417 0.607263 0.150973
H5    H     H_    0.212138 0.037472 0.576413 0.137138
H6    H     H_    0.548199 0.160580 0.464165 0.151857
H7    H     H_    0.758535 0.787928 0.499624 0.165317
H8    H     H_    0.684363 0.093906 0.512908 0.147409
H9    H     H_    0.415827 0.759969 0.601961 0.175803
H10   H     H_    0.730518 0.340094 0.628535 0.144143
H11   H     H_    0.669235 0.583818 0.752207 0.156578
H12   H     H_    0.111396 0.325248 0.636756 0.166798
H13   H     H_    0.822709 0.541260 0.451895 0.161311
H14   H     H_    0.277203 0.664627 0.376821 0.156464
H15   H     H_    0.108698 0.740674 0.363541 0.160139
H16   H     H_    0.244803 0.404520 0.563565 0.211539
H17   H     H_    0.320155 0.521415 0.734615 0.154465
H18   H     H_    0.725231 0.561769 0.145687 0.133938
H19   H     H_    0.679531 0.658770 0.888113 0.128842
H20   H     H_    0.701751 0.517033 0.284199 0.155754
H21   H     H_    0.624756 0.544459 0.998224 0.126342
H22   H     H_    0.379749 0.559208 0.085453 0.164368
N1    N     N_R   0.774070 0.445420 0.541180 -0.123510
N2    N     N_R   0.226730 0.554050 0.459240 -0.128243
O1    O     O_R   0.631480 0.627510 0.519670 -0.612663
O2    O     O_R   0.455770 0.662400 0.493360 -0.612586
O3    O     O_R   0.598240 0.480510 0.398910 -0.618622
O4    O     O_R   0.422540 0.515400 0.372600 -0.613671
O5    O     O_R   0.544230 0.337600 0.506640 -0.610142
O6    O     O_R   0.368520 0.372490 0.480330 -0.630641
O7    O     O_R   0.577460 0.484600 0.627400 -0.616838
O8    O     O_R   0.401760 0.519490 0.601090 -0.636627
Zn1   Zn    Zn3+2 0.617320 0.476700 0.517570 0.930805
Zn2   Zn    Zn3+2 0.382680 0.523300 0.482430 0.927280
C45   C     C_3   0.846913 0.988907 0.497131 -0.935226
H23   H     H_    0.898644 0.927240 0.494030 0.238204
H24   H     H_    0.844437 0.030954 0.439767 0.245967
H25   H     H_    0.884344 0.042976 0.548393 0.242145
C46   C     C_3   0.922088 0.274331 0.681409 -0.965533
H26   H     H_    0.953367 0.209412 0.653061 0.244848
H27   H     H_    0.982128 0.308729 0.733211 0.249015
H28   H     H_    0.847071 0.242557 0.705584 0.243346
C47   C     C_3   0.949416 0.704634 0.452783 -0.965883
H29   H     H_    0.883340 0.692583 0.400494 0.238535
H30   H     H_    0.917309 0.694172 0.511177 0.245002
H31   H     H_    0.986744 0.786432 0.454100 0.242652
O9    O     O_3   0.445924 0.711440 0.009769 -0.656468
C48   C     C_3   0.444927 0.807673 0.972574 0.080348
H32   H     H_    0.376024 0.842574 0.991109 0.166397
H33   H     H_    0.429167 0.800405 0.905237 0.135658
C49   C     C_3   0.549833 0.880554 0.001500 -0.355208
H34   H     H_    0.562227 0.888054 0.068784 0.235441
H35   H     H_    0.620097 0.848555 0.982313 0.210133
C50   C     C_3   0.545353 0.986912 0.966482 -0.953260
H36   H     H_    0.534772 0.981249 0.899200 0.266437
H37   H     H_    0.622200 0.037725 0.988395 0.266857
H38   H     H_    0.477137 0.021872 0.986112 0.263666

loop_
_geom_bond_atom_site_label_1
_geom_bond_atom_site_label_2
_ccdc_geom_bond_type
C47   H29   S    
O2    Zn2   S    
C49   H34   S    
C41   C42   A    
O1    Zn1   S    
C19   C20   A    
N1    Zn1   S    
C8    C43   S    
C9    O9    S    
C49   C50   S    
C46   H26   S    
C11   H5    S    
C36   C37   A    
C28   N2    A    
O8    Zn2   S    
C3    C7    A    
C5    C6    A    
C39   H10   S    
C11   C25   A    
C15   C16   A    
C13   C23   S    
O4    Zn2   S    
C17   C19   A    
C15   C45   S    
C31   C32   A    
C2    C44   A    
C8    C9    D    
C18   C26   A    
C31   C33   A    
C25   H3    S    
C34   O7    A    
C32   N2    A    
C21   H4    S    
C12   O4    A    
C8    H21   S    
C21   C22   A    
C24   H6    S    
C13   C25   A    
C3    H19   S    
C23   O5    A    
C2    H20   S    
C22   H9    S    
N2    Zn2   S    
C11   C20   A    
C29   H15   S    
C27   C39   A    
O9    C48   S    
C45   H24   S    
C16   C17   A    
C44   H18   S    
C48   C49   S    
C1    O1    A    
C13   C24   A    
C35   C36   A    
C12   C40   S    
C43   C44   A    
C29   C30   A    
C36   H12   S    
C38   H13   S    
C14   H7    S    
C20   C21   A    
C48   H33   S    
C17   C18   A    
C5    H17   S    
C10   C34   S    
C32   C37   A    
C14   C26   A    
O7    Zn1   S    
C40   C41   A    
C46   H27   S    
C12   O3    A    
C50   H37   S    
C47   H30   S    
C4    H11   S    
C1    C26   S    
C42   C43   A    
C23   O6    A    
C4    C10   A    
C3    C4    A    
O3    Zn1   S    
C7    C9    S    
C28   C29   A    
O5    Zn1   S    
C6    H2    S    
C18   C22   A    
C39   N1    A    
C16   H8    S    
C45   H25   S    
C49   H35   S    
C6    C7    A    
C28   H14   S    
C50   H38   S    
C1    O2    A    
C27   C35   A    
C27   C46   S    
C19   C24   A    
C5    C10   A    
C30   C31   A    
C48   H32   S    
C33   C35   A    
C37   H16   S    
C45   H23   S    
C2    C40   A    
C46   H28   S    
C38   N1    A    
C50   H36   S    
O6    Zn2   S    
C47   H31   S    
C42   H22   S    
C41   H1    S    
C14   C15   A    
C33   C38   A    
C30   C47   S    
C34   O8    A    
