data_mof_unit_55241.cif
_audit_creation_date              2012-12-10T17:56:42-0500
_audit_creation_method            fapswitch 2.2
_symmetry_space_group_name_H-M    P1
_symmetry_Int_Tables_number       1
_space_group_crystal_system       triclinic
_cell_length_a                    10.794899
_cell_length_b                    9.590309
_cell_length_c                    10.867035
_cell_angle_alpha                 88.324004
_cell_angle_beta                  92.846196
_cell_angle_gamma                 89.700985
_cell_volume                      1123.13162969

loop_
_atom_site_label
_atom_site_type_symbol
_atom_type_description
_atom_site_fract_x
_atom_site_fract_y
_atom_site_fract_z
_atom_type_partial_charge
C1    C     C_R   0.262387 0.499930 0.500635 0.771812
C2    C     C_R   0.737697 0.499535 0.500818 0.781843
C3    C     C_R   0.938517 0.603305 0.562204 -0.182727
C4    C     C_R   0.066826 0.602254 0.563771 -0.187225
C5    C     C_R   0.415894 0.079282 0.428691 -0.036132
C6    C     C_R   0.584041 0.073651 0.571476 -0.037910
C7    C     C_R   0.413696 0.931613 0.428365 0.209689
C8    C     C_R   0.583274 0.925681 0.575777 0.249505
C9    C     C_R   0.501015 0.503110 0.261603 0.794222
C10   C     C_R   0.491228 0.498167 0.736518 0.788483
C11   C     C_R   0.440278 0.764650 0.098325 -0.204567
C12   C     C_R   0.351422 0.711739 0.860311 -0.166229
C13   C     C_R   0.376525 0.868464 0.027482 -0.167096
C14   C     C_R   0.325679 0.839145 0.911466 -0.149975
C15   C     C_R   0.426707 0.611084 0.926577 0.104480
C16   C     C_R   0.455578 0.628751 0.053154 0.108455
C17   C     C_R   0.499996 0.510254 0.125985 -0.118350
C18   C     C_R   0.476664 0.495102 0.869058 -0.109876
C19   C     C_R   0.533679 0.388412 0.067166 -0.212907
C20   C     C_R   0.527153 0.383109 0.940002 -0.213362
C21   C     C_R   0.062002 0.392011 0.444317 -0.182004
C22   C     C_R   0.933622 0.391495 0.444754 -0.184797
C23   C     C_R   0.871695 0.498370 0.502226 -0.012301
C24   C     C_R   0.128600 0.498702 0.502346 -0.005017
Cu1   Cu    Cu3+1 0.500000 0.640660 0.500000 0.919774
Cu2   Cu    Cu3+1 0.500000 0.359340 0.500000 0.932855
H1    H     H_    0.569581 0.297896 0.119613 0.163222
H2    H     H_    0.563433 0.291887 0.897104 0.160331
H3    H     H_    0.482778 0.797180 0.184007 0.169556
H4    H     H_    0.313392 0.693483 0.768251 0.147184
H5    H     H_    0.366182 0.972051 0.062678 0.132640
H6    H     H_    0.272069 0.917727 0.858439 0.139409
H7    H     H_    0.109082 0.310392 0.397524 0.135683
H8    H     H_    0.882757 0.309460 0.398440 0.143647
H9    H     H_    0.891894 0.684089 0.609922 0.129186
H10   H     H_    0.117657 0.680435 0.614763 0.129883
H11   H     H_    0.348571 0.139904 0.372231 0.136133
H12   H     H_    0.651386 0.130278 0.627293 0.140441
N1    N     N_R   0.500000 0.852070 0.500000 -0.196146
N2    N     N_R   0.500000 0.147940 0.500000 -0.195902
O1    O     O_R   0.319640 0.618740 0.499990 -0.588862
O2    O     O_R   0.680360 0.618740 0.500010 -0.601828
O3    O     O_R   0.319620 0.381170 0.499990 -0.582917
O4    O     O_R   0.680380 0.381170 0.500010 -0.584423
O5    O     O_R   0.500000 0.618810 0.319650 -0.609993
O6    O     O_R   0.500000 0.618810 0.680350 -0.589900
O7    O     O_R   0.499970 0.381240 0.319640 -0.579422
O8    O     O_R   0.500030 0.381240 0.680360 -0.578301
C25   C     C_3   0.308053 0.871210 0.351295 -0.379162
C26   C     C_3   0.184647 0.891590 0.411656 -0.824888
H13   H     H_    0.194683 0.865825 0.511711 0.257449
H14   H     H_    0.153211 0.001866 0.399893 0.226751
H15   H     H_    0.112834 0.823984 0.368006 0.250978
H16   H     H_    0.300929 0.927185 0.260617 0.160434
H17   H     H_    0.321781 0.761572 0.329718 0.257305
C27   C     C_3   0.677330 0.858553 0.668057 -0.390619
C28   C     C_3   0.655405 0.899183 0.800409 -0.866748
H18   H     H_    0.677311 0.010605 0.814858 0.234379
H19   H     H_    0.557675 0.880362 0.821712 0.285802
H20   H     H_    0.716063 0.835206 0.865777 0.246549
H21   H     H_    0.678465 0.745185 0.668962 0.264618
H22   H     H_    0.771687 0.892699 0.644499 0.166887

loop_
_geom_bond_atom_site_label_1
_geom_bond_atom_site_label_2
_ccdc_geom_bond_type
Cu1   O2    S    
C10   O6    A    
C15   C18   A    
C26   H14   S    
C4    H10   S    
C9    O5    A    
C8    N1    A    
C5    H11   S    
C19   H1    S    
C11   C16   A    
C3    C23   A    
C19   C20   A    
C5    N2    A    
C12   C15   A    
Cu2   O8    S    
C25   H17   S    
C8    C27   S    
C6    H12   S    
C26   H13   S    
Cu2   O4    S    
Cu1   O1    S    
C21   C22   A    
Cu1   N1    S    
C11   H3    S    
C11   C13   A    
Cu2   N2    S    
C28   H18   S    
C1    O3    A    
Cu2   O7    S    
C2    O2    A    
C4    C24   A    
C1    O1    A    
C17   C19   A    
C10   C18   S    
Cu2   O3    S    
C9    O7    A    
C18   C20   A    
C10   O8    A    
C22   H8    S    
C27   H22   S    
C28   H19   S    
C26   H15   S    
C21   H7    S    
C15   C16   A    
C3    H9    S    
C25   H16   S    
Cu1   O5    S    
C6    N2    A    
C14   H6    S    
C27   C28   S    
C7    C25   S    
C1    C24   S    
C25   C26   S    
C21   C24   A    
C9    C17   S    
C2    C23   S    
C5    C7    A    
C7    N1    A    
C27   H21   S    
C28   H20   S    
C6    C8    A    
C20   H2    S    
C13   C14   A    
C12   H4    S    
Cu1   Cu2   S    
C22   C23   A    
Cu1   O6    S    
C13   H5    S    
C2    O4    A    
C3    C4    A    
C12   C14   A    
C16   C17   A    
