data_mof_unit_18093.cif
_audit_creation_date              2013-03-05T15:52:07-0500
_audit_creation_method            fapswitch 2.2
_symmetry_space_group_name_H-M    P1
_symmetry_Int_Tables_number       1
_space_group_crystal_system       triclinic
_cell_length_a                    6.955251
_cell_length_b                    19.590677
_cell_length_c                    23.282037
_cell_angle_alpha                 95.806243
_cell_angle_beta                  91.173796
_cell_angle_gamma                 88.664237
_cell_volume                      3154.7086247

loop_
_atom_site_label
_atom_site_type_symbol
_atom_site_description
_atom_site_fract_x
_atom_site_fract_y
_atom_site_fract_z
_atom_type_partial_charge
O1    O     O_R   0.617180 0.809390 0.808140 -0.577937
O2    O     O_R   0.382820 0.190610 0.191860 -0.576549
O3    O     O_R   0.293300 0.672410 0.795490 -0.578742
O4    O     O_R   0.706700 0.327590 0.204510 -0.588442
O5    O     O_R   0.117220 0.690610 0.691850 -0.573182
O6    O     O_R   0.882780 0.309390 0.308150 -0.573428
C1    C     C_R   0.465121 0.648103 0.806220 0.943118
C2    C     C_R   0.534519 0.351820 0.193744 0.955239
O7    O     O_R   0.287840 0.807750 0.814460 -0.572619
O8    O     O_R   0.712160 0.192250 0.185540 -0.573211
O9    O     O_R   0.111720 0.826910 0.710960 -0.587849
O10   O     O_R   0.888280 0.173090 0.289040 -0.588059
C3    C     C_R   0.456471 0.830812 0.833147 0.959345
C4    C     C_R   0.543513 0.169237 0.166820 0.967066
O11   O     O_R   0.622680 0.673080 0.789040 -0.584944
O12   O     O_R   0.377320 0.326920 0.210960 -0.583824
O13   O     O_3   0.448820 0.756130 0.716020 -0.251893
O14   O     O_3   0.551180 0.243870 0.283980 -0.252395
V1    V     V_3+5 0.176220 0.748860 0.756300 1.210740
V2    V     V_3+5 0.823780 0.251140 0.243700 1.205083
O15   O     O_R   0.781670 0.827580 0.704500 -0.581262
O16   O     O_R   0.218330 0.172420 0.295500 -0.581707
C5    C     C_R   0.948145 0.852235 0.694653 1.082076
C6    C     C_R   0.051849 0.147794 0.305381 1.083554
O17   O     O_R   0.787130 0.692240 0.685530 -0.569905
O18   O     O_R   0.212870 0.307760 0.314470 -0.569889
C7    C     C_R   0.956087 0.669171 0.666829 1.011109
C8    C     C_R   0.043912 0.330825 0.333174 1.010795
V3    V     V_3+5 0.675510 0.751130 0.743690 1.210052
V4    V     V_3+5 0.324490 0.248870 0.256310 1.211093
O19   O     O_3   0.952780 0.743870 0.783980 -0.266356
O20   O     O_3   0.047220 0.256130 0.216020 -0.268417
C9    C     C_1   0.966598 0.617140 0.614757 -0.262459
C10   C     C_1   0.033399 0.382849 0.385251 -0.261732
C11   C     C_1   0.978166 0.573645 0.571928 0.087619
C12   C     C_1   0.021831 0.426341 0.428082 0.087345
C13   C     C_1   0.993411 0.521851 0.521322 0.019754
C14   C     C_1   0.006586 0.478133 0.478690 0.019598
C15   C     C_R   0.951377 0.915046 0.664349 -0.328024
C16   C     C_R   0.048609 0.085018 0.335730 -0.329827
C17   C     C_R   0.975939 0.039486 0.669072 0.345227
C18   C     C_R   0.024026 0.960590 0.331074 0.349508
C19   C     C_R   0.938286 0.980098 0.696271 0.044335
C20   C     C_R   0.061735 0.019948 0.303845 0.050412
C21   C     C_R   0.978138 0.910034 0.604019 0.250962
C22   C     C_R   0.021801 0.090079 0.396064 0.250558
C23   C     C_R   0.987210 0.970870 0.575098 -0.086103
C24   C     C_R   0.012618 0.029269 0.425018 -0.087429
C25   C     C_R   0.016875 0.034291 0.609156 -0.098515
C26   C     C_R   0.982949 0.965835 0.390978 -0.100789
C27   C     C_R   0.973359 0.970781 0.513448 0.073916
C28   C     C_R   0.026382 0.029382 0.486675 0.074881
C29   C     C_R   0.105725 0.084361 0.521952 -0.099831
C30   C     C_R   0.893935 0.915813 0.478181 -0.100986
C31   C     C_R   0.095155 0.089185 0.582176 0.216379
C32   C     C_R   0.904535 0.910971 0.417962 0.222670
H1    H     H_    0.180099 0.123964 0.502864 0.172068
H2    H     H_    0.819505 0.876227 0.497277 0.172127
C33   C     C_R   0.484576 0.584229 0.835375 -0.189627
C34   C     C_R   0.508303 0.413925 0.162571 -0.189722
C35   C     C_R   0.600990 0.465647 0.831616 0.273965
C36   C     C_R   0.357837 0.527384 0.163031 0.277389
C37   C     C_R   0.571610 0.526831 0.805939 -0.152952
C38   C     C_R   0.426137 0.472226 0.192045 -0.165997
C39   C     C_R   0.432122 0.581517 0.892848 -0.068746
C40   C     C_R   0.530826 0.411871 0.102733 -0.101664
C41   C     C_R   0.448422 0.519536 0.920123 0.123368
C42   C     C_R   0.444980 0.463138 0.070285 0.121215
C43   C     C_R   0.532002 0.460222 0.888613 -0.073037
C44   C     C_R   0.353891 0.521504 0.101128 -0.066909
C45   C     C_R   0.393123 0.516286 0.978981 -0.118535
C46   C     C_R   0.450247 0.458456 0.008171 -0.125856
C47   C     C_R   0.495583 0.396523 0.973567 0.233599
C48   C     C_R   0.270838 0.566437 0.008573 0.228542
C49   C     C_R   0.539419 0.397613 0.914770 0.205184
C50   C     C_R   0.254746 0.569925 0.069060 0.214027
H3    H     H_    0.612574 0.369007 0.082473 0.155708
H4    H     H_    0.388367 0.629410 0.916348 0.145635
H5    H     H_    0.413630 0.474259 0.238562 0.111932
H6    H     H_    0.620193 0.530436 0.762390 0.114037
C51   C     C_1   0.467145 0.882934 0.885163 -0.285406
C52   C     C_1   0.532810 0.117205 0.114746 -0.269903
C53   C     C_1   0.478588 0.926476 0.927969 0.104044
C54   C     C_1   0.521350 0.073725 0.071899 0.115851
C55   C     C_1   0.493524 0.978273 0.978590 0.043830
C56   C     C_1   0.506404 0.021967 0.021253 0.047494
C57   C     C_3   0.190383 0.149789 0.615772 -0.738025
H7    H     H_    0.287219 0.176387 0.588341 0.230349
H8    H     H_    0.080757 0.188173 0.632695 0.279550
H9    H     H_    0.281174 0.132388 0.651496 0.259036
C58   C     C_3   0.809218 0.850383 0.384371 -0.747881
H10   H     H_    0.712232 0.823839 0.411796 0.230977
H11   H     H_    0.718567 0.867790 0.348620 0.257804
H12   H     H_    0.918784 0.811953 0.367487 0.279622
N1    N     N_R   0.457199 0.331382 0.994050 0.244097
O21   O     O_R   0.586280 0.282063 0.990489 -0.324329
O22   O     O_R   0.292179 0.321487 0.016898 -0.361384
N2    N     N_R   0.132395 0.604240 0.976742 0.242853
O23   O     O_R   0.112914 0.670507 0.987302 -0.332225
O24   O     O_R   0.025387 0.572120 0.936677 -0.390366
N3    N     N_R   0.975915 0.156254 0.425816 0.219468
O25   O     O_R   0.820864 0.164928 0.456292 -0.375249
O26   O     O_R   0.086635 0.208166 0.421917 -0.436301
N4    N     N_R   0.024098 0.843884 0.574230 0.219334
O27   O     O_R   0.913461 0.791944 0.578106 -0.436640
O28   O     O_R   0.179128 0.835263 0.543740 -0.375603
C59   C     C_3   0.110824 0.012495 0.240282 -0.797306
H13   H     H_    0.155447 0.060909 0.224203 0.200768
H14   H     H_    0.232578 0.975247 0.232492 0.268445
H15   H     H_    0.983883 0.993922 0.214102 0.261889
C60   C     C_3   0.889292 0.987501 0.759840 -0.780255
H16   H     H_    0.844718 0.939067 0.775896 0.198776
H17   H     H_    0.016261 0.006062 0.786013 0.262979
H18   H     H_    0.767537 0.024741 0.767666 0.271063
N5    N     N_R   0.950159 0.105436 0.701153 0.236593
O29   O     O_R   0.804235 0.144600 0.689117 -0.363790
O30   O     O_R   0.059934 0.123490 0.745777 -0.343390
N6    N     N_R   0.049922 0.894617 0.299045 0.235628
O31   O     O_R   0.195698 0.855443 0.311194 -0.373314
O32   O     O_R   0.940346 0.876521 0.254386 -0.362575
N7    N     N_R   0.564803 0.333189 0.880523 0.255011
O33   O     O_R   0.724448 0.297813 0.884309 -0.288550
O34   O     O_R   0.419112 0.305772 0.851615 -0.315877
N8    N     N_R   0.113949 0.616551 0.095909 0.254001
O35   O     O_R   0.941824 0.595169 0.104024 -0.369964
O36   O     O_R   0.148631 0.681796 0.104728 -0.304854
C61   C     C_3   0.718690 0.410119 0.797790 -0.778030
H19   H     H_    0.785113 0.428861 0.759483 0.213193
H20   H     H_    0.839232 0.392749 0.825075 0.273514
H21   H     H_    0.626793 0.366746 0.781254 0.279024
C62   C     C_3   0.297645 0.591565 0.200427 -0.783385
H22   H     H_    0.346911 0.589994 0.245992 0.218209
H23   H     H_    0.364538 0.637073 0.185021 0.278238
H24   H     H_    0.138790 0.597310 0.201049 0.271085

loop_
_geom_bond_atom_site_label_1
_geom_bond_atom_site_label_2
_geom_bond_distance
_ccdc_geom_bond_type
C40   C42   1.429350 A    
C57   H7    1.111011 S    
N3    O25   1.301427 A    
C17   C19   1.411833 A    
C60   H16   1.107429 S    
O4    C2    1.306744 A    
C62   H24   1.108223 S    
V1    O19   1.703204 S    
N4    O28   1.301429 A    
C23   C25   1.421604 A    
C55   C56   1.247104 T    
C7    C9    1.504737 S    
C16   C22   1.414021 A    
O9    V1    1.982107 S    
C48   C50   1.409609 A    
C59   H15   1.109725 S    
C11   C13   1.478927 S    
C54   C56   1.478956 S    
O3    C1    1.304854 A    
V2    O20   1.703204 S    
C9    C11   1.246998 T    
O12   V4    1.989109 S    
N5    O29   1.301101 A    
C3    C51   1.504803 S    
O13   V3    1.695434 S    
C36   C44   1.433912 A    
C21   C23   1.430189 A    
C17   C25   1.422501 A    
C35   C37   1.401580 A    
O7    C3    1.316459 A    
N6    O31   1.301101 A    
C36   C38   1.400067 A    
C6    C16   1.479859 S    
O5    C7    1.310522 A    
O7    V1    1.857384 S    
C32   C58   1.512477 S    
O6    C8    1.310524 A    
N1    O21   1.301102 A    
O8    V2    1.857384 S    
C39   C41   1.427294 A    
C59   H13   1.107423 S    
O3    V1    1.981906 S    
O14   V4    1.695434 S    
C41   C45   1.438827 A    
C15   C21   1.413934 A    
C24   C26   1.421612 A    
C34   C40   1.401549 A    
C2    O12   1.294771 A    
C47   C49   1.410910 A    
C18   C20   1.411774 A    
C17   N5    1.434831 S    
C1    C33   1.484960 S    
N4    O27   1.301384 A    
C51   C53   1.247045 T    
O11   V3    1.989107 S    
C22   C24   1.430225 A    
C37   H6    1.084817 S    
C29   C31   1.399069 A    
O17   V3    1.858088 S    
C22   N3    1.438899 S    
C30   C32   1.398960 A    
C27   C28   1.420036 A    
C50   N8    1.432461 S    
C48   N2    1.439942 S    
O8    C4    1.316454 A    
C58   H10   1.111008 S    
C29   H1    1.079312 S    
C18   N6    1.434797 S    
C15   C19   1.410843 A    
C1    O11   1.297262 A    
N5    O30   1.301219 A    
C25   C31   1.423214 A    
O15   V3    1.994112 S    
C26   C32   1.423163 A    
C41   C43   1.428243 A    
O4    V2    1.981906 S    
C61   H20   1.109443 S    
C13   C14   1.247074 T    
C21   N4    1.438925 S    
C58   H11   1.110204 S    
C16   C20   1.410792 A    
C42   C46   1.440903 A    
O10   V2    1.982108 S    
O1    V3    1.837307 S    
C60   H17   1.109726 S    
N7    O33   1.301341 A    
C18   C26   1.422425 A    
C42   C44   1.429404 A    
C53   C55   1.478986 S    
O18   V4    1.858090 S    
C52   C54   1.247012 T    
O15   C5    1.298415 A    
C44   C50   1.422863 A    
C38   H5    1.084915 S    
O16   C6    1.298408 A    
C33   C37   1.389208 A    
O1    C3    1.311442 A    
C47   N1    1.439276 S    
C61   H19   1.111182 S    
C28   C29   1.403335 A    
N8    O36   1.301303 A    
C30   H2    1.079336 S    
C20   C59   1.517415 S    
C35   C43   1.435083 A    
C40   H3    1.076802 S    
C39   H4    1.077926 S    
O16   V4    1.994114 S    
C49   N7    1.432349 S    
O18   C8    1.315745 A    
C36   C62   1.511014 S    
C46   C47   1.419649 A    
C62   H23   1.109419 S    
C45   C48   1.418243 A    
C23   C27   1.436418 A    
N1    O22   1.301594 A    
O5    V1    1.836399 S    
C35   C61   1.511723 S    
O17   C7    1.315743 A    
O6    V2    1.836397 S    
O10   C6    1.295664 A    
N2    O24   1.301779 A    
C34   C38   1.388912 A    
O2    V4    1.837305 S    
C27   C30   1.403291 A    
C12   C14   1.478930 S    
C61   H21   1.108056 S    
C45   C46   1.423725 A    
V3    O19   2.135244 S    
C2    C34   1.484316 S    
C58   H12   1.108016 S    
V4    O20   2.135246 S    
C59   H14   1.110496 S    
C5    C15   1.479881 S    
O9    C5    1.295663 A    
O13   V1    2.146400 S    
C10   C12   1.247000 T    
C43   C49   1.422974 A    
C60   H18   1.110502 S    
O14   V2    2.146399 S    
C31   C57   1.512494 S    
O2    C4    1.311430 A    
N6    O32   1.301206 A    
N7    O34   1.300994 A    
C8    C10   1.504744 S    
C19   C60   1.517411 S    
C24   C28   1.436511 A    
N3    O26   1.301382 A    
N2    O23   1.301059 A    
C57   H9    1.110198 S    
C57   H8    1.108014 S    
C4    C52   1.504747 S    
C33   C39   1.400585 A    
C62   H22   1.111303 S    
N8    O35   1.301165 A    
