data_mof_unit_22419.cif
_audit_creation_date              2012-12-10T17:21:18-0500
_audit_creation_method            fapswitch 2.2
_symmetry_space_group_name_H-M    P1
_symmetry_Int_Tables_number       1
_space_group_crystal_system       triclinic
_cell_length_a                    18.320586
_cell_length_b                    25.860017
_cell_length_c                    18.313839
_cell_angle_alpha                 89.856416
_cell_angle_beta                  90.061614
_cell_angle_gamma                 89.933064
_cell_volume                      8676.52147925

loop_
_atom_site_label
_atom_site_type_symbol
_atom_type_description
_atom_site_fract_x
_atom_site_fract_y
_atom_site_fract_z
_atom_type_partial_charge
C1    C     C_R   0.389837 0.249981 0.139754 0.778497
C2    C     C_R   0.390360 0.749437 0.860142 0.786677
C3    C     C_R   0.389941 0.749386 0.139492 0.786851
C4    C     C_R   0.394101 0.254021 0.864542 0.801266
C5    C     C_R   0.889871 0.750041 0.639729 0.781469
C6    C     C_R   0.890338 0.249257 0.360909 0.786450
C7    C     C_R   0.886095 0.253706 0.643843 0.800646
C8    C     C_R   0.889902 0.750116 0.360263 0.783099
C9    C     C_R   0.465473 0.891263 0.218181 -0.136816
C10   C     C_R   0.584584 0.156682 0.882979 -0.178097
C11   C     C_R   0.605347 0.301692 0.090667 -0.174644
C12   C     C_R   0.530940 0.876782 0.832880 -0.154199
C13   C     C_R   0.065068 0.359018 0.633910 -0.158851
C14   C     C_R   0.078331 0.845690 0.381246 -0.179582
C15   C     C_R   0.106255 0.800026 0.590216 -0.161694
C16   C     C_R   0.924985 0.384262 0.234889 -0.139064
C17   C     C_R   0.432285 0.843998 0.205842 -0.147817
C18   C     C_R   0.536924 0.198615 0.883817 -0.157138
C19   C     C_R   0.535040 0.284929 0.107216 -0.207287
C20   C     C_R   0.476158 0.840239 0.822324 -0.147326
C21   C     C_R   0.999855 0.335625 0.654105 -0.152663
C22   C     C_R   0.016784 0.814476 0.373880 -0.197788
C23   C     C_R   0.035672 0.783846 0.606855 -0.191894
C24   C     C_R   0.912754 0.339148 0.273884 -0.163095
C25   C     C_R   0.467746 0.797104 0.225304 0.067184
C26   C     C_R   0.515268 0.223349 0.818080 0.081065
C27   C     C_R   0.517201 0.266939 0.178172 0.082042
C28   C     C_R   0.493313 0.790598 0.794306 0.073384
C29   C     C_R   0.999640 0.290822 0.698643 0.083620
C30   C     C_R   0.007994 0.782039 0.312310 0.081507
C31   C     C_R   0.017474 0.766402 0.678019 0.078144
C32   C     C_R   0.956817 0.294766 0.263019 0.079251
C33   C     C_R   0.064187 0.277626 0.736093 0.039665
C34   C     C_R   0.062587 0.781790 0.257890 0.037560
C35   C     C_R   0.071898 0.766469 0.732643 0.038478
C36   C     C_R   0.011771 0.295877 0.208980 0.038194
C37   C     C_R   0.528342 0.798730 0.272615 0.036190
C38   C     C_R   0.553231 0.211426 0.753429 0.035364
C39   C     C_R   0.571683 0.267034 0.232740 0.037010
C40   C     C_R   0.559541 0.784591 0.757356 0.039979
C41   C     C_R   0.445068 0.749293 0.196307 -0.145925
C42   C     C_R   0.457835 0.259956 0.815495 -0.207639
C43   C     C_R   0.446057 0.249792 0.195819 -0.138185
C44   C     C_R   0.449537 0.746296 0.806458 -0.155580
C45   C     C_R   0.937295 0.258970 0.706241 -0.200721
C46   C     C_R   0.946002 0.750068 0.304122 -0.132976
C47   C     C_R   0.946021 0.749959 0.695873 -0.136147
C48   C     C_R   0.945944 0.249376 0.304437 -0.138845
C49   C     C_R   0.479522 0.702342 0.216571 0.076176
C50   C     C_R   0.454407 0.295344 0.756972 0.069906
C51   C     C_R   0.428743 0.232122 0.266877 0.069860
C52   C     C_R   0.470289 0.697704 0.775342 0.082824
C53   C     C_R   0.933307 0.223651 0.765406 0.075240
C54   C     C_R   0.937806 0.717775 0.242514 0.072893
C55   C     C_R   0.928192 0.733386 0.767366 0.074161
C56   C     C_R   0.988465 0.204548 0.292492 0.073162
C57   C     C_R   0.997605 0.210624 0.803567 0.077919
C58   C     C_R   0.992177 0.717802 0.187858 0.067293
C59   C     C_R   0.982703 0.733294 0.821927 0.071754
C60   C     C_R   0.042827 0.205142 0.237868 0.080461
C61   C     C_R   0.534813 0.703118 0.270259 0.081768
C62   C     C_R   0.491521 0.283970 0.691616 0.071625
C63   C     C_R   0.483245 0.232191 0.321444 0.072954
C64   C     C_R   0.526889 0.696559 0.722590 0.076026
C65   C     C_R   0.060538 0.242169 0.795239 -0.200991
C66   C     C_R   0.054062 0.749861 0.195959 -0.134112
C67   C     C_R   0.054026 0.749981 0.804144 -0.134033
C68   C     C_R   0.053767 0.250634 0.196014 -0.138757
C69   C     C_R   0.556421 0.751096 0.300900 -0.151507
C70   C     C_R   0.546618 0.244915 0.691877 -0.187400
C71   C     C_R   0.554122 0.249940 0.304030 -0.135561
C72   C     C_R   0.566856 0.742281 0.708600 -0.188617
C73   C     C_R   0.461930 0.654625 0.182566 -0.150788
C74   C     C_R   0.416179 0.342741 0.762549 -0.114627
C75   C     C_R   0.358329 0.213128 0.284411 -0.147420
C76   C     C_R   0.438657 0.649857 0.796969 -0.137596
C77   C     C_R   0.866688 0.201133 0.788526 -0.113596
C78   C     C_R   0.876336 0.685123 0.234285 -0.154719
C79   C     C_R   0.857184 0.715717 0.785412 -0.143892
C80   C     C_R   0.979094 0.159256 0.335240 -0.149002
C81   C     C_R   0.496499 0.608859 0.202933 -0.137775
C82   C     C_R   0.406380 0.374284 0.701604 -0.108911
C83   C     C_R   0.342397 0.195207 0.354401 -0.124314
C84   C     C_R   0.457845 0.603603 0.763239 -0.143111
C85   C     C_R   0.866059 0.160375 0.838380 -0.120798
C86   C     C_R   0.869190 0.653306 0.173386 -0.133200
C87   C     C_R   0.840662 0.699060 0.855879 -0.131880
C88   C     C_R   0.021976 0.115559 0.323493 -0.129105
C89   C     C_R   0.113278 0.246631 0.856470 0.827084
C90   C     C_R   0.110088 0.749874 0.139741 0.795964
C91   C     C_R   0.110123 0.749947 0.860293 0.791251
C92   C     C_R   0.109518 0.250722 0.139272 0.792662
C93   C     C_R   0.609724 0.751068 0.360228 0.811862
C94   C     C_R   0.606798 0.247310 0.637532 0.806551
C95   C     C_R   0.610206 0.250012 0.360202 0.798931
C96   C     C_R   0.613612 0.747363 0.643399 0.831343
C97   C     C_R   0.931429 0.141079 0.865496 -0.137289
C98   C     C_R   0.922625 0.653400 0.119568 -0.112237
C99   C     C_R   0.894327 0.698860 0.909485 -0.113668
C100  C     C_R   0.075608 0.116140 0.269988 -0.138063
C101  C     C_R   0.550748 0.609543 0.255723 -0.145858
C102  C     C_R   0.430701 0.357784 0.633826 -0.144346
C103  C     C_R   0.396021 0.195275 0.408076 -0.108282
C104  C     C_R   0.511298 0.603060 0.709779 -0.137410
C105  C     C_R   0.996767 0.165681 0.848138 -0.121973
C106  C     C_R   0.983465 0.685355 0.126294 -0.140207
C107  C     C_R   0.964773 0.715367 0.892934 -0.119878
C108  C     C_R   0.086553 0.160391 0.227899 -0.166841
C109  C     C_R   0.570745 0.656010 0.288228 -0.155693
C110  C     C_R   0.471474 0.312495 0.628363 -0.126012
C111  C     C_R   0.465841 0.213262 0.392031 -0.130356
C112  C     C_R   0.546885 0.648620 0.690842 -0.141761
C113  C     C_R   0.381455 0.047413 0.047103 -0.114739
C114  C     C_R   0.386992 0.953532 0.974452 -0.122586
C115  C     C_R   0.878362 0.547808 0.447029 -0.115563
C116  C     C_R   0.888272 0.453616 0.519031 -0.116114
C117  C     C_R   0.448493 0.023364 0.035493 -0.121390
C118  C     C_R   0.451469 0.977518 0.996344 -0.139692
C119  C     C_R   0.946039 0.523888 0.455050 -0.122154
C120  C     C_R   0.951351 0.477887 0.493928 -0.142029
C121  C     C_R   0.317920 0.974885 0.992420 0.080325
C122  C     C_R   0.315983 0.025518 0.019906 0.075131
C123  C     C_R   0.818204 0.474829 0.504714 0.078543
C124  C     C_R   0.814617 0.525582 0.477567 0.069924
C125  C     C_R   0.251173 0.947655 0.983330 -0.210099
C126  C     C_R   0.249019 0.052735 0.019572 -0.214394
C127  C     C_R   0.752076 0.447451 0.517216 -0.214327
C128  C     C_R   0.747826 0.552701 0.481681 -0.214040
C129  C     C_R   0.184096 0.974911 0.983776 0.075200
C130  C     C_R   0.182405 0.025455 0.011523 0.078207
C131  C     C_R   0.685202 0.474583 0.521101 0.075387
C132  C     C_R   0.681692 0.525330 0.493893 0.074590
C133  C     C_R   0.118238 0.953327 0.956958 -0.110503
C134  C     C_R   0.113720 0.046929 0.030438 -0.120543
C135  C     C_R   0.621361 0.452504 0.551719 -0.117040
C136  C     C_R   0.611712 0.546659 0.479499 -0.126006
C137  C     C_R   0.051375 0.977386 0.969683 -0.137913
C138  C     C_R   0.048940 0.023068 0.009287 -0.155946
C139  C     C_R   0.553789 0.476618 0.543859 -0.158572
C140  C     C_R   0.548592 0.522576 0.504857 -0.151760
C141  C     C_R   0.249827 0.109184 0.008259 0.808339
C142  C     C_R   0.250238 0.890987 0.992603 0.810637
C143  C     C_R   0.749565 0.609149 0.492249 0.798304
C144  C     C_R   0.750438 0.390918 0.507416 0.808516
C145  C     C_R   0.250942 0.391319 0.999045 0.808653
C146  C     C_R   0.249604 0.608743 0.999637 0.819436
C147  C     C_R   0.746575 0.891235 0.500236 0.832615
C148  C     C_R   0.747279 0.108778 0.500081 0.834558
C149  C     C_3   0.171987 0.469359 0.016019 0.017822
C150  C     C_3   0.261050 0.531016 0.917148 0.053160
C151  C     C_3   0.175081 0.529060 0.028709 0.014442
C152  C     C_3   0.274268 0.471696 0.918548 0.031834
C153  C     C_3   0.720548 0.970687 0.578762 0.053075
C154  C     C_3   0.696067 0.029788 0.434937 0.042480
C155  C     C_3   0.711800 0.030502 0.574911 0.009654
C156  C     C_3   0.687712 0.969829 0.441924 -0.000008
C157  C     C_3   0.305048 0.470332 0.052429 -0.509632
C158  C     C_3   0.311060 0.529747 0.045803 -0.545465
C159  C     C_3   0.819242 0.970141 0.483264 -0.519204
C160  C     C_3   0.821107 0.029545 0.491288 -0.531917
C161  C     C_3   0.249615 0.449008 0.995315 -0.004014
C162  C     C_3   0.247999 0.551166 0.997253 -0.001523
C163  C     C_3   0.741879 0.948926 0.501380 -0.020500
C164  C     C_3   0.742472 0.051172 0.500413 -0.014268
C165  C     C_R   0.130708 0.299319 0.711046 -0.141247
C166  C     C_R   0.124746 0.813678 0.266733 -0.180734
C167  C     C_R   0.142960 0.784034 0.714637 -0.187883
C168  C     C_R   0.022338 0.342292 0.168747 -0.175271
C169  C     C_R   0.559616 0.848155 0.287243 -0.171552
C170  C     C_R   0.596100 0.165737 0.752771 -0.144662
C171  C     C_R   0.642497 0.285108 0.214841 -0.180794
C172  C     C_R   0.616404 0.819985 0.773716 -0.149871
C173  C     C_R   0.130770 0.338855 0.658919 0.234791
C174  C     C_R   0.132392 0.845150 0.327965 0.225504
C175  C     C_R   0.159844 0.800145 0.643973 0.219051
C176  C     C_R   0.979845 0.386133 0.182972 0.227983
C177  C     C_R   0.531510 0.892994 0.254767 0.224946
C178  C     C_R   0.611588 0.138774 0.816945 0.199802
C179  C     C_R   0.659052 0.301752 0.144325 0.219349
C180  C     C_R   0.602338 0.864762 0.813768 0.231264
H1    H     H_    0.155942 0.451192 0.068743 0.134094
H2    H     H_    0.312221 0.548959 0.896216 0.092096
H3    H     H_    0.177572 0.534621 0.088977 0.144102
H4    H     H_    0.334541 0.466062 0.916376 0.092212
H5    H     H_    0.768266 0.963061 0.615042 0.134065
H6    H     H_    0.729258 0.036483 0.384843 0.144355
H7    H     H_    0.745592 0.046544 0.620067 0.150229
H8    H     H_    0.703726 0.953131 0.388326 0.149906
H9    H     H_    0.422618 0.651787 0.138824 0.140531
H10   H     H_    0.395864 0.356564 0.814395 0.157062
H11   H     H_    0.315024 0.211386 0.244310 0.128901
H12   H     H_    0.401221 0.646205 0.841915 0.157098
H13   H     H_    0.814425 0.215675 0.770231 0.165629
H14   H     H_    0.833387 0.683711 0.274774 0.112743
H15   H     H_    0.813770 0.714113 0.745427 0.126267
H16   H     H_    0.939176 0.157113 0.378591 0.129326
H17   H     H_    0.814892 0.143092 0.854789 0.170721
H18   H     H_    0.821986 0.628459 0.167967 0.141190
H19   H     H_    0.786090 0.685866 0.868764 0.137310
H20   H     H_    0.013975 0.081266 0.356544 0.139215
H21   H     H_    0.482074 0.572866 0.176539 0.135495
H22   H     H_    0.377468 0.410600 0.706347 0.176637
H23   H     H_    0.288326 0.180855 0.366856 0.145097
H24   H     H_    0.432487 0.567734 0.780236 0.138892
H25   H     H_    0.046383 0.148074 0.868295 0.165485
H26   H     H_    0.023554 0.684222 0.082981 0.132532
H27   H     H_    0.004824 0.713478 0.936296 0.135569
H28   H     H_    0.130248 0.159071 0.188325 0.124892
H29   H     H_    0.616492 0.654288 0.325344 0.132101
H30   H     H_    0.484700 0.299766 0.573894 0.173441
H31   H     H_    0.505912 0.211623 0.435393 0.136662
H32   H     H_    0.592961 0.644707 0.654638 0.156834
H33   H     H_    0.996912 0.040577 0.022479 0.147966
H34   H     H_    0.001350 0.959928 0.950223 0.154064
H35   H     H_    0.495723 0.540019 0.495102 0.154535
H36   H     H_    0.505243 0.458933 0.566380 0.139946
H37   H     H_    0.381293 0.082658 0.078773 0.159664
H38   H     H_    0.392262 0.919145 0.941524 0.156743
H39   H     H_    0.876260 0.583327 0.415761 0.154622
H40   H     H_    0.895616 0.419259 0.551801 0.154335
H41   H     H_    0.498257 0.041009 0.055287 0.161378
H42   H     H_    0.503718 0.960078 0.983873 0.159239
H43   H     H_    0.994573 0.541801 0.432823 0.153480
H44   H     H_    0.004282 0.460583 0.503841 0.146371
H45   H     H_    0.117854 0.918422 0.924580 0.158564
H46   H     H_    0.109196 0.081477 0.063247 0.162047
H47   H     H_    0.623283 0.417044 0.583119 0.155085
H48   H     H_    0.604529 0.581062 0.446668 0.165177
H49   H     H_    0.931485 0.107617 0.901149 0.147148
H50   H     H_    0.916962 0.628549 0.072436 0.162286
H51   H     H_    0.881425 0.685571 0.964031 0.137548
H52   H     H_    0.109379 0.082310 0.261454 0.146319
H53   H     H_    0.578759 0.574104 0.270351 0.137050
H54   H     H_    0.418318 0.380227 0.585393 0.156547
H55   H     H_    0.383658 0.180982 0.462276 0.150423
H56   H     H_    0.527559 0.566807 0.685149 0.145324
H57   H     H_    0.182937 0.284221 0.728484 0.178418
H58   H     H_    0.167935 0.814528 0.226492 0.139014
H59   H     H_    0.186104 0.785808 0.754892 0.148000
H60   H     H_    0.063232 0.345246 0.126437 0.158735
H61   H     H_    0.607991 0.853559 0.319402 0.196902
H62   H     H_    0.616344 0.149405 0.702785 0.202610
H63   H     H_    0.685692 0.286771 0.255036 0.148649
H64   H     H_    0.672758 0.811817 0.761120 0.186634
H65   H     H_    0.441327 0.926281 0.196331 0.169182
H66   H     H_    0.599242 0.137542 0.933555 0.167183
H67   H     H_    0.617908 0.314934 0.035987 0.157968
H68   H     H_    0.518517 0.913055 0.859466 0.154895
H69   H     H_    0.064498 0.391614 0.596715 0.155003
H70   H     H_    0.083971 0.870329 0.428600 0.155844
H71   H     H_    0.119180 0.812772 0.535427 0.165303
H72   H     H_    0.891301 0.417917 0.245023 0.165129
H73   H     H_    0.380484 0.844787 0.177531 0.160066
H74   H     H_    0.519218 0.212301 0.936640 0.172272
H75   H     H_    0.495062 0.286497 0.063774 0.134885
H76   H     H_    0.421470 0.850585 0.838902 0.155676
H77   H     H_    0.949827 0.353115 0.634802 0.157180
H78   H     H_    0.976319 0.816084 0.416833 0.124545
H79   H     H_    0.995763 0.785506 0.563356 0.141200
H80   H     H_    0.868027 0.339754 0.312313 0.151334
O1    O     O_3   0.249990 0.250010 0.000000 -0.488266
O2    O     O_3   0.249990 0.749990 0.000000 -0.490056
O3    O     O_3   0.749990 0.750010 0.500000 -0.489191
O4    O     O_3   0.749990 0.249990 0.500000 -0.484446
O5    O     O_R   0.335430 0.280650 0.146160 -0.637020
O6    O     O_R   0.335430 0.719350 0.853840 -0.643353
O7    O     O_R   0.335430 0.719350 0.146160 -0.641289
O8    O     O_R   0.335430 0.280650 0.853840 -0.639032
O9    O     O_R   0.835430 0.780650 0.646160 -0.645123
O10   O     O_R   0.835430 0.219350 0.353840 -0.634822
O11   O     O_R   0.835430 0.219350 0.646160 -0.645095
O12   O     O_R   0.835430 0.780650 0.353840 -0.633276
O13   O     O_R   0.164550 0.280640 0.853840 -0.619650
O14   O     O_R   0.164550 0.719360 0.146160 -0.623313
O15   O     O_R   0.164550 0.719360 0.853840 -0.609661
O16   O     O_R   0.164550 0.280640 0.146160 -0.640458
O17   O     O_R   0.664550 0.780640 0.353840 -0.654213
O18   O     O_R   0.664550 0.219360 0.646160 -0.647772
O19   O     O_R   0.664550 0.219360 0.353840 -0.616200
O20   O     O_R   0.664550 0.780640 0.646160 -0.642847
O21   O     O_R   0.396160 0.219380 0.914560 -0.643468
O22   O     O_R   0.396160 0.780620 0.085440 -0.638497
O23   O     O_R   0.396160 0.780620 0.914560 -0.651660
O24   O     O_R   0.396160 0.219380 0.085440 -0.655455
O25   O     O_R   0.896160 0.719380 0.414560 -0.645250
O26   O     O_R   0.896160 0.280620 0.585440 -0.648572
O27   O     O_R   0.896160 0.280620 0.414560 -0.637614
O28   O     O_R   0.896160 0.719380 0.585440 -0.629763
O29   O     O_R   0.103840 0.219370 0.085450 -0.638934
O30   O     O_R   0.103840 0.780630 0.914550 -0.653693
O31   O     O_R   0.103840 0.780630 0.085450 -0.634307
O32   O     O_R   0.103840 0.219370 0.914550 -0.643934
O33   O     O_R   0.603840 0.719370 0.585450 -0.633421
O34   O     O_R   0.603840 0.280630 0.414550 -0.647701
O35   O     O_R   0.603840 0.280630 0.585450 -0.662917
O36   O     O_R   0.603840 0.719370 0.414550 -0.636705
O37   O     O_R   0.310730 0.133160 0.000000 -0.637205
O38   O     O_R   0.310730 0.866840 0.000000 -0.655358
O39   O     O_R   0.810730 0.633160 0.500000 -0.637738
O40   O     O_R   0.810730 0.366840 0.500000 -0.659532
O41   O     O_R   0.249970 0.366860 0.060720 -0.650485
O42   O     O_R   0.249970 0.633140 0.939280 -0.625456
O43   O     O_R   0.249970 0.633140 0.060720 -0.646047
O44   O     O_R   0.249970 0.366860 0.939280 -0.604034
O45   O     O_R   0.749970 0.866860 0.560720 -0.620143
O46   O     O_R   0.749970 0.133140 0.439280 -0.632802
O47   O     O_R   0.749970 0.133140 0.560720 -0.639467
O48   O     O_R   0.749970 0.866860 0.439280 -0.650028
O49   O     O_R   0.189290 0.133150 0.000000 -0.660316
O50   O     O_R   0.189290 0.866850 0.000000 -0.641505
O51   O     O_R   0.689290 0.633150 0.500000 -0.665735
O52   O     O_R   0.689290 0.366850 0.500000 -0.640368
Zn1   Zn    Zn3+2 0.249990 0.293780 0.913250 1.004233
Zn2   Zn    Zn3+2 0.249990 0.706220 0.086750 0.978126
Zn3   Zn    Zn3+2 0.249990 0.706220 0.913250 0.991924
Zn4   Zn    Zn3+2 0.249990 0.293780 0.086750 0.963090
Zn5   Zn    Zn3+2 0.749990 0.793780 0.413250 0.971578
Zn6   Zn    Zn3+2 0.749990 0.206220 0.586750 0.970173
Zn7   Zn    Zn3+2 0.749990 0.206220 0.413250 0.997958
Zn8   Zn    Zn3+2 0.749990 0.793780 0.586750 0.988067
Zn9   Zn    Zn3+2 0.336760 0.206240 0.000000 0.948554
Zn10  Zn    Zn3+2 0.336760 0.793760 0.000000 0.949353
Zn11  Zn    Zn3+2 0.836760 0.706240 0.500000 0.958531
Zn12  Zn    Zn3+2 0.836760 0.293760 0.500000 0.951746
Zn13  Zn    Zn3+2 0.163250 0.206230 0.000000 0.962753
Zn14  Zn    Zn3+2 0.163250 0.793770 0.000000 0.968239
Zn15  Zn    Zn3+2 0.663250 0.706230 0.500000 0.963990
Zn16  Zn    Zn3+2 0.663250 0.293770 0.500000 0.954047
I1    I     I_    0.088721 0.442218 0.940734 -0.190696
I2    I     I_    0.179558 0.557629 0.837246 -0.176779
I3    I     I_    0.076329 0.573097 0.006618 -0.305487
I4    I     I_    0.248620 0.434318 0.814200 -0.270479
I5    I     I_    0.636693 0.930401 0.641427 -0.190304
I6    I     I_    0.599359 0.073522 0.402899 -0.233469
I7    I     I_    0.603807 0.060643 0.600056 -0.248422
I8    I     I_    0.577153 0.941058 0.455425 -0.213635
H81   H     H_    0.287069 0.460075 0.108684 0.219363
H82   H     H_    0.364748 0.540284 0.021582 0.178960
H83   H     H_    0.309371 0.546836 0.101503 0.219075
H84   H     H_    0.359923 0.452725 0.044353 0.185387
H85   H     H_    0.860892 0.952697 0.520205 0.191093
H86   H     H_    0.847984 0.046721 0.442417 0.197879
H87   H     H_    0.854947 0.040119 0.539520 0.197268
H88   H     H_    0.834598 0.959437 0.426459 0.207768
I9    I     I_    0.229180 0.367616 0.615941 -0.376096
I10   I     I_    0.226114 0.891789 0.339770 -0.353737
I11   I     I_    0.266572 0.825132 0.618815 -0.319310
I12   I     I_    0.996389 0.456414 0.127849 -0.346006
I13   I     I_    0.591872 0.962372 0.251563 -0.343353
I14   I     I_    0.677929 0.072108 0.814170 -0.342263
I15   I     I_    0.765488 0.327255 0.119089 -0.381771
I16   I     I_    0.688897 0.913147 0.847077 -0.304597

loop_
_geom_bond_atom_site_label_1
_geom_bond_atom_site_label_2
_ccdc_geom_bond_type
C133  C137  A    
C157  C158  S    
C55   C59   A    
O42   Zn3   S    
C6    O10   A    
C136  C140  A    
C79   C87   A    
C16   H72   S    
C65   C89   S    
C170  C178  A    
C133  H45   S    
C69   C93   S    
O3    Zn15  S    
C64   C112  A    
C71   C95   S    
C28   C40   A    
C29   C33   A    
C36   C168  A    
C62   C70   A    
C77   H13   S    
C39   C171  A    
C74   H10   S    
C113  C122  A    
O35   Zn16  S    
C10   H66   S    
C92   O16   A    
O30   Zn14  S    
C93   O17   A    
C145  O44   A    
C97   C105  A    
C146  O43   A    
C84   H24   S    
C136  H48   S    
O20   Zn8   S    
C89   O13   A    
C130  C134  A    
C10   C178  A    
C109  H29   S    
C73   C81   A    
C80   H16   S    
C166  C174  A    
C96   O20   A    
C149  I1    S    
O1    Zn9   S    
C25   C41   A    
C82   H22   S    
C26   C38   A    
O37   Zn9   S    
C20   C28   A    
C21   C29   A    
C28   C44   A    
C93   O36   A    
C29   C45   A    
C23   C31   A    
C94   O35   A    
C13   C173  A    
C24   C32   A    
O18   Zn6   S    
C144  O40   A    
C89   O32   A    
C90   O31   A    
C12   C20   A    
C119  H43   S    
C13   C21   A    
C7    C45   S    
C86   H18   S    
C129  C133  A    
C19   H75   S    
C15   H71   S    
C63   C71   A    
C102  H54   S    
C49   C73   A    
C11   C179  A    
C9    C177  A    
C157  H84   S    
C152  I4    S    
C5    O9    A    
C106  H26   S    
C99   H51   S    
C139  C140  A    
C36   C68   A    
C166  H58   S    
C13   H69   S    
C24   H80   S    
C126  C141  S    
C98   C106  A    
O5    Zn4   S    
C17   C25   A    
C5    O28   A    
O24   Zn9   S    
C160  H86   S    
C80   C88   A    
C7    O26   A    
C155  H7    S    
O43   Zn2   S    
C21   H77   S    
C145  C161  S    
C10   C18   A    
C7    O11   A    
C68   C92   S    
O6    Zn3   S    
C63   C111  A    
C127  C131  A    
O3    Zn8   S    
C85   C97   A    
C72   C96   S    
C125  C129  A    
O2    Zn10  S    
C39   C71   A    
O13   Zn1   S    
C138  H33   S    
O36   Zn15  S    
C118  H42   S    
O2    Zn2   S    
C108  H28   S    
C75   C83   A    
C34   C66   A    
C123  C124  A    
C81   C101  A    
C18   H74   S    
C154  H6    S    
C83   C103  A    
C153  C163  S    
C32   C36   A    
C154  C164  S    
C149  C151  S    
C78   H14   S    
C2    O6    A    
C79   H15   S    
C157  C161  S    
C96   O33   A    
C59   C67   A    
C98   H50   S    
C1    C43   S    
O31   Zn14  S    
C179  I15   S    
O52   Zn16  S    
C159  H85   S    
C116  H40   S    
C152  C161  S    
C44   C52   A    
C167  H59   S    
C45   C53   A    
C120  H44   S    
C171  C179  A    
C154  I6    S    
C114  H38   S    
C169  C177  A    
C145  O41   A    
C148  O47   A    
C100  C108  A    
C30   C34   A    
C148  C164  S    
C95   O34   A    
O21   Zn9   S    
C158  H83   S    
C104  C112  A    
C147  O48   A    
C59   C107  A    
C116  C120  A    
C75   H11   S    
C121  C125  A    
C76   H12   S    
C94   O18   A    
C173  I9    S    
C37   C69   A    
C123  C127  A    
O50   Zn14  S    
C35   C67   A    
C132  C136  A    
C82   C102  A    
C90   O14   A    
C42   C50   A    
C113  C117  A    
C12   C180  A    
O4    Zn12  S    
C115  C119  A    
O33   Zn15  S    
C84   C104  A    
O40   Zn12  S    
C91   O15   A    
O32   Zn13  S    
C26   C42   A    
C167  C175  A    
C129  C130  A    
C168  C176  A    
C178  I14   S    
C103  H55   S    
C22   C30   A    
C171  H63   S    
C107  H27   S    
C30   C46   A    
C33   C165  A    
C169  H61   S    
C52   C76   A    
C143  O51   A    
C144  O52   A    
C151  H3    S    
C141  O49   A    
C56   C80   A    
C14   C22   A    
C8    O12   A    
C147  C163  S    
C117  C118  A    
C16   C176  A    
C4    C42   S    
C159  C163  S    
C8    C46   S    
C150  I2    S    
O4    Zn7   S    
C104  H56   S    
C172  H64   S    
O4    Zn6   S    
O38   Zn10  S    
O51   Zn15  S    
C38   C70   A    
C174  I10   S    
C137  H34   S    
C18   C26   A    
C87   H19   S    
O49   Zn13  S    
O19   Zn7   S    
C76   C84   A    
C143  O39   A    
O44   Zn1   S    
O41   Zn4   S    
C22   H78   S    
C146  C162  S    
C11   C19   A    
C160  C164  S    
C70   C94   S    
O48   Zn5   S    
C126  C130  A    
C101  C109  A    
C103  C111  A    
C176  I12   S    
C41   C49   A    
C140  H35   S    
C114  C121  A    
O14   Zn2   S    
C3    O22   A    
C156  C163  S    
C20   H76   S    
C153  C155  S    
C9    H65   S    
C154  C156  S    
C60   C108  A    
O29   Zn13  S    
C124  C128  A    
C172  C180  A    
O45   Zn8   S    
C31   C47   A    
C149  H1    S    
C32   C48   A    
C110  H30   S    
C74   C82   A    
C38   C170  A    
C155  I7    S    
C156  H8    S    
C150  C162  S    
O34   Zn16  S    
C3    O7    A    
C51   C63   A    
C83   H23   S    
C52   C64   A    
C53   C57   A    
C81   H21   S    
C12   H68   S    
C56   C60   A    
C116  C123  A    
C53   C77   A    
C134  C138  A    
C55   C79   A    
C159  C160  S    
C151  C162  S    
C46   C54   A    
C67   C91   S    
C157  H81   S    
C121  C122  A    
C88   C100  A    
C135  H47   S    
O28   Zn11  S    
C8    O25   A    
C146  O42   A    
C85   H17   S    
C101  H53   S    
C31   C35   A    
C102  C110  A    
C149  C161  S    
C6    O27   A    
C131  C132  A    
C134  H46   S    
C40   C172  A    
C115  C124  A    
O1    Zn4   S    
O2    Zn3   S    
C57   C65   A    
C148  O46   A    
C119  C120  A    
C105  H25   S    
C14   H70   S    
O1    Zn1   S    
C4    O8    A    
C99   C107  A    
C135  C139  A    
C165  H57   S    
C88   H20   S    
C50   C74   A    
C14   C174  A    
O23   Zn10  S    
C37   C169  A    
C49   C61   A    
C43   C51   A    
C66   C90   S    
C127  C144  S    
C86   C98   A    
C128  C143  S    
C111  H31   S    
O3    Zn11  S    
C27   C43   A    
C60   C68   A    
C159  H88   S    
C34   C166  A    
C175  I11   S    
C73   H9    S    
C151  I3    S    
C54   C78   A    
C57   C105  A    
C91   O30   A    
C117  H41   S    
C61   C109  A    
C33   C65   A    
C5    C47   S    
C17   H73   S    
C6    C48   S    
C112  H32   S    
C51   C75   A    
C180  I16   S    
C131  C135  A    
C156  I8    S    
C165  C173  A    
O3    Zn5   S    
O1    Zn13  S    
C25   C37   A    
O25   Zn11  S    
C58   C66   A    
C97   H49   S    
C27   C39   A    
C168  H60   S    
C92   O29   A    
C35   C167  A    
C152  H4    S    
O7    Zn2   S    
C19   C27   A    
C139  H36   S    
O17   Zn5   S    
C177  I13   S    
C78   C86   A    
C15   C23   A    
C23   H79   S    
C16   C24   A    
C40   C72   A    
O46   Zn7   S    
C115  H39   S    
O47   Zn6   S    
C153  I5    S    
C128  C132  A    
C113  H37   S    
C87   C99   A    
O27   Zn12  S    
C95   O19   A    
O22   Zn10  S    
C100  H52   S    
C2    C44   S    
O15   Zn3   S    
C58   C106  A    
C122  C126  A    
O4    Zn16  S    
C62   C110  A    
C125  C142  S    
C142  O38   A    
C4    O21   A    
C114  C118  A    
C9    C17   A    
C50   C62   A    
C150  C152  S    
O16   Zn4   S    
O12   Zn5   S    
O8    Zn1   S    
C47   C55   A    
C54   C58   A    
C61   C69   A    
C48   C56   A    
C3    C41   S    
C160  H87   S    
C170  H62   S    
C150  H2    S    
C158  H82   S    
C1    O24   A    
C2    O23   A    
C155  C164  S    
C137  C138  A    
C147  O45   A    
C15   C175  A    
C11   H67   S    
O9    Zn8   S    
C153  H5    S    
O10   Zn7   S    
C141  O37   A    
C142  O50   A    
O11   Zn6   S    
C64   C72   A    
C158  C162  S    
C77   C85   A    
O2    Zn14  S    
C1    O5    A    
O39   Zn11  S    
O26   Zn12  S    
