data_mof_unit_46251.cif
_audit_creation_date              2013-03-05T15:56:12-0500
_audit_creation_method            fapswitch 2.2
_symmetry_space_group_name_H-M    P1
_symmetry_Int_Tables_number       1
_space_group_crystal_system       triclinic
_cell_length_a                    12.322321
_cell_length_b                    13.113399
_cell_length_c                    19.324538
_cell_angle_alpha                 77.684672
_cell_angle_beta                  101.267398
_cell_angle_gamma                 116.11017
_cell_volume                      2721.01443643

loop_
_atom_site_label
_atom_site_type_symbol
_atom_site_description
_atom_site_fract_x
_atom_site_fract_y
_atom_site_fract_z
_atom_type_partial_charge
O1    O     O_R   0.972510 0.318130 0.520450 -0.581923
O2    O     O_R   0.806530 0.359650 0.492990 -0.606386
C1    C     C_R   0.855040 0.286274 0.506862 0.773522
O3    O     O_R   0.083010 0.479220 0.613590 -0.589778
O4    O     O_R   0.917030 0.520740 0.586130 -0.606809
C2    C     C_R   0.000678 0.501297 0.632292 0.770568
Cu1   Cu    Cu3+1 0.098280 0.475420 0.516260 0.965699
Cu2   Cu    Cu3+1 0.901720 0.524580 0.483740 0.958519
O5    O     O_R   0.193470 0.640350 0.507010 -0.574675
O6    O     O_R   0.027490 0.681870 0.479550 -0.588084
O7    O     O_R   0.082970 0.479260 0.413870 -0.549588
O8    O     O_R   0.916990 0.520780 0.386410 -0.554645
C3    C     C_R   0.144776 0.714163 0.491946 0.827729
C4    C     C_R   0.000120 0.500160 0.367497 0.915246
C5    C     C_R   0.113553 0.525874 0.753225 -0.228985
H1    H     H_    0.194467 0.538277 0.732065 0.151814
C6    C     C_R   0.120746 0.533509 0.825257 0.018479
C7    C     C_R   0.014921 0.517383 0.852993 0.019096
C8    C     C_R   0.907093 0.500624 0.806612 -0.164175
H2    H     H_    0.825014 0.488283 0.826268 0.160615
C9    C     C_R   0.902350 0.496333 0.734692 -0.201835
H3    H     H_    0.817673 0.482264 0.700460 0.150162
C10   C     C_R   0.004934 0.507088 0.707813 -0.038778
N1    N     N_R   0.930022 0.537909 0.951685 -0.238381
N2    N     N_R   0.925284 0.530934 0.020782 -0.186951
C11   C     C_R   0.002142 0.497609 0.070451 0.511621
N3    N     N_R   0.084001 0.471700 0.048776 -0.213682
N4    N     N_R   0.088045 0.477935 0.979693 -0.212672
C12   C     C_R   0.012064 0.512252 0.929748 0.383095
C13   C     C_R   0.108489 0.544357 0.188782 -0.258132
H4    H     H_    0.192872 0.584878 0.164800 0.209230
C14   C     C_R   0.110506 0.551642 0.260160 0.331255
C15   C     C_R   0.999941 0.500776 0.291026 -0.335519
C16   C     C_R   0.888737 0.446158 0.248581 0.213983
C17   C     C_R   0.888173 0.442514 0.176250 0.284645
C18   C     C_R   0.998920 0.492452 0.146548 -0.182609
C19   C     C_R   0.275055 0.034966 0.430622 -0.206398
H5    H     H_    0.452599 0.226443 0.379542 0.177021
H6    H     H_    0.246584 0.102448 0.404242 0.143518
C20   C     C_R   0.227289 0.837505 0.483988 -0.091973
C21   C     C_R   0.814644 0.086956 0.561292 -0.170904
C22   C     C_R   0.734086 0.975356 0.582705 -0.166105
C23   C     C_R   0.611100 0.937425 0.557676 -0.197837
C24   C     C_R   0.565824 0.010437 0.508426 0.080469
C25   C     C_R   0.649220 0.123301 0.484430 0.052222
C26   C     C_R   0.439523 0.977596 0.485315 0.073894
C27   C     C_R   0.398953 0.059590 0.443680 0.127169
C28   C     C_R   0.482506 0.165644 0.415459 -0.189053
C29   C     C_R   0.605695 0.194351 0.432478 -0.129647
C30   C     C_R   0.352127 0.865821 0.501807 -0.240240
C31   C     C_R   0.188052 0.926006 0.453861 0.000504
C32   C     C_R   0.773106 0.163137 0.514363 -0.089633
H7    H     H_    0.379988 0.798042 0.526246 0.154627
H8    H     H_    0.908639 0.115450 0.584819 0.151402
H9    H     H_    0.553710 0.851828 0.579970 0.129689
H10   H     H_    0.766463 0.918943 0.621324 0.137848
H11   H     H_    0.665437 0.274258 0.405081 0.233082
C33   C     C_R   0.349200 0.330286 0.614495 -0.302017
H12   H     H_    0.171435 0.310592 0.626891 0.122782
H13   H     H_    0.550783 0.297882 0.638518 0.153256
H14   H     H_    0.349578 0.264552 0.659241 0.138783
N5    N     N_R   0.246290 0.438200 0.540910 -0.186636
C34   C     C_R   0.755167 0.639842 0.400869 0.090776
C35   C     C_R   0.654782 0.667103 0.376554 -0.031622
C36   C     C_R   0.554285 0.614801 0.415506 -0.216329
C37   C     C_R   0.550631 0.532915 0.476378 -0.036720
C38   C     C_R   0.653851 0.505839 0.497148 0.283236
C39   C     C_R   0.447185 0.474900 0.516290 -0.028839
C40   C     C_R   0.448650 0.389503 0.574912 0.179649
C41   C     C_R   0.549232 0.363364 0.593785 -0.288204
C42   C     C_R   0.649404 0.420363 0.556048 -0.186647
C43   C     C_R   0.341464 0.497291 0.500954 0.027492
C44   C     C_R   0.248345 0.355993 0.596454 0.065761
N6    N     N_R   0.754310 0.561190 0.459520 -0.213743
H15   H     H_    0.332859 0.561704 0.458058 0.168330
H16   H     H_    0.835037 0.681443 0.372828 0.135151
H17   H     H_    0.478239 0.636594 0.396083 0.194371
H18   H     H_    0.720919 0.393203 0.574867 0.204156
C45   C     C_R   0.241273 0.564012 0.868476 0.111387
C46   C     C_R   0.294499 0.663565 0.901395 -0.123253
C47   C     C_R   0.408413 0.692367 0.941885 -0.122921
C48   C     C_R   0.470438 0.622772 0.949255 -0.081224
C49   C     C_R   0.418819 0.524427 0.915965 -0.105245
C50   C     C_R   0.304826 0.495179 0.875512 -0.142472
H19   H     H_    0.247614 0.718502 0.895805 0.124703
H20   H     H_    0.448682 0.768730 0.967476 0.136699
H21   H     H_    0.558604 0.645186 0.980619 0.146372
H22   H     H_    0.467119 0.470792 0.921549 0.151958
H23   H     H_    0.265666 0.418552 0.850167 0.129545
C51   C     C_R   0.653882 0.748718 0.309975 0.111403
C52   C     C_R   0.706265 0.749872 0.251058 -0.120443
C53   C     C_R   0.705619 0.826668 0.188631 -0.134793
C54   C     C_R   0.652775 0.903053 0.184130 -0.105878
C55   C     C_R   0.600185 0.902679 0.242004 -0.080737
C56   C     C_R   0.600387 0.826016 0.304532 -0.098753
H24   H     H_    0.746270 0.690439 0.252796 0.159578
H25   H     H_    0.745866 0.826701 0.143599 0.145417
H26   H     H_    0.652542 0.962519 0.135771 0.157396
H27   H     H_    0.559659 0.962225 0.238571 0.171521
H28   H     H_    0.560907 0.829025 0.349010 0.137169
N7    N     N_R   0.224947 0.615297 0.299108 0.121410
O9    O     O_R   0.324949 0.618917 0.283808 -0.387837
O10   O     O_R   0.232343 0.685746 0.339957 -0.400006
N8    N     N_R   0.776856 0.385981 0.279784 0.136036
O11   O     O_R   0.721114 0.275000 0.282780 -0.363199
O12   O     O_R   0.717728 0.442653 0.288688 -0.348879
N9    N     N_R   0.775312 0.384764 0.133953 0.160060
O13   O     O_R   0.681642 0.406011 0.133971 -0.291510
O14   O     O_R   0.764670 0.308038 0.096989 -0.346857
C57   C     C_R   0.060750 0.911949 0.449896 0.122646
C58   C     C_R   0.004736 0.954821 0.387340 -0.167281
C59   C     C_R   0.890757 0.953960 0.386568 -0.139061
C60   C     C_R   0.830057 0.907475 0.447431 -0.106156
C61   C     C_R   0.883852 0.862764 0.509405 -0.135874
C62   C     C_R   0.999814 0.867495 0.511290 -0.094468
H29   H     H_    0.050163 0.990728 0.339543 0.143995
H30   H     H_    0.849400 0.989086 0.338620 0.161028
H31   H     H_    0.741073 0.905509 0.446420 0.145456
H32   H     H_    0.836422 0.825443 0.556305 0.124963
H33   H     H_    0.042285 0.836750 0.560670 0.113794

loop_
_geom_bond_atom_site_label_1
_geom_bond_atom_site_label_2
_geom_bond_distance
_ccdc_geom_bond_type
C37   C39   1.441799 A    
C54   C55   1.396018 A    
C21   C22   1.386293 A    
C17   C18   1.407037 A    
C35   C51   1.489419 S    
C4    C15   1.475635 S    
N8    O12   1.301099 A    
C61   C62   1.396266 A    
Cu1   Cu2   2.698828 S    
Cu1   O7    1.942453 S    
C11   N3    1.354921 A    
N7    O9    1.301162 A    
N4    C12   1.357595 A    
C8    C9    1.391743 A    
C58   C59   1.396721 A    
C7    C8    1.406649 A    
O3    Cu1   1.939600 S    
C13   H4    1.084084 S    
C19   C31   1.399542 A    
O7    C4    1.305541 A    
C34   H16   1.081466 S    
C48   H21   1.082428 S    
C6    C45   1.482624 S    
C29   H11   1.075595 S    
Cu1   O5    1.941528 S    
C16   C17   1.407290 A    
O5    C3    1.305533 A    
N1    C12   1.357431 A    
N8    O11   1.301110 A    
C3    C20   1.476828 S    
C22   H10   1.082274 S    
C52   H24   1.082612 S    
C57   C58   1.406911 A    
C27   C28   1.388203 A    
C39   C40   1.416460 A    
N9    O13   1.301206 A    
N5    C44   1.354497 A    
C58   H29   1.082916 S    
C25   C29   1.412105 A    
C19   C27   1.396101 A    
H12   C44   1.081843 S    
C21   C32   1.401639 A    
H5    C28   1.084360 S    
C47   H20   1.082378 S    
C39   C43   1.421202 A    
C33   H14   1.083868 S    
C5    C10   1.401872 A    
C49   H22   1.082375 S    
N7    O10   1.301450 A    
C9    H3    1.083164 S    
N9    O14   1.301392 A    
C55   C56   1.397687 A    
C43   H15   1.075946 S    
C59   C60   1.396780 A    
C24   C26   1.423912 A    
C53   H25   1.082372 S    
C15   C16   1.418095 A    
C30   H7    1.075665 S    
C36   H17   1.073840 S    
C51   C56   1.410180 A    
N1    N2    1.329815 A    
O3    C2    1.300044 A    
C52   C53   1.398078 A    
C38   N6    1.386964 A    
C56   H28   1.082482 S    
C47   C48   1.397595 A    
C25   C32   1.421196 A    
N2    C11   1.356210 A    
C16   N8    1.432209 S    
C34   C35   1.403262 A    
O1    C1    1.305657 A    
C23   C24   1.416942 A    
Cu1   N5    2.033797 S    
C46   H19   1.083141 S    
C49   C50   1.398532 A    
H13   C41   1.084584 S    
Cu2   O8    1.939599 S    
Cu2   N6    2.021993 S    
C6    C7    1.419322 A    
N5    C43   1.367759 A    
C7    C12   1.477013 S    
C41   C42   1.386098 A    
C11   C18   1.465151 S    
C28   C29   1.381616 A    
O8    C4    1.299329 A    
C62   H33   1.083271 S    
C31   C57   1.484953 S    
C9    C10   1.398568 A    
C45   C46   1.405944 A    
C50   H23   1.083167 S    
C24   C25   1.419961 A    
C60   C61   1.396360 A    
C23   H9    1.076904 S    
C5    C6    1.399625 A    
C26   C27   1.414303 A    
C45   C50   1.405239 A    
O1    Cu1   1.956243 S    
O2    Cu2   1.941528 S    
C61   H32   1.080981 S    
C46   C47   1.398369 A    
O6    C3    1.301808 A    
O4    Cu2   1.942455 S    
C1    C32   1.473135 S    
C33   C40   1.401848 A    
C34   N6    1.358277 A    
C20   C31   1.419588 A    
C26   C30   1.398286 A    
C13   C18   1.396339 A    
C59   H30   1.081868 S    
C35   C36   1.402493 A    
C8    H2    1.083160 S    
O2    C1    1.299474 A    
C19   H6    1.084884 S    
C14   C15   1.415915 A    
C13   C14   1.397536 A    
C51   C52   1.408701 A    
O4    C2    1.303147 A    
C55   H27   1.082433 S    
C20   C30   1.402702 A    
C2    C10   1.467046 S    
C54   H26   1.082345 S    
C53   C54   1.396316 A    
C37   C38   1.429038 A    
C38   C42   1.407486 A    
C36   C37   1.406457 A    
C40   C41   1.389456 A    
C21   H8    1.083330 S    
C17   N9    1.438230 S    
C60   H31   1.081804 S    
Cu2   O6    1.956243 S    
C48   C49   1.397702 A    
C22   C23   1.389496 A    
N3    N4    1.329376 A    
C14   N7    1.438396 S    
C57   C62   1.406792 A    
C42   H18   1.063686 S    
C5    H1    1.084429 S    
C33   C44   1.388868 A    
