data_mof_unit_67702.cif
_audit_creation_date              2012-12-10T19:48:32-0500
_audit_creation_method            fapswitch 2.2
_symmetry_space_group_name_H-M    P1
_symmetry_Int_Tables_number       1
_space_group_crystal_system       triclinic
_cell_length_a                    10.877003
_cell_length_b                    10.705248
_cell_length_c                    9.484149
_cell_angle_alpha                 89.346528
_cell_angle_beta                  92.346071
_cell_angle_gamma                 86.410202
_cell_volume                      1101.14520913

loop_
_atom_site_label
_atom_site_type_symbol
_atom_type_description
_atom_site_fract_x
_atom_site_fract_y
_atom_site_fract_z
_atom_type_partial_charge
C1    C     C_R   0.502119 0.259232 0.500880 0.774537
C2    C     C_R   0.494795 0.740799 0.499043 0.775217
C3    C     C_R   0.871819 0.497228 0.507239 -0.068251
C4    C     C_R   0.128115 0.504803 0.493524 -0.077754
C5    C     C_R   0.951018 0.411930 0.588077 0.004581
C6    C     C_R   0.048840 0.587816 0.409531 -0.002141
C7    C     C_3   0.601889 0.031886 0.444945 -0.175244
C8    C     C_3   0.390617 0.968254 0.555355 -0.147217
C9    C     C_3   0.500985 0.961494 0.365968 -0.166410
C10   C     C_3   0.491402 0.038915 0.634164 -0.150497
C11   C     C_3   0.491596 0.878436 0.497712 0.026336
C12   C     C_3   0.501081 0.121825 0.502392 0.028292
C13   C     C_3   0.591869 0.946888 0.576729 -0.158008
C14   C     C_3   0.400207 0.053430 0.423735 -0.160961
C15   C     C_3   0.540394 0.604222 0.053306 -0.429991
C16   C     C_3   0.459768 0.395745 0.946741 -0.428312
C17   C     C_3   0.431212 0.591458 0.946519 0.535881
C18   C     C_3   0.568931 0.408494 0.053525 0.546632
C19   C     C_3   0.608557 0.511276 0.956449 0.517402
C20   C     C_3   0.391651 0.488816 0.043471 0.520489
C21   C     C_R   0.262264 0.505852 0.497198 0.788295
C22   C     C_R   0.737742 0.494731 0.502807 0.800087
C23   C     C_R   0.153085 0.890013 0.258711 -0.253109
C24   C     C_R   0.840407 0.093704 0.673605 -0.184468
C25   C     C_R   0.129794 0.797015 0.357038 0.340433
C26   C     C_R   0.876764 0.195350 0.595940 0.317936
C27   C     C_R   0.091846 0.680046 0.308849 -0.100407
C28   C     C_R   0.907149 0.305646 0.667685 -0.126390
C29   C     C_R   0.072837 0.662371 0.161469 0.388603
C30   C     C_R   0.910072 0.305787 0.817605 0.411167
C31   C     C_R   0.105296 0.753536 0.066627 -0.157030
C32   C     C_R   0.863650 0.206486 0.890426 -0.179048
C33   C     C_R   0.144552 0.868142 0.112022 0.389551
C34   C     C_R   0.827120 0.100473 0.818980 0.393172
C35   C     C_R   0.921783 0.585047 0.420602 -0.239238
C36   C     C_R   0.078028 0.418050 0.581657 -0.241729
Cu1   Cu    Cu3+1 0.500030 0.499990 0.643150 1.006962
Cu2   Cu    Cu3+1 0.499970 0.500010 0.356850 1.009167
H1    H     H_    0.574841 0.689617 0.102599 0.154530
H2    H     H_    0.424542 0.310623 0.897609 0.150624
H3    H     H_    0.172931 0.980479 0.298957 0.173815
H4    H     H_    0.823909 0.008147 0.619560 0.170562
H5    H     H_    0.093893 0.737127 0.954434 0.194859
H6    H     H_    0.857609 0.211662 0.003790 0.203318
H7    H     H_    0.861083 0.650408 0.357901 0.152457
H8    H     H_    0.138524 0.351596 0.643135 0.156744
H9    H     H_    0.504599 0.927720 0.255871 0.123736
H10   H     H_    0.488364 0.072383 0.744449 0.140225
H11   H     H_    0.688351 0.059250 0.398926 0.185987
H12   H     H_    0.304296 0.942803 0.602675 0.197275
H13   H     H_    0.665370 0.894470 0.641665 0.145685
H14   H     H_    0.323762 0.104645 0.362297 0.107774
N1    N     N_3   0.500090 0.499970 0.858290 -0.244127
N2    N     N_3   0.499910 0.500030 0.141710 -0.243379
O1    O     O_R   0.500060 0.316850 0.620870 -0.588911
O2    O     O_R   0.499940 0.683150 0.379130 -0.588718
O3    O     O_R   0.500000 0.316860 0.379090 -0.568200
O4    O     O_R   0.500000 0.683140 0.620910 -0.573287
O5    O     O_R   0.319670 0.500010 0.620890 -0.548994
O6    O     O_R   0.680330 0.499990 0.379110 -0.545644
O7    O     O_R   0.319620 0.500010 0.379110 -0.544948
O8    O     O_R   0.680380 0.499990 0.620890 -0.545714
O9    O     O_3   0.160886 0.956844 0.006880 -0.571735
C37   C     C_3   0.229982 0.056266 0.053543 -0.402897
H15   H     H_    0.316468 0.022640 0.112387 0.151645
H16   H     H_    0.172294 0.120988 0.117745 0.173092
H17   H     H_    0.257296 0.108651 0.959493 0.182850
O10   O     O_3   0.766639 0.009003 0.886987 -0.612765
C38   C     C_3   0.849919 0.940833 0.980595 -0.344103
H18   H     H_    0.913150 0.878922 0.919620 0.190761
H19   H     H_    0.796667 0.881822 0.049305 0.162310
H20   H     H_    0.902829 0.001284 0.052322 0.193180
O11   O     O_3   0.348018 0.683185 0.881858 -0.546674
C39   C     C_3   0.395197 0.801827 0.898310 -0.265029
H21   H     H_    0.332538 0.871873 0.840484 0.217374
H22   H     H_    0.487767 0.805834 0.853694 0.154851
H23   H     H_    0.399176 0.828176 0.011299 0.156045
O12   O     O_3   0.652649 0.317127 0.118297 -0.538783
C40   C     C_3   0.608434 0.197442 0.098552 -0.303227
H24   H     H_    0.674890 0.127097 0.150698 0.201979
H25   H     H_    0.601477 0.174403 0.984666 0.182011
H26   H     H_    0.517850 0.189417 0.146769 0.150661
O13   O     O_3   0.727647 0.512981 0.904275 -0.517245
C41   C     C_3   0.761815 0.637241 0.894378 -0.178580
H27   H     H_    0.782972 0.672923 0.001429 0.151959
H28   H     H_    0.690043 0.699160 0.836977 0.135609
H29   H     H_    0.846777 0.639248 0.833928 0.182349
O14   O     O_3   0.272871 0.486184 0.095695 -0.527631
C42   C     C_3   0.242860 0.361211 0.112418 -0.217009
H30   H     H_    0.319481 0.301206 0.163968 0.122324
H31   H     H_    0.214346 0.323801 0.008249 0.164706
H32   H     H_    0.164064 0.357724 0.182333 0.187470
O15   O     O_3   0.135695 0.828870 0.497812 -0.743948
H33   H     H_    0.123046 0.755605 0.558536 0.336056
O16   O     O_3   0.884728 0.180253 0.451858 -0.740482
H34   H     H_    0.914482 0.255866 0.407215 0.341024
O17   O     O_3   0.019212 0.560068 0.103949 -0.673983
H35   H     H_    0.996780 0.501545 0.178326 0.353477
O18   O     O_3   0.958036 0.399126 0.897926 -0.656080
H36   H     H_    0.994042 0.461549 0.837209 0.354235

loop_
_geom_bond_atom_site_label_1
_geom_bond_atom_site_label_2
_ccdc_geom_bond_type
C4    C36   A    
C25   O15   S    
O15   H33   S    
C8    H12   S    
C27   C29   A    
C24   H4    S    
O11   C39   S    
O16   H34   S    
C41   H29   S    
O17   H35   S    
C15   C19   S    
C31   H5    S    
C24   C26   A    
C21   O5    A    
C22   O6    A    
Cu2   O3    S    
C5    C36   A    
C17   C20   S    
C6    C35   A    
C7    C9    S    
C18   C19   S    
C38   H19   S    
C16   N1    S    
C13   H13   S    
C14   H14   S    
O13   C41   S    
O10   C38   S    
C23   C33   A    
C39   H23   S    
C31   C33   A    
C36   H8    S    
C42   H31   S    
C21   O7    A    
Cu1   O4    S    
C16   C20   S    
Cu2   O7    S    
Cu1   N1    S    
C19   N1    S    
C17   O11   S    
C1    C12   S    
C19   O13   S    
C2    C11   S    
Cu1   O8    S    
C7    C12   S    
C39   H21   S    
C37   H17   S    
C41   H27   S    
C7    H11   S    
C20   N2    S    
C34   O10   S    
C40   H25   S    
O12   C40   S    
C30   O18   S    
C24   C34   A    
C40   H24   S    
C32   C34   A    
C38   H20   S    
C9    C14   S    
C15   N2    S    
Cu1   Cu2   S    
C1    O3    A    
C22   O8    A    
C5    C28   S    
C6    C27   S    
Cu2   N2    S    
C3    C35   A    
C33   O9    S    
C32   H6    S    
C16   C18   S    
C42   H32   S    
C9    C11   S    
C15   H1    S    
Cu1   O5    S    
C10   C12   S    
C16   H2    S    
Cu2   O6    S    
C4    C6    A    
C18   O12   S    
C12   C14   S    
C9    H9    S    
C10   H10   S    
C39   H22   S    
C35   H7    S    
C17   N1    S    
C26   O16   S    
C15   C17   S    
C8    C14   S    
C41   H28   S    
C3    C5    A    
C10   C13   S    
C40   H26   S    
C2    O4    A    
C25   C27   A    
C26   C28   A    
C23   H3    S    
O18   H36   S    
C29   O17   S    
C37   H15   S    
C28   C30   A    
C1    O1    A    
C29   C31   A    
C2    O2    A    
C30   C32   A    
C4    C21   S    
C11   C13   S    
C8    C11   S    
C20   O14   S    
C23   C25   A    
C38   H18   S    
C18   N2    S    
O9    C37   S    
Cu1   O1    S    
C7    C13   S    
Cu2   O2    S    
O14   C42   S    
C8    C10   S    
C3    C22   S    
C42   H30   S    
C37   H16   S    
