data_mof_unit_50709.cif
_audit_creation_date              2013-03-05T15:40:03-0500
_audit_creation_method            fapswitch 2.2
_symmetry_space_group_name_H-M    P1
_symmetry_Int_Tables_number       1
_space_group_crystal_system       triclinic
_cell_length_a                    7.543544
_cell_length_b                    8.66892
_cell_length_c                    11.077182
_cell_angle_alpha                 87.97487
_cell_angle_beta                  71.828418
_cell_angle_gamma                 102.340135
_cell_volume                      668.285421961

loop_
_atom_site_label
_atom_site_type_symbol
_atom_site_description
_atom_site_fract_x
_atom_site_fract_y
_atom_site_fract_z
_atom_type_partial_charge
O1    O     O_R   0.622710 0.286400 0.490790 -0.576572
O2    O     O_R   0.377290 0.713600 0.509210 -0.576573
O3    O     O_R   0.303660 0.256330 0.514730 -0.530507
O4    O     O_R   0.696340 0.743670 0.485270 -0.530507
C1    C     C_R   0.452005 0.199957 0.506988 0.854536
C2    C     C_R   0.547995 0.800043 0.493012 0.854535
O5    O     O_R   0.600900 0.509520 0.671740 -0.525250
O6    O     O_R   0.399100 0.490480 0.328260 -0.525251
O7    O     O_R   0.281840 0.479450 0.695690 -0.566643
O8    O     O_R   0.718160 0.520550 0.304310 -0.566643
C3    C     C_R   0.423017 0.494642 0.741974 0.852394
C4    C     C_R   0.576983 0.505358 0.258026 0.852394
Cu1   Cu    Cu3+1 0.688910 0.517800 0.485820 1.177632
Cu2   Cu    Cu3+1 0.311090 0.482200 0.514180 1.177631
C5    C     C_2   0.379570 0.478414 0.879513 -0.313202
C6    C     C_2   0.620430 0.521588 0.120487 -0.313201
C7    C     C_2   0.516556 0.528530 0.932870 0.260957
C8    C     C_2   0.483445 0.471470 0.067130 0.260958
H1    H     H_    0.761690 0.592213 0.065096 0.191019
H2    H     H_    0.238310 0.407791 0.934905 0.191020
C9    C     C_2   0.424843 0.031650 0.520806 -0.248912
C10   C     C_2   0.575157 0.968350 0.479194 -0.248913
H3    H     H_    0.281254 0.959794 0.569378 0.226525
H4    H     H_    0.718746 0.040206 0.430622 0.226525
N1    N     N_2   0.027170 0.455360 0.535550 0.038182
N2    N     N_2   0.972830 0.544640 0.464450 0.038182
N3    N     N_R   0.306088 0.360709 0.139484 0.129844
O9    O     O_R   0.144149 0.403697 0.167606 -0.317427
O10   O     O_R   0.309537 0.223311 0.188779 -0.300789
N4    N     N_R   0.693916 0.639290 0.860515 0.129845
O11   O     O_R   0.855854 0.596300 0.832395 -0.317428
O12   O     O_R   0.690469 0.776688 0.811218 -0.300789
N5    N     N_R   0.901280 0.310455 0.588952 0.259017
O13   O     O_R   0.933841 0.183597 0.535858 -0.304117
O14   O     O_R   0.796223 0.294110 0.708644 -0.306686
N6    N     N_R   0.098720 0.689544 0.411046 0.259018
O15   O     O_R   0.066163 0.816402 0.464140 -0.304118
O16   O     O_R   0.203771 0.705889 0.291353 -0.306685

loop_
_geom_bond_atom_site_label_1
_geom_bond_atom_site_label_2
_geom_bond_distance
_ccdc_geom_bond_type
N4    O12   1.301419 A    
O7    Cu2   1.951793 S    
N3    O10   1.301418 A    
O6    C4    1.300115 A    
N6    O16   1.299752 A    
C7    C8    1.477299 S    
C6    C8    1.346520 D    
C9    C10   1.325574 D    
O5    C3    1.300114 A    
C7    N4    1.442918 S    
O7    C3    1.303750 A    
O2    C2    1.298423 A    
O3    Cu2   1.946580 S    
O8    C4    1.303749 A    
C6    H1    1.083326 S    
O1    C1    1.298423 A    
N2    N6    1.384533 S    
N6    O15   1.298720 A    
N5    O14   1.299757 A    
N5    O13   1.298723 A    
C9    H3    1.084056 S    
Cu2   N1    2.040638 S    
N4    O11   1.301400 A    
O2    Cu2   1.955317 S    
C10   H4    1.084055 S    
Cu1   N2    2.040638 S    
O1    Cu1   1.955317 S    
C2    C10   1.425161 S    
O5    Cu1   1.950309 S    
C1    C9    1.425160 S    
O4    C2    1.294331 A    
N3    O9    1.301399 A    
C5    C7    1.346521 D    
O6    Cu2   1.950307 S    
N1    N2    1.296623 D    
Cu1   Cu2   2.715831 S    
C3    C5    1.449857 S    
C8    N3    1.442915 S    
C4    C6    1.449857 S    
O4    Cu1   1.946579 S    
N1    N5    1.384533 S    
C5    H2    1.083328 S    
O3    C1    1.294331 A    
O8    Cu1   1.951793 S    
