data_mof_unit_67066.cif
_audit_creation_date              2013-03-05T15:58:16-0500
_audit_creation_method            fapswitch 2.2
_symmetry_space_group_name_H-M    P1
_symmetry_Int_Tables_number       1
_space_group_crystal_system       triclinic
_cell_length_a                    8.421539
_cell_length_b                    13.021756
_cell_length_c                    14.717199
_cell_angle_alpha                 93.729354
_cell_angle_beta                  91.200775
_cell_angle_gamma                 98.773434
_cell_volume                      1590.89325896

loop_
_atom_site_label
_atom_site_type_symbol
_atom_site_description
_atom_site_fract_x
_atom_site_fract_y
_atom_site_fract_z
_atom_type_partial_charge
P1    P     P_3+3 0.054400 0.427280 0.286870 0.475690
O1    O     O_2   0.887370 0.460630 0.272300 -0.350489
O2    O     O_3   0.129410 0.451380 0.388510 -0.401294
O3    O     O_3   0.670210 0.653170 0.329170 -0.365172
O4    O     O_2   0.789057 0.587046 0.175172 -0.338914
O5    O     O_3   0.000485 0.293105 0.269300 -0.582347
O6    O     O_3   0.697111 0.769497 0.171167 -0.521205
C1    C     C_3   0.572228 0.923510 0.146589 -0.632557
H1    H     H_    0.692853 0.968563 0.138590 0.227030
P2    P     P_3+3 0.668300 0.742890 0.573060 0.448568
P3    P     P_3+3 0.139594 0.840455 0.397040 0.429151
O7    O     O_2   0.845380 0.761330 0.544970 -0.379875
O8    O     O_3   0.088930 0.704860 0.376040 -0.369444
O9    O     O_2   0.992471 0.884917 0.434260 -0.405115
O10   O     O_3   0.698380 0.767595 0.690375 -0.603767
O11   O     O_3   0.182010 0.901280 0.295289 -0.619894
C2    C     C_3   0.081292 0.858471 0.221125 0.436189
H2    H     H_    0.956161 0.837218 0.242387 0.175537
C3    C     C_3   0.091170 0.943358 0.151870 -0.784090
H3    H     H_    0.020561 0.004182 0.175508 0.218684
C4    C     C_3   0.107276 0.765325 0.684649 0.306097
H4    H     H_    0.136746 0.766858 0.611593 0.108612
H5    H     H_    0.981044 0.732180 0.690164 0.094534
C5    C     C_3   0.131454 0.876345 0.730241 -0.434663
H6    H     H_    0.133771 0.875457 0.805453 0.182477
H7    H     H_    0.027144 0.914276 0.712776 0.163417
Ba1   Ba    Ba6+2 0.855630 0.555280 0.454520 1.527532
C6    C     C_3   0.138987 0.244463 0.265213 0.671242
H8    H     H_    0.245724 0.291713 0.301462 0.088771
C7    C     C_3   0.180890 0.221997 0.166134 -1.159350
H9    H     H_    0.072903 0.182147 0.127451 0.278363
H10   H     H_    0.274335 0.170733 0.162356 0.252662
H11   H     H_    0.228401 0.293935 0.133604 0.241430
C8    C     C_3   0.686724 0.676889 0.736196 0.263643
H12   H     H_    0.759173 0.620498 0.704641 0.079033
H13   H     H_    0.559841 0.640682 0.737008 0.156432
C9    C     C_3   0.747393 0.711433 0.833281 -0.518550
H14   H     H_    0.870587 0.755716 0.832928 0.203889
H15   H     H_    0.667629 0.764133 0.862901 0.263369
P4    P     P_3+3 0.135310 0.572810 0.713130 0.468356
O12   O     O_2   0.302330 0.539400 0.727760 -0.335786
O13   O     O_3   0.060300 0.548700 0.611500 -0.407909
O14   O     O_3   0.519500 0.346920 0.670840 -0.341392
O15   O     O_3   0.205978 0.706472 0.729367 -0.555964
P5    P     P_3+3 0.057561 0.159579 0.625901 0.456688
O16   O     O_3   0.614310 0.373510 0.452640 -0.412186
O17   O     O_3   0.100780 0.295230 0.623970 -0.349039
O18   O     O_2   0.186434 0.116940 0.567814 -0.394124
O19   O     O_3   0.104747 0.129384 0.736035 -0.495275
Ba2   Ba    Ba6+2 0.334200 0.444810 0.545490 1.541698
P6    P     P_3+3 0.651431 0.643158 0.209074 0.453369
C10   C     C_3   0.583437 0.830220 0.205082 0.694711
H16   H     H_    0.463246 0.782884 0.202835 -0.076196
H17   H     H_    0.496782 0.975867 0.181537 0.140801
O20   O     O_3   0.575400 0.626570 0.547370 -0.416411
C11   C     C_3   0.610812 0.267776 0.268083 0.442628
H18   H     H_    0.545207 0.331696 0.250575 0.046637
H19   H     H_    0.723575 0.299305 0.306458 0.161688
C12   C     C_3   0.653892 0.211899 0.180450 -1.024520
H20   H     H_    0.544427 0.169134 0.144260 0.248145
H21   H     H_    0.714118 0.269016 0.135023 0.234804
H22   H     H_    0.736287 0.155965 0.195734 0.270618
P7    P     P_3+3 0.526807 0.238288 0.433346 0.401304
O21   O     O_2   0.344320 0.238700 0.455090 -0.370538
O22   O     O_3   0.511692 0.197134 0.317491 -0.612489
H23   H     H_    0.217603 0.982050 0.148888 0.182752
C13   C     C_3   0.985332 0.157193 0.793621 0.343566
H24   H     H_    0.967472 0.239324 0.786413 0.072282
H25   H     H_    0.870094 0.103928 0.778100 0.018162
C14   C     C_3   0.038267 0.147578 0.891824 -0.415927
H26   H     H_    0.153004 0.201081 0.907286 0.224018
H27   H     H_    0.060377 0.066693 0.900945 0.194418
P8    P     P_3+3 0.545319 0.355377 0.789911 0.448020
C15   C     C_3   0.524393 0.167326 0.837229 0.448565
H28   H     H_    0.644954 0.195950 0.868394 0.054415
O23   O     O_2   0.448156 0.440074 0.824232 -0.402336
O24   O     O_3   0.431211 0.246791 0.832076 -0.472340
H29   H     H_    0.537606 0.131328 0.767983 0.082603
H30   H     H_    0.512599 0.025635 0.907230 0.236336
C16   C     C_3   0.438816 0.087356 0.897420 -1.035878
H31   H     H_    0.321974 0.051327 0.865299 0.289315
H32   H     H_    0.417700 0.124906 0.965147 0.252462
C17   C     C_R   0.992642 0.436920 0.055475 -0.214723
C18   C     C_R   0.188191 0.481048 0.191123 0.249603
C19   C     C_R   0.350186 0.516719 0.217781 -0.242190
C20   C     C_R   0.456079 0.571703 0.160675 0.195020
C21   C     C_R   0.406158 0.584429 0.071997 -0.338100
C22   C     C_R   0.253146 0.538403 0.035985 0.039580
C23   C     C_R   0.142596 0.483801 0.094989 0.029278
C24   C     C_R   0.062692 0.497205 0.901809 -0.014876
C25   C     C_R   0.954280 0.439589 0.960420 0.057955
C26   C     C_R   0.016032 0.501022 0.805706 0.252747
C27   C     C_R   0.866505 0.446059 0.774593 -0.428923
C28   C     C_R   0.756583 0.396381 0.833294 0.177412
C29   C     C_R   0.800996 0.392230 0.925352 -0.307648
C30   C     C_R   0.207600 0.551920 0.943248 0.155271
H33   H     H_    0.488560 0.632025 0.032258 0.172037
H34   H     H_    0.713344 0.355304 0.970625 0.144375
H35   H     H_    0.829843 0.447738 0.703856 0.152458
H36   H     H_    0.905339 0.396504 0.098368 0.161992
C31   C     C_R   0.758486 0.175327 0.546357 -0.445821
C32   C     C_R   0.410461 0.819771 0.500574 -0.552889
C33   C     C_R   0.390181 0.994608 0.462868 -0.176692
C34   C     C_R   0.322171 0.889833 0.465411 0.248962
C35   C     C_R   0.570037 0.850028 0.530026 0.325353
C36   C     C_R   0.635066 0.959616 0.538198 -0.054850
C37   C     C_R   0.543317 0.032725 0.501787 -0.055326
C38   C     C_R   0.609898 0.140835 0.502327 0.277875
C39   C     C_R   0.850374 0.105887 0.581924 0.166156
C40   C     C_R   0.789238 0.998594 0.577718 -0.247909
H37   H     H_    0.322240 0.045394 0.429495 0.195656
H38   H     H_    0.863382 0.946436 0.603775 0.178147
H39   H     H_    0.809066 0.256956 0.546772 0.166257
H40   H     H_    0.354090 0.740162 0.503480 0.164395
N1    N     N_2   0.623778 0.864877 0.299593 -0.093936
H41   H     H_    0.525814 0.855771 0.339938 0.137982
C41   C     C_3   0.725416 0.963764 0.319469 -0.915434
H42   H     H_    0.774310 0.967495 0.389032 0.289048
H43   H     H_    0.654879 0.028415 0.313948 0.256256
H44   H     H_    0.827745 0.973754 0.274073 0.257154
N2    N     N_2   0.276133 0.939200 0.701353 -0.066904
H45   H     H_    0.269191 0.958604 0.635067 0.224918
C42   C     C_3   0.427058 0.907080 0.726154 -0.734024
H46   H     H_    0.528298 0.965368 0.707220 0.209380
H47   H     H_    0.436537 0.831099 0.691099 0.269919
H48   H     H_    0.437835 0.900013 0.799775 0.240023
N3    N     N_2   0.105002 0.146603 0.307083 -0.119705
H49   H     H_    0.202703 0.108349 0.312329 0.207841
C43   C     C_3   0.010951 0.148444 0.387760 -0.766112
H50   H     H_    0.884671 0.153598 0.368753 0.223011
H51   H     H_    0.055930 0.217447 0.434380 0.274387
H52   H     H_    0.015044 0.076537 0.422777 0.265506
N4    N     N_2   0.746668 0.623203 0.887134 -0.134368
H53   H     H_    0.638630 0.575212 0.883385 0.206205
C44   C     C_3   0.800803 0.647020 0.980310 -0.683539
H54   H     H_    0.772215 0.575906 0.016955 0.244460
H55   H     H_    0.736377 0.706037 0.012463 0.325696
H56   H     H_    0.931432 0.673829 0.985945 0.247765
C45   C     C_2   0.499202 0.893065 0.054205 0.605102
H57   H     H_    0.389491 0.920238 0.034317 -0.034701
O25   O     O_2   0.565430 0.841545 0.999357 -0.591773
N5    N     N_2   0.917171 0.176255 0.952519 -0.123468
H58   H     H_    0.958370 0.236468 0.999813 0.205133
C46   C     C_3   0.815238 0.091786 0.990643 -0.891889
H59   H     H_    0.704541 0.119258 0.014377 0.253557
H60   H     H_    0.877117 0.067028 0.050216 0.265127
H61   H     H_    0.782748 0.025033 0.939310 0.290249
N6    N     N_2   0.400945 0.510592 0.308785 -0.119227
H62   H     H_    0.511029 0.487537 0.319133 0.204079
C47   C     C_3   0.370986 0.599949 0.364393 -0.544010
H63   H     H_    0.394543 0.590051 0.435121 0.248976
H64   H     H_    0.249058 0.602063 0.356917 0.256902
H65   H     H_    0.419030 0.676708 0.340531 0.152881
N7    N     N_2   0.292483 0.634466 0.897410 -0.066969
H66   H     H_    0.414694 0.638772 0.895509 0.189239
C48   C     C_3   0.239345 0.732665 0.919661 -0.832688
H67   H     H_    0.320360 0.795641 0.890976 0.264155
H68   H     H_    0.238820 0.748497 0.993571 0.214946
H69   H     H_    0.116963 0.731482 0.891087 0.233188
C49   C     C_2   0.141872 0.764701 0.180005 0.575877
H70   H     H_    0.241486 0.773745 0.135888 -0.111511
O26   O     O_2   0.078535 0.677840 0.195279 -0.546536
C50   C     C_2   0.035070 0.905519 0.056635 0.511322
H71   H     H_    0.118768 0.909535 0.001701 0.019590
O27   O     O_2   0.893915 0.873540 0.039510 -0.539345

loop_
_geom_bond_atom_site_label_1
_geom_bond_atom_site_label_2
_geom_bond_distance
_ccdc_geom_bond_type
P2    Ba1   3.498191 S    
O14   P8    1.755541 S    
C44   H56   1.101920 S    
C21   C22   1.412465 A    
P7    O22   1.749806 S    
C27   C28   1.394736 A    
C8    C9    1.523355 S    
C31   H39   1.082708 S    
C50   H71   1.082283 S    
C19   N6    1.408252 S    
C22   C30   1.439011 A    
C29   H34   1.083535 S    
C42   H46   1.104867 S    
C19   C20   1.388949 A    
P1    C18   1.923433 S    
C43   H51   1.107559 S    
C32   C35   1.393187 A    
C1    C45   1.484739 S    
C48   H67   1.096651 S    
C50   O27   1.213592 D    
C5    H7    1.105044 S    
O6    C10   1.410809 S    
P1    O1    1.548891 D    
P2    O10   1.741600 S    
C41   H43   1.107995 S    
C7    H9    1.102876 S    
P3    O9    1.541560 D    
P5    C39   1.863826 S    
C42   H47   1.100406 S    
C36   C37   1.436629 A    
C31   C39   1.395891 A    
N1    H41   1.023285 S    
Ba2   O21   2.930995 S    
C11   H18   1.107548 S    
C3    H23   1.109359 S    
C33   H37   1.073246 S    
C8    H12   1.109656 S    
C2    C49   1.491410 S    
C26   C27   1.402107 A    
C18   C19   1.411163 A    
C30   N7    1.414801 S    
C3    H3    1.103824 S    
C1    H1    1.105524 S    
N1    C41   1.442429 S    
C47   H65   1.101966 S    
C37   C38   1.433132 A    
C14   H26   1.111590 S    
C1    C10   1.547033 S    
O10   C8    1.389431 S    
N7    C48   1.438347 S    
C6    N3    1.443522 S    
C43   H52   1.102459 S    
C45   O25   1.214631 D    
C31   C38   1.394349 A    
P4    O13   1.604235 S    
C12   H20   1.108078 S    
C15   C16   1.518665 S    
C4    H4    1.109268 S    
P8    C28   1.864517 S    
C46   H61   1.111110 S    
P6    C20   1.864773 S    
O2    Ba2   2.867572 S    
O17   Ba2   2.865647 S    
P5    O17   1.750531 S    
C17   C23   1.411912 A    
O5    C6    1.410195 S    
C12   H21   1.105086 S    
C14   N5    1.445110 S    
C15   H28   1.105873 S    
O3    P6    1.765785 S    
C13   H24   1.113934 S    
C44   H54   1.099431 S    
C5    H6    1.107521 S    
C16   H32   1.111197 S    
C41   H44   1.098714 S    
C1    H17   1.110535 S    
C20   C21   1.390634 A    
C16   H31   1.105730 S    
C42   H48   1.096393 S    
O7    Ba1   2.930787 S    
C15   O24   1.395618 S    
P7    O21   1.577077 D    
P1    O2    1.604359 S    
C49   O26   1.211793 D    
N3    C43   1.441946 S    
C9    H14   1.107713 S    
C32   H40   1.076266 S    
C4    O15   1.395846 S    
P3    O11   1.757221 S    
C24   C26   1.465981 A    
P5    O19   1.744492 S    
C2    H2    1.105045 S    
N2    H45   1.026220 S    
C3    C50   1.497277 S    
P4    C26   1.917232 S    
C32   C34   1.380303 A    
P2    O20   1.612739 S    
N7    H66   1.023224 S    
P3    C34   1.827423 S    
P2    O7    1.543378 D    
O13   Ba2   2.994910 S    
Ba1   O16   2.873181 S    
C46   H60   1.101384 S    
P4    O12   1.549266 D    
C17   H36   1.077338 S    
C4    H5    1.091418 S    
O1    Ba1   2.912555 S    
N4    H53   1.020472 S    
P8    O23   1.536637 D    
C47   H64   1.035138 S    
C18   C23   1.462355 A    
N3    H49   1.028815 S    
O12   Ba2   2.913109 S    
O3    Ba1   2.873826 S    
C10   H16   1.100548 S    
C10   N1    1.451059 S    
N4    C44   1.435211 S    
C43   H50   1.107017 S    
C36   C40   1.417942 A    
P5    O18   1.542069 D    
C44   H55   1.095233 S    
C27   H35   1.082194 S    
C6    H8    1.113405 S    
C12   H22   1.109749 S    
O19   C13   1.402718 S    
C7    H11   1.104013 S    
C47   H63   1.075219 S    
C48   H69   1.102477 S    
O4    P6    1.536665 D    
N6    C47   1.435867 S    
C46   H59   1.103707 S    
C33   C37   1.405132 A    
C45   H57   1.079999 S    
Ba1   Ba2   4.679534 S    
O14   Ba2   2.873222 S    
C24   C30   1.419814 A    
C11   O22   1.396402 S    
C17   C25   1.432985 A    
C35   C36   1.444743 A    
O16   Ba2   2.988677 S    
Ba2   O20   2.872501 S    
C11   C12   1.517399 S    
O16   P7    1.804031 S    
C13   C14   1.522106 S    
C49   H70   1.068554 S    
O2    Ba1   2.994126 S    
O6    P6    1.760998 S    
C6    C7    1.527712 S    
C9    H15   1.107328 S    
C41   H42   1.090778 S    
C7    H10   1.106924 S    
P3    O8    1.757526 S    
Ba1   O13   2.866999 S    
C24   C25   1.431351 A    
O11   C2    1.399770 S    
P4    Ba2   3.487204 S    
C48   H68   1.094091 S    
C5    N2    1.448438 S    
C2    C3    1.545867 S    
C8    H13   1.100829 S    
C11   H19   1.103520 S    
Ba1   O20   2.989480 S    
N6    H62   1.028464 S    
C28   C29   1.404588 A    
C9    N4    1.436896 S    
C40   H38   1.073063 S    
N2    C42   1.444379 S    
C25   C29   1.414530 A    
H30   C16   1.102993 S    
P4    O15   1.750607 S    
C22   C23   1.427820 A    
C15   H29   1.108711 S    
C4    C5    1.536212 S    
C33   C34   1.400027 A    
P1    Ba1   3.486731 S    
P8    O24   1.741401 S    
N5    H58   1.027386 S    
O8    Ba1   2.865049 S    
P2    C35   1.864793 S    
C14   H27   1.113207 S    
C13   H25   1.113486 S    
P7    C38   1.881328 S    
C39   C40   1.410280 A    
N5    C46   1.440131 S    
P1    O5    1.737818 S    
C21   H33   1.068033 S    
