data_mof_unit_29513.cif
_audit_creation_date              2012-12-11T21:09:54-0500
_audit_creation_method            fapswitch 2.2
_symmetry_space_group_name_H-M    P1
_symmetry_Int_Tables_number       1
_space_group_crystal_system       triclinic
_cell_length_a                    8.381282
_cell_length_b                    19.306315
_cell_length_c                    27.165069
_cell_angle_alpha                 99.910374
_cell_angle_beta                  91.807101
_cell_angle_gamma                 87.829459
_cell_volume                      4325.53027962

loop_
_atom_site_label
_atom_site_type_symbol
_atom_type_description
_atom_site_fract_x
_atom_site_fract_y
_atom_site_fract_z
_atom_type_partial_charge
Ba1   Ba    Ba6+2 0.160260 0.465850 0.521400 1.822720
Ba2   Ba    Ba6+2 0.649930 0.534160 0.478640 1.819318
C1    C     C_3   0.386086 0.149723 0.624007 -0.384457
C2    C     C_R   0.992909 0.727566 0.517308 0.013530
C3    C     C_R   0.135744 0.813841 0.459809 -0.110905
C4    C     C_3   0.942157 0.287880 0.628916 0.315920
C5    C     C_R   0.199766 0.746280 0.461368 -0.084953
C6    C     C_R   0.681099 0.187589 0.541762 -0.216479
C7    C     C_R   0.601332 0.250313 0.533091 0.045803
C8    C     C_R   0.869139 0.198658 0.478568 -0.107454
C9    C     C_R   0.821384 0.270759 0.482277 0.031412
C10   C     C_R   0.024893 0.846605 0.495837 0.037037
C11   C     C_R   0.115966 0.701680 0.485329 -0.230692
C12   C     C_3   0.422130 0.227901 0.639282 0.721421
C13   C     C_R   0.802206 0.154216 0.509752 0.009707
C14   C     C_R   0.674308 0.290886 0.502993 -0.072706
C15   C     C_R   0.229008 0.964462 0.472386 -0.070179
C16   C     C_3   0.970686 0.217356 0.646682 -0.221623
C17   C     C_R   0.318561 0.015432 0.456793 -0.072982
C18   C     C_R   0.275222 0.085345 0.471596 -0.052701
C19   C     C_R   0.135118 0.102578 0.497203 -0.090733
C20   C     C_R   0.018992 0.052405 0.498017 0.017702
C21   C     C_R   0.071045 0.979347 0.489491 0.049584
C22   C     C_R   0.858678 0.075298 0.509496 0.007061
C23   C     C_3   0.311276 0.304684 0.359039 0.698805
C24   C     C_R   0.755549 0.021008 0.518764 0.062297
C25   C     C_R   0.808331 0.947894 0.512476 0.008128
C26   C     C_R   0.968294 0.925238 0.498998 -0.014283
C27   C     C_R   0.596490 0.036356 0.533591 -0.064298
C28   C     C_3   0.876913 0.632304 0.638120 0.221209
C29   C     C_R   0.504282 0.987651 0.550748 -0.075971
C30   C     C_R   0.549664 0.917609 0.540716 -0.035707
C31   C     C_R   0.692690 0.897979 0.517311 -0.083099
C32   C     C_R   0.200671 0.450684 0.158823 0.770103
C33   C     C_R   0.312973 0.564170 0.184522 0.721829
C34   C     C_3   0.257294 0.290129 0.304009 -0.282232
C35   C     C_2   0.041949 0.523063 0.262793 0.288510
C36   C     C_3   0.994651 0.511142 0.314461 -0.044710
C37   C     C_1   0.278360 0.469395 0.327779 -0.109665
C38   C     C_2   0.316146 0.475089 0.280890 0.339514
C39   C     C_2   0.193989 0.505274 0.247313 0.093253
C40   C     C_3   0.946986 0.653649 0.691133 -0.318349
C41   C     C_R   0.320033 0.508795 0.096709 -0.069086
C42   C     C_R   0.238343 0.451687 0.108730 -0.048231
C43   C     C_R   0.197546 0.396303 0.070564 -0.034251
C44   C     C_R   0.359473 0.564989 0.135059 -0.016713
C45   C     C_3   0.957631 0.701763 0.341548 0.312241
C46   C     C_2   0.132955 0.486676 0.345433 -0.323168
C47   C     C_2   0.660028 0.488114 0.642165 -0.270262
C48   C     C_R   0.347046 0.457974 0.956973 0.020498
C49   C     C_R   0.507680 0.562400 0.985273 0.020816
C50   C     C_R   0.448756 0.510342 0.946160 0.057647
C51   C     C_R   0.280871 0.410897 0.916444 -0.094584
C52   C     C_3   0.881128 0.345612 0.355262 0.282452
C53   C     C_R   0.318837 0.413243 0.867297 -0.030457
C54   C     C_R   0.425666 0.462152 0.856319 -0.049213
C55   C     C_R   0.491740 0.510636 0.895710 -0.079689
C56   C     C_3   0.039974 0.702363 0.291954 -0.337250
C57   C     C_R   0.600103 0.559554 0.884618 -0.034690
C58   C     C_R   0.643250 0.558296 0.834507 0.604499
C59   C     C_R   0.466890 0.463791 0.806618 0.631543
C60   C     C_2   0.769333 0.491476 0.728922 -0.063593
C61   C     C_3   0.810915 0.492362 0.674950 -0.155418
C62   C     C_1   0.527228 0.520299 0.659537 -0.027452
C63   C     C_2   0.492513 0.526061 0.707360 -0.085035
C64   C     C_3   0.809268 0.300147 0.308905 -0.242487
C65   C     C_2   0.618724 0.509912 0.744670 0.217393
C66   C     C_R   0.313439 0.454713 0.007616 0.021433
C67   C     C_3   0.396966 0.729993 0.353957 0.322854
C68   C     C_R   0.363253 0.509403 0.046327 0.059899
C69   C     C_R   0.456128 0.564533 0.035163 0.020671
C70   C     C_R   0.233055 0.397908 0.021105 -0.085671
C71   C     C_R   0.444735 0.620642 0.123164 -0.037277
C72   C     C_R   0.617444 0.610292 0.972954 -0.090220
C73   C     C_R   0.663086 0.608544 0.923823 -0.042982
C74   C     C_R   0.493094 0.620272 0.074486 -0.067322
C75   C     C_3   0.324922 0.687749 0.600084 0.246554
C76   C     C_3   0.308694 0.765744 0.622841 -0.225775
C77   C     C_2   0.853597 0.714768 0.720031 1.009882
C78   C     C_3   0.472318 0.752348 0.309116 -0.268773
C79   C     C_2   0.465938 0.794838 0.642999 0.944231
C80   C     C_2   0.860230 0.205940 0.686593 0.959567
C81   C     C_2   0.897392 0.774587 0.364186 0.861805
C82   C     C_2   0.163743 0.627709 0.478328 0.866050
C83   C     C_2   0.638505 0.423631 0.608213 0.837193
C84   C     C_R   0.966308 0.801651 0.527952 -0.116277
H1    H     H_    0.948538 0.609217 0.712018 0.018319
H2    H     H_    0.280600 0.134535 0.642628 0.149146
H3    H     H_    0.220465 0.772606 0.653194 0.112932
H4    H     H_    0.262343 0.795752 0.593707 -0.025126
H5    H     H_    0.548818 0.237078 0.633226 -0.026364
H6    H     H_    0.489291 0.116469 0.633506 0.146114
H7    H     H_    0.214771 0.331572 0.382421 -0.025934
H8    H     H_    0.357214 0.265638 0.280600 0.178125
H9    H     H_    0.157709 0.253156 0.298663 0.113488
H10   H     H_    0.213807 0.338699 0.290872 0.069162
H11   H     H_    0.359906 0.137647 0.583350 0.033557
H12   H     H_    0.073342 0.668040 0.688484 0.109435
H13   H     H_    0.044648 0.683214 0.368632 -0.117799
H14   H     H_    0.949588 0.704452 0.261422 0.191888
H15   H     H_    0.115687 0.748485 0.293700 0.103213
H16   H     H_    0.118065 0.654853 0.282747 0.108670
H17   H     H_    0.283659 0.761005 0.361374 -0.058127
H18   H     H_    0.373213 0.672780 0.344877 0.026250
H19   H     H_    0.501960 0.808785 0.318007 0.121956
H20   H     H_    0.388626 0.744612 0.276367 0.105858
H21   H     H_    0.034392 0.291396 0.601200 0.080205
H22   H     H_    0.582659 0.720451 0.298954 0.171904
H23   H     H_    0.984971 0.369877 0.342446 -0.063225
H24   H     H_    0.892973 0.822920 0.559353 0.084765
H25   H     H_    0.172036 0.839002 0.429706 0.072783
H26   H     H_    0.647889 0.163949 0.572582 0.066217
H27   H     H_    0.958331 0.178574 0.451554 0.139222
H28   H     H_    0.613333 0.337446 0.493761 0.106889
H29   H     H_    0.294268 0.916352 0.474055 0.058919
H30   H     H_    0.434049 0.001436 0.440431 0.096658
H31   H     H_    0.356450 0.125653 0.466801 0.160030
H32   H     H_    0.825118 0.287600 0.609518 0.000043
H33   H     H_    0.115894 0.155381 0.516292 0.110910
H34   H     H_    0.796118 0.386011 0.372568 0.082990
H35   H     H_    0.533591 0.083238 0.528304 0.057893
H36   H     H_    0.386681 0.002818 0.565105 0.082868
H37   H     H_    0.467838 0.878347 0.547308 0.114451
H38   H     H_    0.708969 0.843206 0.502523 0.146778
H39   H     H_    0.136558 0.351263 0.078750 0.133517
H40   H     H_    0.862110 0.479411 0.755250 0.116106
H41   H     H_    0.264335 0.375946 0.837730 0.154743
H42   H     H_    0.195212 0.372575 0.921347 0.083587
H43   H     H_    0.960229 0.174010 0.614155 0.005245
H44   H     H_    0.199992 0.352467 0.994354 0.081944
H45   H     H_    0.871460 0.247701 0.301208 0.129481
H46   H     H_    0.475757 0.664850 0.151730 0.110967
H47   H     H_    0.673842 0.648913 0.000774 0.081470
H48   H     H_    0.748014 0.646320 0.916637 0.134445
H49   H     H_    0.372265 0.541381 0.719608 0.106925
H50   H     H_    0.556009 0.665672 0.068603 0.078211
H51   H     H_    0.094637 0.463371 0.376211 0.025014
H52   H     H_    0.092667 0.215066 0.662285 0.136953
H53   H     H_    0.749189 0.620161 0.639361 -0.010511
H54   H     H_    0.944796 0.584987 0.619802 0.063518
H55   H     H_    0.325475 0.208657 0.767630 0.374799
H56   H     H_    0.823553 0.325251 0.275547 0.133701
H57   H     H_    0.658590 0.657944 0.723870 0.264499
H58   H     H_    0.692153 0.815550 0.628799 0.320815
H59   H     H_    0.205144 0.131741 0.375151 0.354363
H60   H     H_    0.694875 0.145022 0.708144 0.352484
H61   H     H_    0.767162 0.833035 0.417619 0.306525
H62   H     H_    0.115106 0.535863 0.441260 0.311467
H63   H     H_    0.524011 0.322694 0.208708 0.364055
H64   H     H_    0.673285 0.606300 0.218814 0.363834
H65   H     H_    0.589526 0.372192 0.664367 0.312979
H66   H     H_    0.681221 0.291766 0.313906 0.167317
H67   H     H_    0.202669 0.669423 0.590708 0.022637
H68   H     H_    0.401487 0.682460 0.566968 0.108104
N1    N     N_R   0.234795 0.507254 0.195872 -0.384701
N2    N     N_R   0.576807 0.510507 0.796221 -0.435013
O1    O     O_2   0.103290 0.325410 0.465600 -0.416677
O2    O     O_2   0.680826 0.551640 0.335806 -0.353759
O3    O     O_3   0.823039 0.659868 0.331788 -0.564917
O4    O     O_3   0.857760 0.414170 0.470020 -0.495603
O5    O     O_3   0.459840 0.537690 0.560170 -0.412464
O6    O     O_2   0.582520 0.462630 0.379680 -0.423451
O7    O     O_3   0.451140 0.343493 0.365905 -0.641558
O8    O     O_2   0.514404 0.751623 0.492218 -0.471949
O9    O     O_3   0.501109 0.744270 0.395467 -0.545790
O10   O     O_2   0.137791 0.399365 0.169624 -0.524061
O11   O     O_2   0.405346 0.423302 0.772457 -0.495605
O12   O     O_3   0.395055 0.650341 0.635077 -0.642391
O13   O     O_2   0.344059 0.613449 0.217648 -0.619563
O14   O     O_2   0.738273 0.600252 0.824885 -0.572207
O15   O     O_3   0.374170 0.371120 0.556000 -0.396523
O16   O     O_2   0.271596 0.250671 0.515605 -0.472767
O17   O     O_3   0.936105 0.301371 0.387684 -0.607379
O18   O     O_3   0.318511 0.268386 0.612841 -0.608410
O19   O     O_2   0.227790 0.537410 0.620340 -0.486379
O20   O     O_3   0.969630 0.407570 0.582610 -0.487674
O21   O     O_2   0.140847 0.444704 0.667292 -0.419722
O22   O     O_2   0.544471 0.288706 0.728791 -0.258607
O23   O     O_3   0.948293 0.343912 0.669707 -0.534753
O24   O     O_2   0.259491 0.309574 0.713336 -0.213191
O25   O     O_3   0.353964 0.187445 0.733079 -0.539168
O26   O     O_2   0.915539 0.771700 0.731517 -0.526708
O27   O     O_R   0.697209 0.707481 0.734288 -0.657834
O28   O     O_2   0.481910 0.819269 0.687423 -0.526277
O29   O     O_R   0.593027 0.794245 0.610898 -0.751100
O30   O     O_2   0.454131 0.175586 0.339907 -0.311802
O31   O     O_2   0.443837 0.232846 0.427143 -0.329298
O32   O     O_3   0.181094 0.182879 0.384079 -0.526911
O33   O     O_2   0.864954 0.244085 0.727469 -0.499167
O34   O     O_2   0.707020 0.674640 0.534420 -0.412764
O35   O     O_R   0.759823 0.148819 0.677922 -0.774140
O36   O     O_2   0.920045 0.825698 0.344469 -0.629416
O37   O     O_R   0.810472 0.783025 0.407817 -0.719902
O38   O     O_2   0.241479 0.604080 0.510477 -0.594907
O39   O     O_R   0.129586 0.584571 0.433963 -0.776663
O40   O     O_2   0.542288 0.463895 0.210686 -0.235410
O41   O     O_2   0.618410 0.419140 0.286085 -0.314998
O42   O     O_3   0.425225 0.347203 0.222580 -0.533811
O43   O     O_2   0.960616 0.593885 0.187726 -0.354715
O44   O     O_2   0.850458 0.478010 0.183879 -0.205394
O45   O     O_3   0.952550 0.585840 0.530020 -0.504021
O46   O     O_3   0.726053 0.582059 0.244538 -0.445236
O47   O     O_2   0.660268 0.422160 0.564038 -0.590588
O48   O     O_R   0.602486 0.363507 0.626845 -0.793843
O49   O     O_3   0.436140 0.628890 0.444040 -0.423958
O50   O     O_3   0.888994 0.689284 0.613293 -0.632993
O51   O     O_3   0.350480 0.462320 0.439870 -0.452875
O52   O     O_3   0.840680 0.592440 0.417430 -0.444915
P1    P     P_3+3 0.926760 0.336170 0.451740 1.033423
P2    P     P_3+3 0.399470 0.558680 0.614150 1.051875
P3    P     P_3+3 0.969840 0.424176 0.648666 1.057998
P4    P     P_3+3 0.883550 0.663840 0.548300 1.019174
P5    P     P_3+3 0.849115 0.578286 0.351477 1.130227
P6    P     P_3+3 0.396664 0.280453 0.555504 1.033223
P7    P     P_3+3 0.407146 0.434434 0.376830 1.025904
P8    P     P_3+3 0.410645 0.719859 0.446621 0.993999
S1    S     S_3+6 0.394839 0.255896 0.705207 -0.043815
S2    S     S_3+6 0.353757 0.221729 0.378110 -0.064663
S3    S     S_3+6 0.482579 0.427192 0.250443 -0.049971
S4    S     S_3+6 0.893655 0.544468 0.218338 -0.039740

loop_
_geom_bond_atom_site_label_1
_geom_bond_atom_site_label_2
_ccdc_geom_bond_type
C53   C54   A    
Ba1   O20   S    
C23   H7    S    
O52   P5    S    
O3    P5    S    
C52   H34   S    
C4    O23   S    
C37   C46   D    
O22   S1    D    
O42   S3    S    
C76   C79   S    
C49   C72   A    
H65   O48   S    
Ba1   O45   S    
Ba2   O6    S    
O24   S1    D    
C73   H48   S    
C45   O3    S    
C32   N1    Am   
C25   C31   A    
C75   O12   S    
O1    P1    D    
O4    P1    S    
O30   S2    D    
C11   C82   S    
C24   C25   A    
C35   C36   S    
C46   H51   S    
C10   C26   S    
C47   C61   S    
Ba2   O51   S    
C52   O17   S    
C84   H24   S    
C7    C14   A    
C22   C24   A    
C56   H15   S    
C8    C13   A    
C40   H12   S    
C10   C84   A    
C69   C74   A    
C80   O35   S    
C55   C57   A    
C2    C84   A    
C82   O39   S    
C28   O50   S    
C72   H47   S    
C78   H20   S    
C23   O7    S    
C45   H13   S    
C54   C55   A    
Ba1   Ba2   S    
O19   P2    D    
O46   S4    S    
C2    C11   A    
C16   H52   S    
O34   P4    D    
O9    P8    S    
C83   O48   S    
C75   H67   S    
O15   P6    S    
O7    P7    S    
Ba1   O19   S    
C17   C18   A    
O49   P8    S    
C43   H39   S    
C6    C7    A    
C63   C65   S    
C27   H35   S    
C31   H38   S    
C48   C50   A    
C4    H21   S    
C12   S1    S    
C68   C69   A    
C56   H16   S    
C45   C81   S    
O45   P4    S    
C36   C46   S    
C5    P8    S    
H63   O42   S    
H58   O29   S    
C67   H17   S    
C1    H2    S    
C71   H46   S    
Ba1   O5    S    
C57   C58   A    
C47   C62   D    
C19   C20   A    
C43   C70   A    
C30   H37   S    
C62   P2    S    
C23   S2    S    
Ba2   O45   S    
C49   C69   A    
O16   P6    D    
C16   C80   S    
Ba2   O5    S    
C79   O29   S    
C18   H31   S    
C67   O9    S    
O6    P7    D    
C51   C53   A    
C76   H3    S    
C74   H50   S    
C4    C16   S    
C48   C51   A    
C28   H54   S    
C72   C73   A    
H59   O32   S    
Ba1   P1    S    
C49   C50   A    
C47   C83   S    
C81   O36   D    
C32   C42   A    
C3    C10   A    
C8    C9    A    
C82   O38   D    
C37   C38   D    
C3    C5    A    
O23   P3    S    
C3    H25   S    
C75   C76   S    
C78   H19   S    
Ba1   O15   S    
O8    P8    D    
C52   H23   S    
C65   N2    S    
C59   O11   D    
H57   O27   S    
C81   O37   S    
C41   C42   A    
C58   N2    Am   
C64   H66   S    
C60   C61   S    
C51   H42   S    
O12   P2    S    
C75   H68   S    
C9    C14   A    
C1    H11   S    
H62   O39   S    
C29   C30   A    
C66   C70   A    
O51   P7    S    
C56   H14   S    
Ba2   O49   S    
C15   C21   A    
C21   C26   A    
C1    C12   S    
C63   H49   S    
C8    H27   S    
C64   H56   S    
C60   C65   D    
C66   C68   A    
C13   C22   S    
C53   H41   S    
C41   C68   A    
C80   O33   D    
O25   S1    S    
O44   S4    D    
C71   C74   A    
C20   C22   A    
H60   O35   S    
Ba2   O52   S    
H64   O46   S    
C36   P5    S    
Ba2   O4    S    
C59   N2    Am   
C57   C73   A    
O40   S3    D    
C42   C43   A    
C15   H29   S    
C60   H40   S    
C64   H45   S    
C67   H18   S    
C38   C39   S    
C38   S3    S    
C28   H53   S    
Ba1   P2    S    
C54   C59   A    
C28   C40   S    
Ba1   O4    S    
O17   P1    S    
O43   S4    D    
Ba2   O34   S    
C29   H36   S    
C33   N1    Am   
C16   H43   S    
C19   H33   S    
C14   H28   S    
C40   C77   S    
O20   P3    S    
C70   H44   S    
C52   C64   S    
O32   S2    S    
C7    P6    S    
C6    C13   A    
O5    P2    S    
C78   H22   S    
Ba2   P4    S    
C2    P4    S    
C77   O26   D    
C37   P7    S    
C58   O14   D    
C62   C63   D    
O21   P3    D    
Ba1   O1    S    
C12   O18   S    
O41   S3    D    
C9    P1    S    
C45   C56   S    
C34   H9    S    
O2    P5    D    
C17   H30   S    
C76   H4    S    
C33   O13   D    
C15   C17   A    
C6    H26   S    
C77   O27   S    
H61   O37   S    
H55   O25   S    
O50   P4    S    
C35   C39   D    
C30   C31   A    
Ba1   O51   S    
C41   C44   A    
C61   P3    S    
C12   H5    S    
C50   C55   A    
C83   O47   D    
C23   C34   S    
C34   H8    S    
C5    C11   A    
C18   C19   A    
C24   C27   A    
C27   C29   A    
C25   C26   A    
C20   C21   A    
C1    H6    S    
C67   C78   S    
C40   H1    S    
C79   O28   D    
O18   P6    S    
C32   O10   D    
C33   C44   A    
C48   C66   A    
C4    H32   S    
C44   C71   A    
C35   S4    S    
C34   H10   S    
C39   N1    S    
O31   S2    D    
