data_mof_unit_40221.cif
_audit_creation_date              2012-12-10T17:52:26-0500
_audit_creation_method            fapswitch 2.2
_symmetry_space_group_name_H-M    P1
_symmetry_Int_Tables_number       1
_space_group_crystal_system       triclinic
_cell_length_a                    18.90525
_cell_length_b                    10.628117
_cell_length_c                    9.911303
_cell_angle_alpha                 89.984791
_cell_angle_beta                  90.555978
_cell_angle_gamma                 91.70377
_cell_volume                      1990.47632351

loop_
_atom_site_label
_atom_site_type_symbol
_atom_type_description
_atom_site_fract_x
_atom_site_fract_y
_atom_site_fract_z
_atom_type_partial_charge
C1    C     C_R   0.501899 0.260817 0.500158 0.877937
C2    C     C_R   0.853837 0.612175 0.506811 -0.094602
C3    C     C_R   0.619927 0.136210 0.626099 -0.253855
C4    C     C_R   0.364844 0.502770 0.499527 0.851052
C5    C     C_R   0.675348 0.072860 0.688169 0.590155
C6    C     C_R   0.676078 0.941785 0.682840 -0.232087
C7    C     C_R   0.620483 0.874142 0.620830 -0.246608
C8    C     C_R   0.562536 0.936944 0.562874 0.036883
C9    C     C_R   0.562617 0.068678 0.564483 0.023118
C10   C     C_R   0.505958 0.128825 0.500423 -0.128690
C11   C     C_R   0.451178 0.063067 0.434834 -0.312534
C12   C     C_R   0.289237 0.530423 0.500320 -0.095598
C13   C     C_R   0.449209 0.933843 0.437224 0.528448
C14   C     C_R   0.504969 0.872024 0.499874 -0.208465
C15   C     C_R   0.410140 0.330521 0.137875 -0.290310
C16   C     C_R   0.501329 0.739389 0.499953 0.928772
C17   C     C_R   0.365652 0.246772 0.067329 -0.246737
C18   C     C_R   0.362830 0.248112 0.927397 0.576117
C19   C     C_R   0.408513 0.332642 0.858389 -0.302774
C20   C     C_R   0.455102 0.417185 0.927013 0.113407
C21   C     C_R   0.455463 0.416789 0.071287 0.184000
C22   C     C_R   0.542744 0.579641 0.072279 -0.113343
C23   C     C_R   0.930507 0.638022 0.506980 0.364120
C24   C     C_R   0.542699 0.579638 0.929129 -0.105888
C25   C     C_R   0.635044 0.504071 0.500677 0.899933
C26   C     C_R   0.263480 0.596386 0.611604 -0.297088
C27   C     C_R   0.194046 0.637085 0.613441 0.107993
C28   C     C_R   0.148854 0.609581 0.503205 0.037455
C29   C     C_R   0.174219 0.542721 0.392696 -0.184185
C30   C     C_R   0.243484 0.502913 0.389976 0.092821
C31   C     C_3   0.712990 0.169190 0.880078 -0.229057
C32   C     C_3   0.333565 0.871356 0.453334 -0.298571
C33   C     C_3   0.291060 0.201363 0.739373 -0.327196
C34   C     C_R   0.073467 0.637332 0.505615 0.304683
C35   C     C_3   0.728283 0.517924 0.844091 -0.324431
C36   C     C_3   0.830108 0.642490 0.162230 -0.297055
C37   C     C_R   0.824015 0.549236 0.618091 -0.346554
C38   C     C_R   0.752577 0.511426 0.618107 0.563167
C39   C     C_R   0.711165 0.532767 0.502202 -0.213989
C40   C     C_R   0.740575 0.597036 0.391592 -0.389492
C41   C     C_R   0.811984 0.635833 0.391703 0.574303
H1    H     H_    0.297942 0.620552 0.696314 0.177074
H2    H     H_    0.139499 0.517907 0.308572 0.173966
H3    H     H_    0.856817 0.525245 0.703868 0.187588
H4    H     H_    0.707239 0.621237 0.306637 0.183936
H5    H     H_    0.408932 0.112311 0.384503 0.145838
H6    H     H_    0.703775 0.082398 0.941164 0.138793
H7    H     H_    0.665671 0.229072 0.882872 0.170382
H8    H     H_    0.757657 0.223571 0.927411 0.200077
H9    H     H_    0.313170 0.968323 0.458188 0.152799
H10   H     H_    0.343703 0.834961 0.556913 0.158009
H11   H     H_    0.291544 0.810240 0.406543 0.208702
H12   H     H_    0.622881 0.237927 0.626154 0.189374
H13   H     H_    0.330119 0.187926 0.657924 0.151697
H14   H     H_    0.274385 0.300947 0.743886 0.166323
H15   H     H_    0.243394 0.142750 0.713037 0.200735
H16   H     H_    0.176710 0.654665 0.813158 0.200020
H17   H     H_    0.203194 0.789183 0.735108 0.190589
H18   H     H_    0.286358 0.347831 0.310483 0.167627
H19   H     H_    0.301685 0.484144 0.221262 0.227758
H20   H     H_    0.710893 0.615936 0.826460 0.143407
H21   H     H_    0.782577 0.518605 0.887863 0.155442
H22   H     H_    0.692345 0.474821 0.920101 0.181905
H23   H     H_    0.719902 0.892204 0.726813 0.156354
H24   H     H_    0.840869 0.540208 0.170648 0.155504
H25   H     H_    0.867950 0.683273 0.088144 0.204428
H26   H     H_    0.776025 0.656541 0.121309 0.145517
H27   H     H_    0.623942 0.772834 0.617711 0.158916
H28   H     H_    0.577711 0.644634 0.126626 0.139206
H29   H     H_    0.406508 0.326450 0.244681 0.218297
H30   H     H_    0.331881 0.181247 0.122681 0.179350
H31   H     H_    0.407002 0.329914 0.751890 0.215949
H32   H     H_    0.577474 0.644841 0.875911 0.138754
N1    N     N_R   0.036254 0.643635 0.388332 -0.186054
N2    N     N_R   0.966087 0.643873 0.389035 -0.112305
N3    N     N_R   0.967857 0.637015 0.624522 -0.184954
N4    N     N_R   0.038072 0.636475 0.623850 -0.138359
N5    N     N_R   0.499340 0.498800 0.142780 -0.105691
N6    N     N_R   0.499320 0.498720 0.857170 -0.101884
N7    N     N_3   0.170341 0.708669 0.725914 -0.435485
N8    N     N_3   0.264448 0.431144 0.275912 -0.455803
O1    O     O_R   0.500000 0.316780 0.614690 -0.638374
O2    O     O_3   0.394629 0.866927 0.373031 -0.590755
O3    O     O_3   0.318086 0.159139 0.864239 -0.595080
O4    O     O_3   0.724177 0.444148 0.725641 -0.571780
O5    O     O_3   0.840088 0.706605 0.286121 -0.586209
O6    O     O_R   0.499990 0.316750 0.385360 -0.626763
O7    O     O_R   0.398140 0.500000 0.614700 -0.637087
O8    O     O_R   0.398130 0.499970 0.385370 -0.623208
O9    O     O_R   0.500010 0.683250 0.614640 -0.629133
O10   O     O_R   0.500000 0.683220 0.385310 -0.576751
O11   O     O_R   0.601870 0.500030 0.614630 -0.585308
O12   O     O_R   0.601860 0.500000 0.385300 -0.626067
O13   O     O_3   0.731399 0.139519 0.746573 -0.583893
Zn1   Zn    Zn3+2 0.500000 0.500020 0.653130 0.938585
Zn2   Zn    Zn3+2 0.500000 0.499980 0.346870 0.952788

loop_
_geom_bond_atom_site_label_1
_geom_bond_atom_site_label_2
_ccdc_geom_bond_type
C33   H14   S    
C16   O9    A    
C3    H12   S    
C19   C20   A    
C23   N3    A    
C5    O13   S    
C36   H26   S    
C7    C8    A    
C25   O12   A    
C41   O5    S    
C26   C27   A    
C29   C30   A    
C28   C29   A    
C34   N4    A    
C5    C6    A    
C36   H25   S    
C24   H32   S    
C2    C41   A    
C11   C13   A    
C18   C19   A    
C6    H23   S    
C1    O6    A    
C15   H29   S    
C32   H11   S    
O10   Zn2   S    
N5    Zn2   S    
C8    C9    A    
C21   N5    A    
C18   O3    S    
C4    C12   S    
C9    C10   A    
C22   H28   S    
H17   N7    S    
C33   H15   S    
C7    H27   S    
O7    Zn1   S    
C28   C34   S    
C31   H6    S    
C13   C14   A    
C29   H2    S    
H16   N7    S    
C19   H31   S    
C31   H8    S    
C40   H4    S    
N1    N2    A    
C38   O4    S    
O9    Zn1   S    
N3    N4    A    
C22   N5    A    
C27   N7    S    
C39   C40   A    
C36   H24   S    
C36   O5    S    
C1    O1    A    
O11   Zn1   S    
C12   C26   A    
C32   H10   S    
N6    Zn1   S    
C37   C38   A    
C3    C9    A    
H19   N8    S    
C24   N6    A    
O6    Zn2   S    
C17   C18   A    
C35   H20   S    
C32   H9    S    
C34   N1    A    
C40   C41   A    
C17   H30   S    
O12   Zn2   S    
C31   H7    S    
C14   C16   S    
C2    C23   S    
C26   H1    S    
C4    O8    A    
C33   H13   S    
C15   C17   A    
C32   O2    S    
C25   O11   A    
C8    C14   A    
O1    Zn1   S    
C20   N6    A    
C12   C30   A    
C1    C10   S    
H18   N8    S    
C23   N2    A    
C3    C5    A    
C6    C7    A    
C4    O7    A    
C31   O13   S    
C13   O2    S    
O8    Zn2   S    
C25   C39   S    
C35   O4    S    
C2    C37   A    
C38   C39   A    
C30   N8    S    
C35   H21   S    
C22   C24   A    
C33   O3    S    
C10   C11   A    
C37   H3    S    
C15   C21   A    
C20   C21   A    
C16   O10   A    
C27   C28   A    
C11   H5    S    
C35   H22   S    
