data_mof_unit_21098.cif
_audit_creation_date              2012-12-10T16:38:36-0500
_audit_creation_method            fapswitch 2.2
_symmetry_space_group_name_H-M    P1
_symmetry_Int_Tables_number       1
_space_group_crystal_system       triclinic
_cell_length_a                    10.82369
_cell_length_b                    10.897788
_cell_length_c                    17.868755
_cell_angle_alpha                 97.998739
_cell_angle_beta                  72.581252
_cell_angle_gamma                 98.396381
_cell_volume                      1979.29135702

loop_
_atom_site_label
_atom_site_type_symbol
_atom_type_description
_atom_site_fract_x
_atom_site_fract_y
_atom_site_fract_z
_atom_type_partial_charge
C1    C     C_R   0.157538 0.480241 0.517622 0.495144
C2    C     C_R   0.586940 0.381645 0.919850 -0.041479
C3    C     C_R   0.673151 0.353954 0.957866 -0.105904
C4    C     C_R   0.843339 0.521038 0.482381 0.501861
C5    C     C_R   0.651784 0.383630 0.038778 0.047440
C6    C     C_R   0.536024 0.435626 0.083869 -0.020218
C7    C     C_R   0.742020 0.355422 0.075185 0.249877
C8    C     C_R   0.713805 0.377180 0.157639 -0.133618
C9    C     C_R   0.505423 0.443147 0.166623 -0.148193
C10   C     C_2   0.981652 0.529354 0.475179 -0.122149
C11   C     C_2   0.021109 0.474171 0.524839 -0.105539
C12   C     C_R   0.280998 0.628361 0.841666 -0.133371
C13   C     C_2   0.542458 0.967651 0.482187 -0.134384
C14   C     C_2   0.448221 0.037937 0.525994 -0.029673
C15   C     C_R   0.468440 0.168850 0.517301 0.491154
C16   C     C_R   0.530125 0.833213 0.483448 0.506246
C17   C     C_R   0.564992 0.436851 0.288026 0.501822
C18   C     C_R   0.435828 0.563103 0.712449 0.499784
C19   C     C_R   0.396394 0.578295 0.799248 -0.001440
C20   C     C_R   0.593664 0.414768 0.202740 -0.008979
C21   C     C_R   0.237345 0.632940 0.924079 -0.012598
C22   C     C_3   0.910878 0.230210 0.054467 -0.001118
C23   C     C_R   0.469004 0.532417 0.839471 -0.127410
C24   C     C_3   0.035676 0.283264 0.076697 -0.268076
C25   C     C_3   0.095911 0.182486 0.100848 -0.475699
C26   C     C_R   0.316321 0.989137 0.573671 0.053162
C27   C     C_R   0.298263 0.948304 0.647845 -0.056029
C28   C     C_R   0.174004 0.904452 0.692781 -0.097133
C29   C     C_R   0.066569 0.901788 0.664310 -0.097527
C30   C     C_R   0.083364 0.942611 0.590778 -0.118579
C31   C     C_R   0.207609 0.986317 0.545607 -0.084958
C32   C     C_R   0.114611 0.689787 0.964669 0.019391
C33   C     C_R   0.099784 0.808569 0.948476 -0.102336
C34   C     C_R   0.421854 0.521990 0.921008 0.011998
C35   C     C_R   0.982123 0.859602 0.982823 -0.117235
C36   C     C_R   0.878505 0.793369 0.034074 -0.102270
C37   C     C_R   0.892029 0.675250 0.050463 -0.095783
C38   C     C_R   0.008999 0.623011 0.015335 -0.091231
C39   C     C_R   0.586963 0.306161 0.843957 0.014291
C40   C     C_R   0.469858 0.242071 0.833752 -0.085490
C41   C     C_R   0.468883 0.168478 0.763602 -0.103669
C42   C     C_R   0.585047 0.155528 0.703564 -0.066148
C43   C     C_R   0.702058 0.219175 0.712904 -0.090992
C44   C     C_R   0.703325 0.294440 0.782767 -0.110213
C45   C     C_R   0.309438 0.581134 0.964470 0.033490
C46   C     C_R   0.489066 0.461287 0.960682 0.020695
C47   C     C_R   0.457036 0.480101 0.044476 0.024756
C48   C     C_R   0.349937 0.546401 0.085879 -0.140315
C49   C     C_R   0.276393 0.592949 0.046885 -0.148747
H1    H     H_    0.196995 0.644154 0.082501 0.120761
H2    H     H_    0.321293 0.566695 0.149003 0.106182
H3    H     H_    0.935922 0.157080 0.004412 0.145194
H4    H     H_    0.838924 0.182735 0.103566 0.118614
H5    H     H_    0.107704 0.324600 0.025347 0.175585
H6    H     H_    0.013983 0.358186 0.126146 0.156261
H7    H     H_    0.026525 0.140592 0.152771 0.151855
H8    H     H_    0.185839 0.224322 0.116630 0.157705
H9    H     H_    0.121993 0.108333 0.051315 0.149258
H10   H     H_    0.381124 0.946263 0.669434 0.098758
H11   H     H_    0.161178 0.871850 0.749442 0.096159
H12   H     H_    0.051574 0.580077 0.429304 0.100738
H13   H     H_    0.970405 0.867696 0.699079 0.109776
H14   H     H_    0.000080 0.940275 0.568727 0.107186
H15   H     H_    0.219099 0.017141 0.488621 0.128628
H16   H     H_    0.179085 0.861360 0.908887 0.097550
H17   H     H_    0.971188 0.950157 0.969199 0.090549
H18   H     H_    0.787592 0.833310 0.060772 0.109958
H19   H     H_    0.811549 0.624070 0.090062 0.131078
H20   H     H_    0.017475 0.530740 0.027511 0.154192
H21   H     H_    0.379240 0.248886 0.880238 0.109336
H22   H     H_    0.377534 0.121527 0.756610 0.096893
H23   H     H_    0.953143 0.423548 0.571402 0.116015
H24   H     H_    0.584676 0.096308 0.649797 0.117599
H25   H     H_    0.791792 0.209989 0.666088 0.102914
H26   H     H_    0.794640 0.343769 0.789034 0.104730
H27   H     H_    0.631685 0.011517 0.444275 0.091495
H28   H     H_    0.414969 0.472828 0.204943 0.109844
H29   H     H_    0.784459 0.364547 0.187049 0.106153
H30   H     H_    0.751505 0.298909 0.925121 0.157318
H31   H     H_    0.223371 0.662682 0.810410 0.132750
H32   H     H_    0.563983 0.506859 0.805924 0.147560
O1    O     O_3   0.500000 0.500000 0.500000 -0.436153
O2    O     O_R   0.470800 0.371790 0.332500 -0.536925
O3    O     O_R   0.380610 0.619380 0.674980 -0.554817
O4    O     O_R   0.632640 0.524780 0.317540 -0.543144
O5    O     O_R   0.515950 0.484050 0.674980 -0.533753
O6    O     O_3   0.863333 0.324818 0.027503 -0.600220
O7    O     O_R   0.535460 0.243030 0.556410 -0.546108
O8    O     O_R   0.437420 0.784080 0.535340 -0.533964
O9    O     O_R   0.223560 0.397520 0.472140 -0.536249
O10   O     O_R   0.803560 0.575360 0.436110 -0.541914
O11   O     O_R   0.209690 0.568800 0.556400 -0.530789
O12   O     O_R   0.763190 0.458310 0.535350 -0.542217
O13   O     O_R   0.414000 0.207090 0.472140 -0.546949
O14   O     O_R   0.613120 0.765800 0.436110 -0.537339
Zn1   Zn    Zn3+2 0.577310 0.422690 0.565550 0.930283
Zn2   Zn    Zn3+2 0.403760 0.371330 0.445150 0.931310
Zn3   Zn    Zn3+2 0.634990 0.589920 0.423760 0.933608
Zn4   Zn    Zn3+2 0.383940 0.616050 0.565540 0.934138

loop_
_geom_bond_atom_site_label_1
_geom_bond_atom_site_label_2
_ccdc_geom_bond_type
O7    Zn1   S    
C1    O9    A    
O1    Zn4   S    
C35   C36   A    
C1    C11   S    
C25   H7    S    
C3    H30   S    
C15   O13   A    
O14   Zn3   S    
C33   H16   S    
C7    C8    A    
C2    C46   A    
C24   H6    S    
C26   C27   A    
C8    C20   A    
C40   H21   S    
O8    Zn4   S    
C17   O4    A    
C28   C29   A    
C37   C38   A    
C30   C31   A    
C24   H5    S    
C37   H19   S    
C17   C20   S    
C18   C19   S    
C41   C42   A    
O4    Zn3   S    
C46   C47   A    
C2    C39   S    
C48   H2    S    
C7    O6    S    
C42   H24   S    
C18   O3    A    
C34   C46   A    
C32   C38   A    
C42   C43   A    
O9    Zn2   S    
C41   H22   S    
C4    O10   A    
C43   H25   S    
C38   H20   S    
C18   O5    A    
C16   O8    A    
C30   H14   S    
C8    H29   S    
O1    Zn3   S    
C25   H8    S    
C6    C9    A    
C22   H4    S    
C21   C45   A    
C28   H11   S    
C21   C32   S    
C36   H18   S    
O1    Zn1   S    
C6    C47   A    
C24   C25   S    
C39   C40   A    
C5    C7    A    
C11   H23   S    
C35   H17   S    
C12   C21   A    
C17   O2    A    
C44   H26   S    
C19   C23   A    
C43   C44   A    
C29   C30   A    
C9    C20   A    
C47   C48   A    
C13   H27   S    
C45   C49   A    
C23   C34   A    
C34   C45   A    
C9    H28   S    
C22   O6    S    
C14   C26   S    
O5    Zn1   S    
C48   C49   A    
O12   Zn1   S    
O1    Zn2   S    
C22   C24   S    
C10   H12   S    
C25   H9    S    
C4    C10   S    
C22   H3    S    
C29   H13   S    
C40   C41   A    
C16   O14   A    
C23   H32   S    
O3    Zn4   S    
C31   H15   S    
C3    C5    A    
C39   C44   A    
C1    O11   A    
O13   Zn2   S    
C32   C33   A    
C2    C3    A    
C27   H10   S    
C5    C6    A    
C12   H31   S    
C12   C19   A    
C33   C35   A    
O10   Zn3   S    
C10   C11   D    
C4    O12   A    
C26   C31   A    
C36   C37   A    
C49   H1    S    
O2    Zn2   S    
C13   C16   S    
C27   C28   A    
C14   C15   S    
C13   C14   D    
O11   Zn4   S    
C15   O7    A    
