data_mof_unit_17037.cif
_audit_creation_date              2013-03-05T15:56:47-0500
_audit_creation_method            fapswitch 2.2
_symmetry_space_group_name_H-M    P1
_symmetry_Int_Tables_number       1
_space_group_crystal_system       triclinic
_cell_length_a                    20.9927
_cell_length_b                    21.844026
_cell_length_c                    13.903776
_cell_angle_alpha                 88.58678
_cell_angle_beta                  88.117742
_cell_angle_gamma                 89.305502
_cell_volume                      6369.99955622

loop_
_atom_site_label
_atom_site_type_symbol
_atom_site_description
_atom_site_fract_x
_atom_site_fract_y
_atom_site_fract_z
_atom_type_partial_charge
O1    O     O_R   0.064880 0.435140 0.582280 -0.537680
O2    O     O_R   0.935120 0.564860 0.417720 -0.543727
O3    O     O_R   0.935120 0.564860 0.582280 -0.525434
O4    O     O_R   0.064880 0.435140 0.417720 -0.515093
O5    O     O_R   0.935120 0.435140 0.417720 -0.501485
O6    O     O_R   0.064880 0.564860 0.582280 -0.511768
O7    O     O_R   0.064880 0.564860 0.417720 -0.610519
O8    O     O_R   0.935120 0.435140 0.582280 -0.589069
O9    O     O_R   0.564880 0.935140 0.582280 -0.537671
O10   O     O_R   0.435120 0.064860 0.417720 -0.543699
O11   O     O_R   0.435120 0.064860 0.582280 -0.525492
O12   O     O_R   0.564880 0.935140 0.417720 -0.515074
O13   O     O_R   0.435120 0.935140 0.417720 -0.501489
O14   O     O_R   0.564880 0.064860 0.582280 -0.511789
O15   O     O_R   0.564880 0.064860 0.417720 -0.610500
O16   O     O_R   0.435120 0.935140 0.582280 -0.589083
C1    C     C_R   0.086445 0.415698 0.499488 0.824447
C2    C     C_R   0.914795 0.585430 0.500310 0.934652
C3    C     C_R   0.914440 0.413468 0.500525 0.896900
C4    C     C_R   0.083428 0.587792 0.498274 0.819718
C5    C     C_R   0.586445 0.915697 0.499489 0.824475
C6    C     C_R   0.414793 0.085426 0.500311 0.934499
C7    C     C_R   0.414439 0.913469 0.500524 0.896883
C8    C     C_R   0.583424 0.087795 0.498274 0.819557
Cu1   Cu    Cu3+1 0.000000 0.500000 0.597420 1.136595
Cu2   Cu    Cu3+1 0.000000 0.500000 0.402580 1.131242
Cu3   Cu    Cu3+1 0.500000 0.000000 0.597420 1.136565
Cu4   Cu    Cu3+1 0.500000 0.000000 0.402580 1.131247
C9    C     C_R   0.142542 0.671279 0.579751 0.360264
C10   C     C_R   0.850275 0.335609 0.411953 0.331978
C11   C     C_R   0.883630 0.693581 0.516984 0.281928
C12   C     C_R   0.118766 0.309229 0.470046 0.309902
C13   C     C_R   0.642555 0.171269 0.579750 0.360195
C14   C     C_R   0.350279 0.835606 0.411953 0.331993
C15   C     C_R   0.383654 0.193576 0.516992 0.281808
C16   C     C_R   0.618752 0.809222 0.470054 0.309905
C17   C     C_R   0.125092 0.642692 0.493996 -0.190637
C18   C     C_R   0.860948 0.368027 0.497536 -0.175734
C19   C     C_R   0.865834 0.633025 0.501571 -0.118894
C20   C     C_R   0.135471 0.367866 0.497833 -0.184560
C21   C     C_R   0.625089 0.142694 0.493993 -0.190730
C22   C     C_R   0.360948 0.868028 0.497534 -0.175749
C23   C     C_R   0.365841 0.133028 0.501567 -0.118757
C24   C     C_R   0.635463 0.867858 0.497843 -0.184631
C25   C     C_R   0.144960 0.670001 0.404089 -0.099028
C26   C     C_R   0.817523 0.359952 0.576229 -0.098584
C27   C     C_R   0.801598 0.618464 0.488658 -0.082688
C28   C     C_R   0.198795 0.381704 0.516416 -0.051994
C29   C     C_R   0.644951 0.170009 0.404086 -0.098943
C30   C     C_R   0.317520 0.859955 0.576223 -0.098580
C31   C     C_R   0.301609 0.118482 0.488616 -0.082716
C32   C     C_R   0.698782 0.881679 0.516489 -0.051998
C33   C     C_R   0.195294 0.712936 0.400939 -0.000069
C34   C     C_R   0.763192 0.322851 0.570423 0.058430
C35   C     C_R   0.757781 0.666874 0.471405 -0.068892
C36   C     C_R   0.242642 0.332889 0.530695 0.076325
C37   C     C_R   0.695286 0.212944 0.400936 -0.000062
C38   C     C_R   0.263189 0.822856 0.570415 0.058449
C39   C     C_R   0.257808 0.166900 0.471338 -0.068879
C40   C     C_R   0.742609 0.832854 0.530808 0.076373
C41   C     C_R   0.208508 0.743189 0.486524 0.018679
C42   C     C_R   0.755241 0.289044 0.486645 0.004177
C43   C     C_R   0.773457 0.726563 0.499908 0.029126
C44   C     C_R   0.226992 0.273690 0.498892 -0.010669
C45   C     C_R   0.708505 0.243191 0.486524 0.018696
C46   C     C_R   0.255243 0.789041 0.486642 0.004173
C47   C     C_R   0.273495 0.226592 0.499820 0.029210
C48   C     C_R   0.726958 0.773661 0.498980 -0.010696
C49   C     C_R   0.175728 0.726864 0.573453 -0.061311
C50   C     C_R   0.794548 0.300085 0.404047 -0.097700
C51   C     C_R   0.836022 0.739124 0.528717 -0.048422
C52   C     C_R   0.165158 0.261829 0.465471 -0.106787
C53   C     C_R   0.675735 0.226856 0.573456 -0.061265
C54   C     C_R   0.294554 0.800078 0.404047 -0.097709
C55   C     C_R   0.336067 0.239154 0.528613 -0.048532
C56   C     C_R   0.665132 0.761809 0.465524 -0.106783
C57   C     C_R   0.230723 0.728499 0.314874 -0.138738
C58   C     C_R   0.716023 0.318102 0.646134 -0.123969
C59   C     C_R   0.699199 0.657173 0.426604 -0.158898
C60   C     C_R   0.301004 0.341134 0.577322 -0.121577
C61   C     C_R   0.730713 0.228511 0.314871 -0.138748
C62   C     C_R   0.216011 0.818118 0.646115 -0.123968
C63   C     C_R   0.199230 0.157202 0.426524 -0.158942
C64   C     C_R   0.800945 0.841078 0.577519 -0.121625
C65   C     C_R   0.778633 0.273176 0.316194 0.323900
C66   C     C_R   0.176314 0.766980 0.651529 0.283409
C67   C     C_R   0.152203 0.203664 0.427075 0.335066
C68   C     C_R   0.848782 0.795653 0.571460 0.258319
C69   C     C_R   0.278642 0.773165 0.316195 0.323911
C70   C     C_R   0.676332 0.266961 0.651546 0.283418
C71   C     C_R   0.652174 0.703640 0.427141 0.335061
C72   C     C_R   0.348848 0.295721 0.571227 0.258275
C73   C     C_R   0.056731 0.490529 0.790988 0.435532
C74   C     C_R   0.945482 0.515092 0.207547 0.464319
C75   C     C_R   0.946592 0.516804 0.798713 0.483892
C76   C     C_R   0.056268 0.490043 0.204283 0.418307
C77   C     C_R   0.556730 0.990526 0.790991 0.435549
C78   C     C_R   0.445482 0.015092 0.207547 0.464344
C79   C     C_R   0.446592 0.016806 0.798712 0.483877
C80   C     C_R   0.556268 0.990043 0.204282 0.418308
N1    N     N_R   0.000000 0.500000 0.743810 -0.292810
N2    N     N_R   1.000000 0.500000 0.256190 -0.293425
N3    N     N_R   0.500000 0.000000 0.743810 -0.292800
N4    N     N_R   0.500000 0.000000 0.256190 -0.293426
C81   C     C_R   0.950561 0.529068 0.898820 -0.038128
C82   C     C_R   0.060009 0.497286 0.101261 -0.101786
C83   C     C_R   0.060911 0.497287 0.893782 -0.121655
C84   C     C_R   0.945775 0.519633 0.104228 -0.080100
C85   C     C_R   0.450560 0.029069 0.898821 -0.038127
C86   C     C_R   0.560008 0.997287 0.101261 -0.101792
C87   C     C_R   0.560910 0.997287 0.893783 -0.121672
C88   C     C_R   0.445774 0.019633 0.104229 -0.080096
C89   C     C_R   0.005303 0.512107 0.948033 0.036632
C90   C     C_R   0.003877 0.510042 0.051373 0.036813
C91   C     C_R   0.505302 0.012108 0.948034 0.036640
C92   C     C_R   0.503876 0.010043 0.051373 0.036811
C93   C     C_R   0.897509 0.552180 0.952623 -0.050184
C94   C     C_R   0.118538 0.493535 0.046364 -0.028620
C95   C     C_R   0.118972 0.491423 0.944243 -0.063802
C96   C     C_R   0.890956 0.537529 0.051524 -0.081773
C97   C     C_R   0.397508 0.052180 0.952624 -0.050190
C98   C     C_R   0.618537 0.993538 0.046365 -0.028597
C99   C     C_R   0.618971 0.991425 0.944244 -0.063795
C100  C     C_R   0.390955 0.037527 0.051525 -0.081765
N5    N     N_R   0.132636 0.642084 0.672826 0.155005
O17   O     O_R   0.181991 0.627297 0.722967 -0.317075
O18   O     O_R   0.076572 0.642945 0.715690 -0.236563
N6    N     N_R   0.901933 0.326688 0.343248 0.165431
O19   O     O_R   0.925500 0.271687 0.333925 -0.207909
O20   O     O_R   0.913421 0.367343 0.275097 -0.233382
N7    N     N_R   0.949939 0.708870 0.516286 0.119707
O21   O     O_R   0.986723 0.686080 0.581779 -0.285035
O22   O     O_R   0.973215 0.746926 0.451213 -0.255187
N8    N     N_R   0.055409 0.300488 0.439104 0.136818
O23   O     O_R   0.009684 0.290038 0.502576 -0.318732
O24   O     O_R   0.041767 0.317159 0.351685 -0.212813
N9    N     N_R   0.632698 0.142048 0.672815 0.154992
O25   O     O_R   0.682080 0.127257 0.722893 -0.317071
O26   O     O_R   0.576654 0.142892 0.715744 -0.236670
N10   N     N_R   0.401937 0.826689 0.343246 0.165438
O27   O     O_R   0.425508 0.771690 0.333922 -0.207893
O28   O     O_R   0.413421 0.867345 0.275096 -0.233394
N11   N     N_R   0.449974 0.208797 0.516498 0.119453
O29   O     O_R   0.486593 0.186140 0.582312 -0.284322
O30   O     O_R   0.473468 0.246503 0.451079 -0.255557
N12   N     N_R   0.555402 0.800492 0.439075 0.136849
O31   O     O_R   0.509658 0.790062 0.502523 -0.318780
O32   O     O_R   0.541789 0.817154 0.351640 -0.212789
C101  C     C_2   0.106643 0.662460 0.317396 0.458498
H1    H     H_    0.107158 0.619616 0.279722 0.112171
O33   O     O_2   0.075579 0.705576 0.285730 -0.431924
C102  C     C_2   0.831342 0.387211 0.667118 0.518456
H2    H     H_    0.821724 0.435362 0.672285 0.178428
O34   O     O_2   0.851216 0.356196 0.734218 -0.449640
C103  C     C_2   0.777827 0.554821 0.506740 0.447932
H3    H     H_    0.728410 0.547842 0.529271 0.126246
O35   O     O_2   0.812152 0.509859 0.497500 -0.547726
C104  C     C_2   0.219899 0.446575 0.503549 0.553133
H4    H     H_    0.186373 0.484220 0.512897 0.082146
O36   O     O_2   0.274222 0.458600 0.475836 -0.503197
C105  C     C_2   0.606641 0.162462 0.317388 0.458612
H5    H     H_    0.607140 0.119609 0.279739 0.112154
O37   O     O_2   0.575606 0.205586 0.285677 -0.431810
C106  C     C_2   0.331335 0.887216 0.667113 0.518466
H6    H     H_    0.321733 0.935370 0.672268 0.178436
O38   O     O_2   0.351189 0.856199 0.734225 -0.449647
C107  C     C_2   0.277820 0.054845 0.506700 0.447981
H7    H     H_    0.228395 0.047877 0.529195 0.126240
O39   O     O_2   0.312139 0.009875 0.497505 -0.547703
C108  C     C_2   0.719909 0.946545 0.503654 0.553182
H8    H     H_    0.686381 0.984199 0.512911 0.082156
O40   O     O_2   0.774259 0.958559 0.476063 -0.503191
C109  C     C_2   0.223289 0.693967 0.225322 0.520734
H9    H     H_    0.221817 0.644394 0.229065 0.103899
O41   O     O_2   0.217020 0.720471 0.147796 -0.398706
C110  C     C_2   0.700502 0.369487 0.711520 0.489004
H10   H     H_    0.688044 0.360685 0.786823 0.158247
O42   O     O_2   0.698510 0.422173 0.680160 -0.509824
C111  C     C_2   0.690781 0.601868 0.367401 0.449129
H11   H     H_    0.731838 0.581452 0.330442 0.125556
O43   O     O_2   0.639007 0.577687 0.361217 -0.414052
C112  C     C_2   0.309663 0.392141 0.644879 0.549076
H12   H     H_    0.356432 0.410942 0.654995 0.137882
O44   O     O_2   0.264750 0.412021 0.693091 -0.449320
C113  C     C_2   0.723279 0.193982 0.225316 0.520785
H13   H     H_    0.721810 0.144409 0.229054 0.103874
O45   O     O_2   0.717009 0.220488 0.147792 -0.398687
C114  C     C_2   0.200488 0.869511 0.711482 0.489019
H14   H     H_    0.188016 0.860719 0.786783 0.158237
O46   O     O_2   0.198509 0.922195 0.680108 -0.509812
C115  C     C_2   0.190823 0.101904 0.367299 0.449106
H15   H     H_    0.231887 0.081489 0.330359 0.125580
O47   O     O_2   0.139049 0.077727 0.361077 -0.414051
C116  C     C_2   0.809558 0.892058 0.645141 0.548920
H16   H     H_    0.856314 0.910857 0.655352 0.137946
O48   O     O_2   0.764611 0.911925 0.693294 -0.449228
N13   N     N_R   0.807924 0.294080 0.226744 0.182193
O49   O     O_R   0.843322 0.257199 0.175166 -0.217932
O50   O     O_R   0.794483 0.348604 0.192914 -0.203511
N14   N     N_R   0.129578 0.761701 0.728850 0.139188
O51   O     O_R   0.147318 0.751880 0.816739 -0.261532
O52   O     O_R   0.069816 0.772760 0.712524 -0.194846
N15   N     N_R   0.092993 0.192313 0.382642 0.187505
O53   O     O_R   0.047022 0.165781 0.432247 -0.206309
O54   O     O_R   0.088937 0.199088 0.289799 -0.226383
N16   N     N_R   0.906616 0.803650 0.621777 0.141292
O55   O     O_R   0.915805 0.773238 0.701852 -0.219828
O56   O     O_R   0.947504 0.844798 0.591995 -0.256033
N17   N     N_R   0.307935 0.794065 0.226744 0.182195
O57   O     O_R   0.343334 0.757182 0.175172 -0.217927
O58   O     O_R   0.294491 0.848586 0.192905 -0.203513
N18   N     N_R   0.629611 0.261665 0.728886 0.139185
O59   O     O_R   0.647371 0.251833 0.816763 -0.261528
O60   O     O_R   0.569844 0.272716 0.712592 -0.194879
N19   N     N_R   0.592963 0.692287 0.382713 0.187496
O61   O     O_R   0.546984 0.665780 0.432337 -0.206334
O62   O     O_R   0.588911 0.699034 0.289866 -0.226399
N20   N     N_R   0.406740 0.303799 0.621354 0.141295
O63   O     O_R   0.415818 0.273813 0.701853 -0.220133
O64   O     O_R   0.447648 0.344828 0.591182 -0.255929
N21   N     N_R   0.110280 0.465684 0.738997 0.124174
O65   O     O_R   0.125781 0.408267 0.752069 -0.284756
O66   O     O_R   0.147693 0.501232 0.687221 -0.356940
N22   N     N_R   0.888904 0.531041 0.261591 0.134154
O67   O     O_R   0.852582 0.488458 0.299396 -0.260577
O68   O     O_R   0.869378 0.587870 0.262591 -0.405418
N23   N     N_R   0.883975 0.504690 0.766414 0.088906
O69   O     O_R   0.855241 0.544168 0.711050 -0.332138
O70   O     O_R   0.848277 0.469382 0.821951 -0.357834
N24   N     N_R   0.110644 0.466877 0.253298 0.133013
O71   O     O_R   0.145068 0.503072 0.302646 -0.374692
O72   O     O_R   0.130027 0.410838 0.239659 -0.318911
N25   N     N_R   0.610274 0.965670 0.739007 0.124185
O73   O     O_R   0.625761 0.908250 0.752087 -0.284728
O74   O     O_R   0.647690 0.001207 0.687220 -0.356934
N26   N     N_R   0.388905 0.031044 0.261591 0.134142
O75   O     O_R   0.352582 0.988463 0.299403 -0.260606
O76   O     O_R   0.369380 0.087873 0.262587 -0.405431
N27   N     N_R   0.383975 0.004696 0.766411 0.088903
O77   O     O_R   0.355241 0.044178 0.711052 -0.332102
O78   O     O_R   0.348276 0.969385 0.821943 -0.357833
N28   N     N_R   0.610644 0.966876 0.253297 0.133013
O79   O     O_R   0.645068 0.003070 0.302648 -0.374708
O80   O     O_R   0.630028 0.910838 0.239652 -0.318912
C117  C     C_2   0.850371 0.594473 0.907282 0.514226
H17   H     H_    0.800519 0.594163 0.930234 0.067666
O81   O     O_2   0.867812 0.632160 0.845927 -0.440729
C118  C     C_2   0.180645 0.500767 0.092379 0.511175
H18   H     H_    0.215579 0.463767 0.091570 0.148902
O82   O     O_2   0.193780 0.549337 0.127927 -0.520923
C119  C     C_2   0.181849 0.491532 0.892116 0.513032
H19   H     H_    0.194031 0.528904 0.842568 0.164304
O83   O     O_2   0.220346 0.450022 0.904942 -0.463070
C120  C     C_2   0.825290 0.536769 0.093665 0.507284
H20   H     H_    0.797928 0.579024 0.100052 0.064839
O84   O     O_2   0.800580 0.488240 0.117748 -0.400042
C121  C     C_2   0.350370 0.094473 0.907285 0.514250
H21   H     H_    0.300517 0.094161 0.930235 0.067678
O85   O     O_2   0.367811 0.132164 0.845936 -0.440765
C122  C     C_2   0.680643 0.000775 0.092381 0.511176
H22   H     H_    0.715580 0.963777 0.091575 0.148902
O86   O     O_2   0.693773 0.049347 0.127928 -0.520938
C123  C     C_2   0.681847 0.991537 0.892115 0.513050
H23   H     H_    0.694021 0.028903 0.842551 0.164324
O87   O     O_2   0.720354 0.950037 0.904959 -0.463139
C124  C     C_2   0.325288 0.036765 0.093666 0.507279
H24   H     H_    0.297924 0.079017 0.100049 0.064826
O88   O     O_2   0.300582 0.988235 0.117754 -0.400044

loop_
_geom_bond_atom_site_label_1
_geom_bond_atom_site_label_2
_geom_bond_distance
_ccdc_geom_bond_type
C116  O48   1.220568 D    
N15   O53   1.301171 A    
C75   N23   1.432714 S    
C80   C86   1.436895 A    
C8    C21   1.491691 S    
C9    N5    1.438559 S    
O5    Cu2   1.979885 S    
C103  O35   1.217935 D    
C73   N21   1.425456 S    
C84   C96   1.429852 A    
C26   C102  1.449490 S    
N27   O77   1.298169 A    
C14   C22   1.424959 A    
C2    C19   1.453088 S    
Cu1   N1    2.035374 S    
N22   O67   1.299892 A    
Cu2   N2    2.035374 S    
C94   C118  1.482870 S    
C105  H5    1.083480 S    
N20   O63   1.301106 A    
C45   C53   1.411212 A    
C123  H23   1.082669 S    
C12   C52   1.413983 A    
C109  H9    1.083605 S    
O10   C6    1.300453 A    
N15   O54   1.301148 A    
C74   C84   1.437310 A    
C120  H20   1.085167 S    
O7    Cu2   1.996753 S    
C108  O40   1.221202 D    
C120  O84   1.220402 D    
O12   Cu4   1.965718 S    
C13   C53   1.406579 A    
C54   C69   1.419923 A    
C63   C115  1.494019 S    
C106  H6    1.072314 S    
N10   O28   1.301297 A    
C53   C70   1.412276 A    
N12   O31   1.300772 A    
C76   N2    1.381651 A    
C38   C62   1.424079 A    
N12   O32   1.300182 A    
C77   C87   1.446057 A    
N16   O56   1.301198 A    
C119  O83   1.220999 D    
O6    Cu1   1.979882 S    
O2    C2    1.300459 A    
C108  H8    1.083377 S    
C41   C49   1.411220 A    
N11   O29   1.299199 A    
C46   C54   1.409563 A    
C80   N4    1.381647 A    
C29   C37   1.420232 A    
N26   O75   1.299891 A    
O13   C7    1.297424 A    
O3    C2    1.298022 A    
C28   C36   1.414720 A    
C121  H21   1.084082 S    
O14   C8    1.308734 A    
N13   O50   1.300902 A    
N23   O69   1.298168 A    
C20   C28   1.400523 A    
C112  H12   1.083542 S    
C83   C89   1.407672 A    
C97   C100  1.406837 A    
C71   N19   1.433035 S    
C16   C56   1.413989 A    
C10   C50   1.420381 A    
C13   N9    1.438559 S    
C94   C95   1.421477 A    
C31   C107  1.495425 S    
C41   C46   1.410606 A    
C38   C46   1.410053 A    
C66   N14   1.434917 S    
C7    C22   1.510003 S    
C114  O46   1.221330 D    
C64   C116  1.491469 S    
N14   O51   1.301159 A    
C35   C43   1.417685 A    
C11   N7    1.435109 S    
C36   C44   1.422592 A    
O13   Cu4   1.979885 S    
C60   C112  1.491474 S    
O14   Cu3   1.979882 S    
C15   C23   1.402263 A    
N25   O73   1.301817 A    
C59   C71   1.407278 A    
Cu3   Cu4   2.709010 S    
C79   N27   1.432715 S    
C24   C32   1.400531 A    
O16   Cu3   1.996756 S    
C110  O42   1.221328 D    
C116  H16   1.083507 S    
C27   C35   1.414314 A    
C25   C33   1.420217 A    
C117  H17   1.084082 S    
C82   C94   1.427591 A    
C58   C110  1.488135 S    
O8    Cu1   1.996756 S    
C107  O39   1.217941 D    
C101  O33   1.220528 D    
C81   C93   1.416003 A    
C77   N25   1.425431 S    
C12   N8    1.427704 S    
C33   C41   1.412297 A    
C67   N15   1.433036 S    
C105  O37   1.220529 D    
C118  O82   1.219800 D    
N28   O79   1.300498 A    
C78   N26   1.428612 S    
C9    C49   1.406594 A    
C109  O41   1.221097 D    
C87   C91   1.407664 A    
C10   N6    1.436149 S    
O8    C3    1.329896 A    
C78   C88   1.437309 A    
C30   C106  1.449492 S    
C115  H15   1.085674 S    
C30   C38   1.412742 A    
C44   C47   1.409762 A    
C83   C95   1.429054 A    
C119  H19   1.082665 S    
N10   O27   1.301563 A    
N6    O19   1.301567 A    
C122  O86   1.219803 D    
C79   N3    1.386413 A    
N22   O68   1.302825 A    
C93   C96   1.406834 A    
C32   C108  1.494595 S    
C107  H7    1.085207 S    
C61   C113  1.485123 S    
C85   C91   1.398191 A    
N16   O55   1.301005 A    
C69   N17   1.435951 S    
C34   C42   1.410059 A    
Cu1   Cu2   2.709010 S    
C62   C66   1.400799 A    
C28   C104  1.494590 S    
O12   C5    1.297376 A    
N27   O78   1.303586 A    
C58   C70   1.400793 A    
C72   N20   1.435521 S    
C62   C114  1.488138 S    
C114  H14   1.083918 S    
C121  O85   1.221331 D    
C1    C20   1.457738 S    
C60   C72   1.405153 A    
C33   C57   1.424154 A    
N19   O61   1.301166 A    
C115  O47   1.220667 D    
N8    O24   1.300182 A    
N21   O65   1.301818 A    
C3    C18   1.510003 S    
C95   C119  1.484841 S    
N5    O18   1.301796 A    
C5    C24   1.457746 S    
C35   C59   1.417199 A    
Cu4   N4    2.035374 S    
C39   C47   1.417713 A    
N28   O80   1.301657 A    
C6    C23   1.453059 S    
O11   Cu3   1.965718 S    
C42   C50   1.409560 A    
C63   C67   1.407245 A    
C15   C55   1.410154 A    
C26   C34   1.412746 A    
C15   N11   1.435045 S    
N17   O57   1.301715 A    
C99   C123  1.484840 S    
C74   N22   1.428615 S    
C102  H2    1.072315 S    
N24   O72   1.301658 A    
C51   C68   1.415772 A    
N25   O74   1.299266 A    
C100  C124  1.480171 S    
C77   N3    1.389269 A    
C124  O88   1.220402 D    
C55   C72   1.415800 A    
C22   C30   1.410006 A    
O4    C1    1.297362 A    
C98   C122  1.482869 S    
C110  H10   1.083919 S    
N23   O70   1.303584 A    
C82   C90   1.408364 A    
O16   C7    1.329899 A    
C76   N24   1.429557 S    
C12   C20   1.398950 A    
C117  O81   1.221332 D    
C104  H4    1.083378 S    
C9    C17   1.420116 A    
O10   Cu4   1.963620 S    
C16   C24   1.398965 A    
C47   C55   1.417642 A    
C40   C64   1.420246 A    
C73   N1    1.389276 A    
N7    O21   1.299145 A    
O9    C5    1.302147 A    
C86   C92   1.408364 A    
C88   C92   1.419215 A    
C52   C67   1.422910 A    
C80   N28   1.429559 S    
C118  H18   1.084767 S    
O9    Cu3   1.963620 S    
C19   C27   1.407471 A    
C89   C90   1.435747 A    
C102  O34   1.221059 D    
C81   C89   1.398193 A    
C73   C83   1.446065 A    
N11   O30   1.300924 A    
C87   C99   1.429056 A    
C76   C82   1.436898 A    
C43   C48   1.409714 A    
O15   C8    1.310726 A    
C57   C109  1.485124 S    
C42   C45   1.410608 A    
N9    O26   1.301792 A    
C57   C69   1.410720 A    
C29   C105  1.484502 S    
C64   C68   1.405188 A    
C39   C63   1.417191 A    
C122  H22   1.084768 S    
N7    O22   1.300815 A    
N6    O20   1.301294 A    
O2    Cu2   1.963620 S    
C68   N16   1.435590 S    
O4    Cu2   1.965718 S    
O1    Cu1   1.963620 S    
C88   C100  1.429851 A    
N8    O23   1.300773 A    
O5    C3    1.297431 A    
C93   C117  1.490037 S    
C48   C56   1.421862 A    
C21   C29   1.423904 A    
O6    C4    1.308728 A    
N9    O25   1.300795 A    
O11   C6    1.298007 A    
O1    C1    1.302152 A    
C36   C60   1.420215 A    
N20   O64   1.301217 A    
C65   N13   1.435952 S    
C40   C48   1.422591 A    
C84   C90   1.419221 A    
C106  O38   1.221058 D    
C34   C58   1.424083 A    
C25   C101  1.484488 S    
C13   C21   1.420110 A    
N24   O71   1.300496 A    
N21   O66   1.299266 A    
C123  O87   1.221009 D    
C101  H1    1.083483 S    
C16   N12   1.427697 S    
C70   N18   1.434916 S    
C4    C17   1.491698 S    
C104  O36   1.221207 D    
C23   C31   1.407404 A    
C113  H13   1.083606 S    
N5    O17   1.300796 A    
C27   C103  1.495403 S    
C78   N4    1.380813 A    
Cu3   N3    2.035374 S    
N17   O58   1.300902 A    
C96   C120  1.480169 S    
N26   O76   1.302827 A    
C59   C111  1.494004 S    
C44   C52   1.421886 A    
N13   O49   1.301716 A    
C37   C61   1.424161 A    
C112  O44   1.220583 D    
C86   C98   1.427586 A    
C18   C26   1.410008 A    
N19   O62   1.301143 A    
C113  O45   1.221097 D    
C124  H24   1.085165 S    
N18   O60   1.300941 A    
C56   C71   1.422927 A    
C111  H11   1.085670 S    
O15   Cu4   1.996753 S    
C75   N1    1.386406 A    
O3    Cu1   1.965718 S    
C31   C39   1.414276 A    
N18   O59   1.301157 A    
C74   N2    1.380810 A    
C32   C40   1.414704 A    
O7    C4    1.310728 A    
C75   C81   1.429178 A    
C103  H3    1.085205 S    
C11   C19   1.402313 A    
C14   C54   1.420386 A    
C85   C97   1.416006 A    
C10   C18   1.424954 A    
C111  O43   1.220668 D    
C98   C99   1.421477 A    
C50   C65   1.419919 A    
C17   C25   1.423878 A    
C43   C51   1.417555 A    
N14   O52   1.300942 A    
C61   C65   1.410720 A    
C49   C66   1.412285 A    
C91   C92   1.435743 A    
C97   C121  1.490034 S    
C11   C51   1.410090 A    
C37   C45   1.412296 A    
C14   N10   1.436150 S    
C79   C85   1.429186 A    
