data_mof_unit_21915.cif
_audit_creation_date              2012-12-10T20:49:48-0500
_audit_creation_method            fapswitch 2.2
_symmetry_space_group_name_H-M    P1
_symmetry_Int_Tables_number       1
_space_group_crystal_system       triclinic
_cell_length_a                    8.09301
_cell_length_b                    8.934513
_cell_length_c                    16.741833
_cell_angle_alpha                 90.006199
_cell_angle_beta                  84.338633
_cell_angle_gamma                 90.022494
_cell_volume                      1204.64864674

loop_
_atom_site_label
_atom_site_type_symbol
_atom_type_description
_atom_site_fract_x
_atom_site_fract_y
_atom_site_fract_z
_atom_type_partial_charge
C1    C     C_R   0.500020 0.782080 0.500008 0.944330
C2    C     C_R   0.418126 0.521550 0.215197 -0.313851
C3    C     C_R   0.566962 0.290219 0.839117 0.566990
C4    C     C_R   0.419453 0.485509 0.133925 0.579391
C5    C     C_R   0.429770 0.331680 0.892483 0.025578
C6    C     C_R   0.551539 0.398853 0.097686 0.010137
C7    C     C_R   0.304708 0.423508 0.867571 -0.256911
C8    C     C_R   0.678949 0.350121 0.141461 -0.275518
C9    C     C_R   0.318794 0.483281 0.790556 0.157319
C10   C     C_R   0.674347 0.380902 0.222866 0.156397
C11   C     C_2   0.432748 0.310458 0.978485 -0.074136
C12   C     C_R   0.499987 0.217922 0.500004 0.938370
C13   C     C_2   0.563107 0.363704 0.012633 -0.110929
C14   C     C_3   0.141640 0.507314 0.117595 -0.312528
C15   C     C_3   0.846441 0.231547 0.839963 -0.292355
C16   C     C_1   0.500045 0.934839 0.500002 -0.166924
C17   C     C_1   0.499998 0.065184 0.499998 -0.161470
C18   C     C_R   0.475795 0.495492 0.653900 0.918135
C19   C     C_R   0.524440 0.494082 0.346254 0.914309
C20   C     C_R   0.458780 0.447314 0.737314 -0.137577
C21   C     C_R   0.542444 0.467783 0.260136 -0.149618
C22   C     C_R   0.578197 0.346921 0.760913 -0.333949
H1    H     H_    0.201492 0.457151 0.909979 0.184525
H2    H     H_    0.866020 0.354544 0.844958 0.162013
H3    H     H_    0.884076 0.192223 0.777911 0.189950
H4    H     H_    0.929540 0.176433 0.879890 0.202793
H5    H     H_    0.779983 0.283944 0.112500 0.179417
H6    H     H_    0.678684 0.310751 0.717783 0.178729
H7    H     H_    0.320809 0.592508 0.243442 0.177247
H8    H     H_    0.677008 0.395252 0.976757 0.158548
H9    H     H_    0.317707 0.283767 0.014731 0.151651
H10   H     H_    0.096916 0.579209 0.169361 0.196068
H11   H     H_    0.131469 0.386759 0.134404 0.168329
H12   H     H_    0.057844 0.526274 0.069981 0.196053
I1    I     I_    0.864179 0.278077 0.283503 -0.375768
I2    I     I_    0.130627 0.635279 0.762746 -0.355425
N1    N     N_1   0.926360 0.500000 0.499990 -0.008478
N2    N     N_1   0.073640 0.500000 0.500010 -0.010200
O1    O     O_R   0.363150 0.714660 0.500000 -0.609108
O2    O     O_3   0.681159 0.188449 0.864555 -0.599567
O3    O     O_R   0.636850 0.285340 0.500000 -0.607028
O4    O     O_R   0.636850 0.714660 0.500000 -0.610597
O5    O     O_R   0.363150 0.285340 0.500000 -0.614451
O6    O     O_R   0.346950 0.500000 0.615800 -0.595840
O7    O     O_R   0.653050 0.500000 0.384200 -0.592511
O8    O     O_R   0.620700 0.500000 0.615800 -0.618899
O9    O     O_R   0.379300 0.500000 0.384200 -0.616524
O10   O     O_3   0.304591 0.547259 0.087049 -0.606367
Zn1   Zn    Zn3+2 0.317220 0.500000 0.500010 1.024906
Zn2   Zn    Zn3+2 0.682780 0.500000 0.499990 1.025344

loop_
_geom_bond_atom_site_label_1
_geom_bond_atom_site_label_2
_ccdc_geom_bond_type
C12   C17   S    
C14   H12   S    
C9    I2    S    
C2    C4    A    
C1    O4    A    
C19   O7    A    
C10   I1    S    
C14   H11   S    
C18   O6    A    
C1    C16   S    
O8    Zn2   S    
C9    C20   A    
C3    C5    A    
C2    C21   A    
C11   H9    S    
O9    Zn1   S    
N2    Zn1   S    
C22   H6    S    
C6    C13   S    
N1    Zn2   S    
C11   C13   D    
N1    N2    T    
O7    Zn2   S    
O4    Zn2   S    
C2    H7    S    
C7    H1    S    
C18   O8    A    
C4    C6    A    
C15   H2    S    
O1    Zn1   S    
C20   C22   A    
C3    O2    S    
C5    C11   S    
C12   O5    A    
C18   C20   S    
C10   C21   A    
C19   O9    A    
C15   O2    S    
C15   H3    S    
C1    O1    A    
C7    C9    A    
O3    Zn2   S    
C13   H8    S    
C12   O3    A    
C8    C10   A    
C4    O10   S    
C5    C7    A    
C8    H5    S    
C14   O10   S    
O5    Zn1   S    
C15   H4    S    
C6    C8    A    
C19   C21   S    
O6    Zn1   S    
C14   H10   S    
C16   C17   T    
C3    C22   A    
