data_mof_unit_46129.cif
_audit_creation_date              2012-12-10T20:57:59-0500
_audit_creation_method            fapswitch 2.2
_symmetry_space_group_name_H-M    P1
_symmetry_Int_Tables_number       1
_space_group_crystal_system       triclinic
_cell_length_a                    18.228752
_cell_length_b                    18.241715
_cell_length_c                    18.37099
_cell_angle_alpha                 119.830027
_cell_angle_beta                  90.007392
_cell_angle_gamma                 120.083703
_cell_volume                      4324.89415636

loop_
_atom_site_label
_atom_site_type_symbol
_atom_type_description
_atom_site_fract_x
_atom_site_fract_y
_atom_site_fract_z
_atom_type_partial_charge
C1    C     C_R   0.358801 0.220012 0.361280 0.787304
C2    C     C_3   0.347002 0.610227 0.324735 -0.533003
C3    C     C_3   0.300097 0.498966 0.301015 0.020889
C4    C     C_3   0.199588 0.502545 0.200983 -0.043078
C5    C     C_3   0.152282 0.474672 0.263768 0.415217
C6    C     C_3   0.291627 0.611970 0.262125 -0.081565
C7    C     C_3   0.636798 0.937136 0.718110 -0.406901
C8    C     C_3   0.694783 0.056388 0.773276 0.434776
C9    C     C_3   0.755969 0.937508 0.789652 0.406689
C10   C     C_3   0.761178 0.943247 0.655152 -0.526238
C11   C     C_3   0.697601 0.897307 0.699484 0.034731
C12   C     C_R   0.640794 0.780902 0.639692 0.827439
C13   C     C_3   0.797681 0.102605 0.804459 0.022467
C14   C     C_3   0.815720 0.057993 0.850388 -0.471485
C15   C     C_3   0.821760 0.063301 0.717831 -0.512894
C16   C     C_3   0.692731 0.400134 0.255394 -0.475585
C17   C     C_3   0.751575 0.398399 0.194131 0.411872
C18   C     C_3   0.671565 0.517669 0.231997 0.433629
C19   C     C_3   0.798316 0.592108 0.359120 -0.488441
C20   C     C_3   0.697793 0.501301 0.301583 0.027706
C21   C     C_3   0.800128 0.501304 0.200627 0.045200
C22   C     C_3   0.729796 0.513640 0.170490 -0.591335
C23   C     C_R   0.359885 0.501067 0.641317 0.821199
C24   C     C_3   0.857737 0.593978 0.299716 -0.353247
C25   C     C_R   0.331027 0.162143 0.589169 0.562921
C26   C     C_R   0.338650 0.141787 0.506258 -0.223904
C27   C     C_R   0.263246 0.090881 0.435065 -0.109572
C28   C     C_R   0.178429 0.057283 0.446805 0.487757
C29   C     C_R   0.168671 0.064590 0.525169 0.140800
C30   C     C_R   0.244366 0.118882 0.596857 -0.378085
C31   C     C_R   0.218256 0.942845 0.286623 -0.149933
C32   C     C_R   0.199601 0.892181 0.195113 -0.074801
C33   C     C_R   0.235874 0.949892 0.158543 -0.016374
C34   C     C_R   0.640629 0.501095 0.359403 0.798702
C35   C     C_R   0.289447 0.056925 0.215247 -0.265396
C36   C     C_R   0.304351 0.107742 0.306894 -0.065329
C37   C     C_R   0.266463 0.049538 0.343010 0.077949
C38   C     C_R   0.277741 0.881109 0.022523 -0.130699
C39   C     C_R   0.261930 0.837148 0.931527 -0.132777
C40   C     C_R   0.187536 0.814250 0.879757 -0.114500
C41   C     C_R   0.129130 0.836154 0.919112 -0.140116
C42   C     C_R   0.145028 0.880814 0.010252 -0.117211
C43   C     C_R   0.219115 0.902783 0.062247 0.149958
C44   C     C_R   0.914240 0.713734 0.626882 -0.138356
C45   C     C_R   0.641906 0.500296 0.640266 0.801074
C46   C     C_R   0.867730 0.635752 0.640728 -0.111642
C47   C     C_R   0.843288 0.656949 0.717614 0.165886
C48   C     C_R   0.867759 0.757258 0.781286 -0.186864
C49   C     C_R   0.913898 0.834830 0.767036 -0.160575
C50   C     C_R   0.936945 0.813092 0.689806 -0.070482
C51   C     C_R   0.841982 0.572337 0.787091 -0.267071
C52   C     C_R   0.799276 0.499099 0.806620 -0.049396
C53   C     C_R   0.704698 0.426360 0.771158 0.008285
C54   C     C_R   0.655849 0.427637 0.715134 -0.261813
C55   C     C_R   0.698473 0.501220 0.696012 -0.061753
C56   C     C_R   0.357932 0.499695 0.359247 0.814274
C57   C     C_R   0.792917 0.574679 0.732316 -0.013727
C58   C     C_R   0.617602 0.244477 0.728334 -0.259970
C59   C     C_R   0.564883 0.169857 0.745971 0.646666
C60   C     C_R   0.551629 0.203307 0.828636 -0.101540
C61   C     C_R   0.586272 0.307359 0.891071 -0.260349
C62   C     C_R   0.636495 0.380151 0.872584 -0.118213
C63   C     C_R   0.653191 0.349296 0.791496 0.111358
C64   C     C_R   0.406737 0.823312 0.745839 -0.274404
C65   C     C_R   0.385024 0.751727 0.765741 0.189015
C66   C     C_R   0.306570 0.650192 0.709840 0.048408
C67   C     C_3   0.285010 0.425567 0.200620 0.419638
C68   C     C_R   0.251341 0.621615 0.634077 -0.306467
C69   C     C_R   0.273403 0.694181 0.613923 0.595461
C70   C     C_R   0.352233 0.794329 0.670008 -0.192268
C71   C     C_R   0.225769 0.570114 0.783828 -0.255979
C72   C     C_R   0.196536 0.499792 0.806579 -0.041127
C73   C     C_R   0.222930 0.431318 0.775988 0.164022
C74   C     C_R   0.276778 0.434426 0.722844 -0.203464
C75   C     C_R   0.305133 0.503969 0.699216 -0.062450
C76   C     C_R   0.279809 0.573497 0.730814 0.058538
C77   C     C_R   0.234024 0.369964 0.868556 0.484419
C78   C     C_3   0.225358 0.427170 0.142703 -0.517079
C79   C     C_R   0.195533 0.292661 0.884820 -0.389902
C80   C     C_R   0.116137 0.192971 0.821687 0.523916
C81   C     C_R   0.074902 0.174295 0.744685 -0.305107
C82   C     C_R   0.109883 0.251283 0.728854 0.445578
C83   C     C_R   0.189384 0.349066 0.791067 -0.099906
C84   C     C_R   0.857250 0.500554 0.142850 0.831650
C85   C     C_R   0.138627 0.499671 0.861562 0.812319
C86   C     C_R   0.856492 0.219067 0.862782 0.769171
C87   C     C_R   0.139974 0.779911 0.140850 0.803415
C88   C     C_R   0.855845 0.499951 0.862221 0.790121
C89   C     C_3   0.207538 0.462553 0.315575 -0.468539
C90   C     C_R   0.141130 0.501514 0.142928 0.869408
H1    H     H_    0.217607 0.510274 0.387657 0.194011
H2    H     H_    0.157067 0.545050 0.315741 0.175287
H3    H     H_    0.592498 0.908111 0.752215 0.230361
H4    H     H_    0.591353 0.905227 0.654149 0.163537
H5    H     H_    0.687735 0.074503 0.725117 0.130358
H6    H     H_    0.807457 0.087417 0.916634 0.166368
H7    H     H_    0.804320 0.914539 0.639055 0.210984
H8    H     H_    0.352742 0.458136 0.192269 0.080519
H9    H     H_    0.720756 0.917467 0.591455 0.187535
H10   H     H_    0.814009 0.095209 0.682508 0.157083
H11   H     H_    0.893082 0.090980 0.734787 0.222414
H12   H     H_    0.801057 0.911045 0.773992 0.090354
H13   H     H_    0.887509 0.085805 0.864157 0.178155
H14   H     H_    0.622720 0.330111 0.217219 0.131684
H15   H     H_    0.716782 0.395417 0.307635 0.192248
H16   H     H_    0.707401 0.333437 0.123522 0.057391
H17   H     H_    0.263254 0.453101 0.103281 0.158460
H18   H     H_    0.688799 0.451363 0.099441 0.201037
H19   H     H_    0.806762 0.667641 0.397352 0.192113
H20   H     H_    0.821661 0.583464 0.408547 0.212817
H21   H     H_    0.911524 0.590848 0.323660 0.236452
H22   H     H_    0.891472 0.668493 0.306254 0.191818
H23   H     H_    0.693027 0.599400 0.272358 0.094583
H24   H     H_    0.765299 0.586889 0.174671 0.160348
H25   H     H_    0.234885 0.123295 0.656668 0.185042
H26   H     H_    0.403395 0.164383 0.496972 0.174535
H27   H     H_    0.165739 0.347839 0.092269 0.208329
H28   H     H_    0.190244 0.898819 0.314857 0.191182
H29   H     H_    0.317953 0.100491 0.186709 0.170735
H30   H     H_    0.335408 0.898213 0.061945 0.134643
H31   H     H_    0.307318 0.820788 0.901137 0.154921
H32   H     H_    0.175336 0.779801 0.809252 0.126873
H33   H     H_    0.071664 0.818689 0.879055 0.129052
H34   H     H_    0.099499 0.897621 0.040220 0.117702
H35   H     H_    0.972607 0.873279 0.678881 0.170868
H36   H     H_    0.171548 0.381804 0.295758 0.201376
H37   H     H_    0.932567 0.697144 0.567358 0.130533
H38   H     H_    0.849973 0.558875 0.591419 0.111655
H39   H     H_    0.850612 0.774980 0.841529 0.115081
H40   H     H_    0.931565 0.911691 0.815829 0.145549
H41   H     H_    0.914369 0.628953 0.814842 0.173844
H42   H     H_    0.583484 0.371257 0.687481 0.211696
H43   H     H_    0.632013 0.222340 0.666572 0.122522
H44   H     H_    0.513235 0.147844 0.844187 0.145777
H45   H     H_    0.573702 0.331454 0.953735 0.146127
H46   H     H_    0.662551 0.460541 0.921362 0.127340
H47   H     H_    0.371045 0.850559 0.655052 0.192368
H48   H     H_    0.466228 0.901863 0.789220 0.193907
H49   H     H_    0.192414 0.542623 0.590865 0.138032
H50   H     H_    0.205837 0.622620 0.806714 0.174671
H51   H     H_    0.294815 0.380086 0.698268 0.156085
H52   H     H_    0.226908 0.311763 0.947147 0.147352
H53   H     H_    0.355491 0.662950 0.395198 0.250111
H54   H     H_    0.014838 0.098147 0.696372 0.189112
H55   H     H_    0.415550 0.639644 0.319395 0.160278
H56   H     H_    0.330114 0.629289 0.219204 0.161662
O1    O     O_3   0.500000 0.500000 0.500000 -0.485559
O2    O     O_R   0.383400 0.560740 0.616060 -0.626399
O3    O     O_R   0.555060 0.439270 0.322940 -0.621314
O4    O     O_R   0.383950 0.268380 0.445700 -0.650466
O5    O     O_R   0.677590 0.731610 0.615290 -0.650450
O6    O     O_3   0.997750 0.500010 0.002220 -0.493307
O7    O     O_R   0.942690 0.560750 0.179280 -0.624704
O8    O     O_R   0.114340 0.439270 0.886160 -0.645858
O9    O     O_R   0.820160 0.268410 0.886930 -0.603595
O10   O     O_R   0.113800 0.731630 0.056520 -0.637382
O11   O     O_R   0.819390 0.439310 0.886160 -0.639166
O12   O     O_R   0.383400 0.268380 0.323710 -0.651237
O13   O     O_R   0.115110 0.560720 0.179280 -0.600977
O14   O     O_R   0.941380 0.560750 0.885620 -0.651132
O15   O     O_R   0.115110 0.439270 0.057830 -0.654040
O16   O     O_R   0.942690 0.268390 0.886930 -0.652849
O17   O     O_R   0.114340 0.731630 0.178520 -0.632790
O18   O     O_R   0.820160 0.439310 0.057830 -0.657666
O19   O     O_R   0.113800 0.560730 0.885620 -0.644847
O20   O     O_R   0.555060 0.731630 0.615290 -0.631174
O21   O     O_R   0.383950 0.439280 0.616600 -0.651987
O22   O     O_R   0.677590 0.560710 0.444390 -0.656600
O23   O     O_R   0.556370 0.439260 0.616600 -0.645679
O24   O     O_R   0.382640 0.439290 0.322940 -0.617752
O25   O     O_R   0.678360 0.560700 0.616060 -0.635779
O26   O     O_R   0.382640 0.560750 0.444390 -0.650733
Zn1   Zn    Zn3+2 0.456040 0.586770 0.543190 0.988432
Zn2   Zn    Zn3+2 0.456820 0.413240 0.543960 0.965345
Zn3   Zn    Zn3+2 0.631110 0.586750 0.543190 0.967919
Zn4   Zn    Zn3+2 0.456040 0.413240 0.369660 0.960636
Zn5   Zn    Zn3+2 0.041710 0.413240 0.959030 0.968652
Zn6   Zn    Zn3+2 0.866640 0.413270 0.959030 0.979551
Zn7   Zn    Zn3+2 0.040930 0.586780 0.958260 0.969841
Zn8   Zn    Zn3+2 0.041710 0.586770 0.132560 1.023555
O27   O     O_3   0.242994 0.322522 0.175279 -0.601510
C91   C     C_3   0.278962 0.274706 0.116405 -0.328852
H57   H     H_    0.347053 0.305530 0.153060 0.210367
H58   H     H_    0.282310 0.285381 0.061623 0.124744
H59   H     H_    0.235042 0.190405 0.086211 0.181006
I1    I     I_    0.286134 0.744440 0.341576 -0.399158
O28   O     O_3   0.658767 0.100626 0.836606 -0.578594
C92   C     C_3   0.671375 0.101843 0.912897 -0.282218
H60   H     H_    0.656327 0.028008 0.897866 0.211171
H61   H     H_    0.624277 0.114661 0.946481 0.170308
H62   H     H_    0.740078 0.168215 0.960455 0.157391
O29   O     O_3   0.699104 0.898155 0.832291 -0.606746
C93   C     C_3   0.738071 0.876061 0.877761 -0.334241
H63   H     H_    0.808132 0.943278 0.922808 0.144561
H64   H     H_    0.736204 0.806560 0.829423 0.170828
H65   H     H_    0.697815 0.858309 0.919199 0.218140
O30   O     O_3   0.817223 0.388393 0.221125 -0.592746
C94   C     C_3   0.781082 0.283527 0.183295 -0.316365
H66   H     H_    0.767735 0.240711 0.110519 0.143541
H67   H     H_    0.718833 0.245492 0.197909 0.151052
H68   H     H_    0.831353 0.279709 0.212358 0.212134
O31   O     O_3   0.577979 0.460040 0.186750 -0.596480
C95   C     C_3   0.533606 0.351954 0.125338 -0.293803
H69   H     H_    0.496118 0.311565 0.155790 0.190217
H70   H     H_    0.577171 0.327053 0.098319 0.129265
H71   H     H_    0.483090 0.324730 0.067821 0.158696
O32   O     O_3   0.408407 0.213514 0.656908 -0.616929
C96   C     C_3   0.409386 0.282860 0.740221 -0.333274
H72   H     H_    0.371177 0.241566 0.769927 0.166026
H73   H     H_    0.383682 0.325207 0.736174 0.161676
H74   H     H_    0.479825 0.341974 0.785872 0.193337
O33   O     O_3   0.102670 0.003489 0.376760 -0.588700
C97   C     C_3   0.094371 0.076099 0.376414 -0.269039
H75   H     H_    0.152604 0.126773 0.364808 0.142607
H76   H     H_    0.086564 0.123889 0.439437 0.190672
H77   H     H_    0.033035 0.033505 0.321080 0.186361
I2    I     I_    0.038502 0.978391 0.528728 -0.400741
O34   O     O_3   0.529952 0.065332 0.688204 -0.627085
C98   C     C_3   0.500279 0.027523 0.598250 -0.334522
H78   H     H_    0.557748 0.046637 0.572814 0.158793
H79   H     H_    0.462668 0.056263 0.587804 0.197956
H80   H     H_    0.453513 0.941867 0.558478 0.221167
O35   O     O_3   0.057952 0.396117 0.227569 -0.606445
C99   C     C_3   0.031634 0.298488 0.153326 -0.311457
H81   H     H_    0.077147 0.276874 0.159247 0.196745
H82   H     H_    0.022909 0.294421 0.091395 0.171812
H83   H     H_    0.964713 0.238997 0.147223 0.174059
I3    I     I_    0.473809 0.800485 0.879688 -0.433580
O36   O     O_3   0.224383 0.670084 0.537923 -0.611978
C100  C     C_3   0.130893 0.601750 0.516143 -0.329824
H84   H     H_    0.109085 0.622947 0.575816 0.151135
H85   H     H_    0.109851 0.520516 0.479293 0.166509
H86   H     H_    0.095713 0.606413 0.471005 0.217225
O37   O     O_3   0.309694 0.469617 0.930770 -0.584387
C101  C     C_3   0.379618 0.467685 0.960786 -0.322784
H87   H     H_    0.385266 0.407499 0.906156 0.137187
H88   H     H_    0.371102 0.457111 0.015453 0.156293
H89   H     H_    0.444203 0.543720 0.988364 0.202340
O38   O     O_3   0.072882 0.111121 0.830888 -0.609896
C102  C     C_3   0.125965 0.124799 0.898307 -0.365218
H90   H     H_    0.130498 0.182138 0.964640 0.182146
H91   H     H_    0.193423 0.146080 0.892306 0.162331
H92   H     H_    0.092500 0.050368 0.891314 0.188919
O39   O     O_3   0.071264 0.231117 0.650279 -0.587984
C103  C     C_3   0.980917 0.197190 0.638929 -0.316945
H93   H     H_    0.971592 0.242773 0.701907 0.146559
H94   H     H_    0.936800 0.113228 0.610224 0.186915
H95   H     H_    0.959539 0.207933 0.590548 0.185027

loop_
_geom_bond_atom_site_label_1
_geom_bond_atom_site_label_2
_ccdc_geom_bond_type
O22   Zn3   S    
C66   C68   A    
C95   H69   S    
C44   H37   S    
C8    C13   S    
C103  H93   S    
C41   C42   A    
C35   H29   S    
O38   C102  S    
C24   H22   S    
O13   Zn8   S    
C75   C76   A    
C99   H81   S    
C22   H18   S    
C72   C85   S    
C14   H13   S    
O1    Zn2   S    
C42   H34   S    
C7    C8    S    
C31   H28   S    
C64   H48   S    
O27   C91   S    
O26   Zn1   S    
C2    H55   S    
C7    C11   S    
C93   H63   S    
C95   H70   S    
C26   C27   A    
C96   H72   S    
C92   H62   S    
C80   O38   S    
C46   H38   S    
C28   C29   A    
C2    C3    S    
C10   C15   S    
C12   O20   A    
C71   C76   A    
C6    H56   S    
O10   Zn7   S    
O1    Zn3   S    
C97   H77   S    
C79   H52   S    
C98   H79   S    
C77   C83   A    
C90   O13   A    
C51   C52   A    
O39   C103  S    
C100  H86   S    
C92   H61   S    
C32   C33   A    
C73   C74   A    
C62   H46   S    
O6    Zn5   S    
C91   H57   S    
C77   O37   S    
O16   Zn5   S    
C67   O27   S    
C67   H8    S    
C54   C55   A    
C16   H14   S    
C81   H54   S    
O35   C99   S    
C16   C17   S    
C93   H64   S    
C13   C86   S    
O23   Zn2   S    
C17   O30   S    
C94   H66   S    
C51   C57   A    
C26   H26   S    
C64   C70   A    
C89   H1    S    
C9    O29   S    
C87   O17   A    
C15   H10   S    
C84   O18   A    
O9    Zn6   S    
C30   H25   S    
C69   C70   A    
C38   H30   S    
C29   I2    S    
O7    Zn8   S    
C56   O24   A    
C59   C60   A    
C58   H43   S    
C13   C14   S    
C56   O26   A    
C2    H53   S    
C101  H88   S    
C12   O5    A    
O30   C94   S    
C24   H21   S    
C94   H68   S    
O6    Zn7   S    
C34   O22   A    
C45   O25   A    
C18   H23   S    
C14   H6    S    
C103  H95   S    
C34   O3    A    
C44   C46   A    
C81   C82   A    
C4    C90   S    
C89   H36   S    
C19   H19   S    
C8    O28   S    
C7    H3    S    
C95   H71   S    
C84   O7    A    
O5    Zn3   S    
C74   C75   A    
C90   O15   A    
O32   C96   S    
C33   C43   S    
C52   C88   S    
C78   H27   S    
C79   C80   A    
C72   C73   A    
C4    C6    S    
O31   C95   S    
C98   H78   S    
C101  H87   S    
C9    C14   S    
C51   H41   S    
O1    Zn4   S    
C68   C69   A    
O24   Zn4   S    
C58   C59   A    
C53   C54   A    
C32   C87   S    
O25   Zn3   S    
C102  H92   S    
C8    H5    S    
C2    C6    S    
C65   I3    S    
C99   H82   S    
C60   C61   A    
C35   C36   A    
O6    Zn8   S    
C10   H7    S    
C86   O9    A    
C92   H60   S    
O14   Zn7   S    
C4    C78   S    
O36   C100  S    
C69   O36   S    
C47   C57   S    
C3    C56   S    
C47   C48   A    
C21   C84   S    
C97   H75   S    
C16   C20   S    
C93   H65   S    
C66   C76   S    
C62   C63   A    
C102  H91   S    
C77   C79   A    
C82   O39   S    
C1    O4    A    
C18   O31   S    
C50   H35   S    
C88   O11   A    
C15   H11   S    
C100  H85   S    
C9    C11   S    
C9    H12   S    
C16   H15   S    
O21   Zn2   S    
C86   O16   A    
O12   Zn4   S    
C40   C41   A    
O4    Zn2   S    
C74   H51   S    
C82   C83   A    
C55   C57   A    
O19   Zn7   S    
C101  H89   S    
C23   O21   A    
C48   H39   S    
C21   C24   S    
O37   C101  S    
O15   Zn5   S    
C99   H83   S    
C60   H44   S    
C39   C40   A    
O18   Zn6   S    
C52   C53   A    
C61   H45   S    
C49   H40   S    
C19   H20   S    
C44   C50   A    
C25   C30   A    
C7    H4    S    
C46   C47   A    
C36   C37   A    
O20   Zn1   S    
C91   H58   S    
C5    O35   S    
C18   C22   S    
C31   C32   A    
C3    C67   S    
C58   C63   A    
C23   C75   S    
C80   C81   A    
C59   O34   S    
C45   O23   A    
C94   H67   S    
C11   C12   S    
O1    Zn1   S    
C71   H50   S    
C28   O33   S    
C40   H32   S    
C23   O2    A    
C6    I1    S    
C22   H24   S    
O2    Zn1   S    
C39   H31   S    
C67   C78   S    
C3    C89   S    
O3    Zn4   S    
C85   O19   A    
O29   C93   S    
C41   H33   S    
C19   C20   S    
C13   C15   S    
C19   C24   S    
C25   C26   A    
C97   H76   S    
C20   C34   S    
C100  H84   S    
C65   C66   A    
C25   O32   S    
C17   H16   S    
C64   C65   A    
C98   H80   S    
C53   C63   S    
C1    O12   A    
O34   C98   S    
C38   C39   A    
C27   C37   S    
C96   H74   S    
C48   C49   A    
C4    C5    S    
C102  H90   S    
C33   C35   A    
C103  H94   S    
C73   C83   S    
C10   H9    S    
C18   C20   S    
C85   O8    A    
C88   O14   A    
O6    Zn6   S    
C61   C62   A    
C17   C21   S    
C5    H2    S    
C10   C11   S    
O11   Zn6   S    
C29   C30   A    
C54   H42   S    
C31   C37   A    
C38   C43   A    
C71   C72   A    
O33   C97   S    
C45   C55   S    
C70   H47   S    
C96   H73   S    
C49   C50   A    
C42   C43   A    
O8    Zn5   S    
O17   Zn8   S    
C87   O10   A    
C78   H17   S    
C68   H49   S    
O28   C92   S    
C21   C22   S    
C91   H59   S    
C5    C89   S    
C1    C36   S    
C27   C28   A    
