data_mof_unit_43536.cif
_audit_creation_date              2012-12-10T17:35:49-0500
_audit_creation_method            fapswitch 2.2
_symmetry_space_group_name_H-M    P1
_symmetry_Int_Tables_number       1
_space_group_crystal_system       triclinic
_cell_length_a                    10.540384
_cell_length_b                    12.104984
_cell_length_c                    12.838449
_cell_angle_alpha                 94.037384
_cell_angle_beta                  92.707906
_cell_angle_gamma                 85.478839
_cell_volume                      1627.49067601

loop_
_atom_site_label
_atom_site_type_symbol
_atom_type_description
_atom_site_fract_x
_atom_site_fract_y
_atom_site_fract_z
_atom_type_partial_charge
C1    C     C_R   0.496205 0.522237 0.699921 0.911029
C2    C     C_R   0.599291 0.163788 0.597851 0.549909
C3    C     C_R   0.535949 0.860789 0.554522 0.513620
C4    C     C_R   0.462300 0.139354 0.446007 0.517039
C5    C     C_R   0.535871 0.977136 0.541558 -0.130874
C6    C     C_R   0.469663 0.022413 0.455431 -0.096928
C7    C     C_R   0.742256 0.499067 0.498835 0.855935
C8    C     C_R   0.257728 0.501010 0.501129 0.835914
C9    C     C_3   0.970591 0.398856 0.470921 0.170001
C10   C     C_3   0.029287 0.601593 0.528637 0.194953
C11   C     C_3   0.053881 0.428600 0.568461 -0.222672
C12   C     C_R   0.502232 0.477517 0.299984 0.892012
C13   C     C_3   0.946018 0.571826 0.431086 -0.188619
C14   C     C_3   0.122890 0.502722 0.500987 -0.040103
C15   C     C_3   0.877045 0.497662 0.498582 -0.032599
C16   C     C_3   0.041273 0.470481 0.402760 -0.264692
C17   C     C_3   0.958593 0.529981 0.596770 -0.220798
C18   C     C_R   0.511929 0.462738 0.189061 -0.077836
C19   C     C_R   0.483310 0.535531 0.810588 -0.099181
C20   C     C_R   0.359554 0.597069 0.959610 0.070021
C21   C     C_R   0.631655 0.396605 0.039033 0.060513
C22   C     C_R   0.377948 0.597265 0.852873 0.084129
C23   C     C_R   0.568159 0.471589 0.871732 -0.315868
C24   C     C_R   0.612039 0.394904 0.145467 0.098450
C25   C     C_3   0.275190 0.215646 0.370233 0.196852
C26   C     C_3   0.189668 0.147140 0.296395 -0.949790
C27   C     C_3   0.528693 0.839384 0.729070 0.097206
C28   C     C_3   0.606491 0.800436 0.824304 -0.797305
C29   C     C_3   0.788440 0.189184 0.694790 0.072480
C30   C     C_3   0.874138 0.281753 0.727259 -0.869677
C31   C     C_3   0.218600 0.812267 0.305524 0.067918
C32   C     C_3   0.131196 0.720272 0.275307 -0.861225
C33   C     C_R   0.428323 0.528251 0.128398 -0.313739
C34   C     C_R   0.549297 0.466169 0.977304 0.091977
C35   C     C_R   0.444869 0.530957 0.022168 0.088162
C36   C     C_R   0.412714 0.949733 0.380716 -0.396572
C37   C     C_R   0.603949 0.048139 0.610686 -0.421001
C38   C     C_R   0.409642 0.835686 0.397301 0.533319
H1    H     H_    0.101441 0.369493 0.622889 0.149560
H2    H     H_    0.890630 0.256216 0.497778 0.209024
H3    H     H_    0.125481 0.708970 0.625807 0.187066
H4    H     H_    0.108343 0.744679 0.501930 0.197548
H5    H     H_    0.697762 0.246569 0.183058 0.212660
H6    H     H_    0.789945 0.355209 0.204381 0.178005
H7    H     H_    0.272215 0.736468 0.813772 0.186967
H8    H     H_    0.198456 0.617539 0.791035 0.190100
H9    H     H_    0.192814 0.607019 0.032647 0.177465
H10   H     H_    0.282624 0.718674 0.059360 0.198967
H11   H     H_    0.704608 0.276120 0.935863 0.202416
H12   H     H_    0.898664 0.630857 0.376494 0.152284
H13   H     H_    0.800257 0.382558 0.968918 0.175921
H14   H     H_    0.258916 0.302254 0.347066 0.179783
H15   H     H_    0.243709 0.213356 0.451893 0.131742
H16   H     H_    0.172730 0.068334 0.330659 0.230938
H17   H     H_    0.095786 0.193807 0.284277 0.241590
H18   H     H_    0.233057 0.129490 0.219238 0.271594
H19   H     H_    0.438908 0.797241 0.720811 0.165594
H20   H     H_    0.501731 0.929525 0.744021 0.116947
H21   H     H_    0.689509 0.851189 0.839654 0.238332
H22   H     H_    0.546712 0.809545 0.893795 0.208925
H23   H     H_    0.077349 0.445234 0.324097 0.132196
H24   H     H_    0.641905 0.712063 0.810872 0.262538
H25   H     H_    0.833670 0.137762 0.629032 0.134349
H26   H     H_    0.783093 0.137788 0.762659 0.145092
H27   H     H_    0.848206 0.321783 0.803893 0.233003
H28   H     H_    0.975079 0.247949 0.732767 0.212187
H29   H     H_    0.862870 0.345548 0.669518 0.273820
H30   H     H_    0.219058 0.865818 0.238689 0.148456
H31   H     H_    0.177442 0.862155 0.374019 0.122963
H32   H     H_    0.146064 0.654889 0.331433 0.272351
H33   H     H_    0.030278 0.754410 0.274892 0.215383
H34   H     H_    0.921769 0.555716 0.675117 0.144371
H35   H     H_    0.151522 0.682216 0.196763 0.231148
H36   H     H_    0.352047 0.578598 0.166063 0.186050
H37   H     H_    0.646696 0.423728 0.834679 0.183335
H38   H     H_    0.371253 0.980395 0.309015 0.208245
H39   H     H_    0.661044 0.013736 0.674380 0.188226
H40   H     H_    0.873755 0.291953 0.373835 0.193725
N1    N     N_R   0.523490 0.207800 0.519350 -0.180338
N2    N     N_R   0.476510 0.792200 0.480650 -0.174648
N3    N     N_3   0.938257 0.286613 0.437795 -0.475787
N4    N     N_3   0.060909 0.714031 0.561899 -0.452228
N5    N     N_3   0.698238 0.329830 0.210847 -0.445010
N6    N     N_3   0.284924 0.653258 0.785926 -0.477108
N7    N     N_3   0.251106 0.661072 0.001286 -0.487518
N8    N     N_3   0.737756 0.329747 0.996730 -0.487565
O1    O     O_R   0.506270 0.421700 0.658830 -0.571439
O2    O     O_3   0.601140 0.814954 0.639019 -0.580354
O3    O     O_3   0.665471 0.235783 0.665669 -0.577740
O4    O     O_3   0.343466 0.765314 0.328229 -0.576242
O5    O     O_R   0.493730 0.578300 0.341170 -0.572169
O6    O     O_R   0.491200 0.609310 0.646410 -0.593734
O7    O     O_R   0.508800 0.390690 0.353590 -0.576133
O8    O     O_R   0.693580 0.406210 0.506230 -0.609137
O9    O     O_R   0.306420 0.593790 0.493770 -0.612440
O10   O     O_R   0.678510 0.593830 0.493810 -0.589921
O11   O     O_R   0.321490 0.406170 0.506190 -0.656486
O12   O     O_3   0.405697 0.182583 0.356489 -0.607503
Zn1   Zn    Zn3+2 0.510060 0.374730 0.508290 0.997774
Zn2   Zn    Zn3+2 0.489940 0.625270 0.491710 1.012900

loop_
_geom_bond_atom_site_label_1
_geom_bond_atom_site_label_2
_ccdc_geom_bond_type
C1    O1    A    
C29   H25   S    
C5    C37   A    
H5    N5    S    
C12   O5    A    
H4    N4    S    
H6    N5    S    
C26   H17   S    
C29   O3    S    
C7    O10   A    
C18   C24   A    
H9    N7    S    
N1    Zn1   S    
C9    C16   S    
C25   H15   S    
C4    O12   S    
C5    C6    A    
C11   C14   S    
C10   C17   S    
C34   C35   A    
C2    N1    A    
C36   H38   S    
C20   C35   A    
O5    Zn2   S    
O7    Zn1   S    
C30   H29   S    
H40   N3    S    
C31   O4    S    
C7    C15   S    
C29   H26   S    
N2    Zn2   S    
C8    O9    A    
C3    N2    A    
C26   H16   S    
H13   N8    S    
O11   Zn1   S    
C32   H33   S    
O1    Zn1   S    
C28   H22   S    
C31   H30   S    
C1    C19   S    
C19   C22   A    
C4    N1    A    
C4    C6    A    
C10   C14   S    
C32   H35   S    
O9    Zn2   S    
C32   H32   S    
C21   C34   A    
C25   C26   S    
C37   H39   S    
C10   C13   S    
C22   N6    S    
C2    O3    S    
C19   C23   A    
C8    O11   A    
C29   C30   S    
C33   H36   S    
C31   C32   S    
C23   C34   A    
C20   N7    S    
C11   H1    S    
C9    C11   S    
C30   H28   S    
H8    N6    S    
C20   C22   A    
C1    O6    A    
C13   C15   S    
C27   H19   S    
C14   C16   S    
C12   O7    A    
C21   C24   A    
H7    N6    S    
C16   H23   S    
O6    Zn2   S    
C28   H21   S    
C15   C17   S    
C7    O8    A    
C21   N8    S    
C11   C17   S    
C8    C14   S    
C3    O2    S    
H11   N8    S    
C24   N5    S    
C23   H37   S    
C3    C5    A    
C27   H20   S    
C26   H18   S    
C10   N4    S    
C38   O4    S    
H2    N3    S    
C36   C38   A    
C9    C15   S    
C25   H14   S    
C2    C37   A    
C38   N2    A    
O8    Zn1   S    
H3    N4    S    
O10   Zn2   S    
C33   C35   A    
C6    C36   A    
C27   O2    S    
C18   C33   A    
C30   H27   S    
C13   H12   S    
C25   O12   S    
C31   H31   S    
C17   H34   S    
C13   C16   S    
C12   C18   S    
C27   C28   S    
H10   N7    S    
C9    N3    S    
C28   H24   S    
