data_mof_unit_49762.cif
_audit_creation_date              2012-12-10T20:51:26-0500
_audit_creation_method            fapswitch 2.2
_symmetry_space_group_name_H-M    P1
_symmetry_Int_Tables_number       1
_space_group_crystal_system       triclinic
_cell_length_a                    17.644153
_cell_length_b                    8.920468
_cell_length_c                    8.095424
_cell_angle_alpha                 89.99997
_cell_angle_beta                  89.951467
_cell_angle_gamma                 89.999959
_cell_volume                      1274.17153548

loop_
_atom_site_label
_atom_site_type_symbol
_atom_type_description
_atom_site_fract_x
_atom_site_fract_y
_atom_site_fract_z
_atom_type_partial_charge
C1    C     C_R   0.500000 0.217991 0.500000 1.009492
C2    C     C_R   0.849604 0.593492 0.404241 -0.201911
C3    C     C_R   0.768005 0.384364 0.593064 0.348998
C4    C     C_R   0.231995 0.384364 0.406936 0.349007
C5    C     C_R   0.229112 0.600875 0.595607 0.397162
C6    C     C_R   0.770887 0.600875 0.404394 0.397162
C7    C     C_R   0.729288 0.495289 0.499492 -0.290761
C8    C     C_R   0.270712 0.495289 0.500508 -0.290765
C9    C     C_R   0.886557 0.485755 0.497881 -0.003419
C10   C     C_R   0.113443 0.485754 0.502118 -0.003424
C11   C     C_1   0.966372 0.483081 0.499325 0.037132
C12   C     C_R   0.500000 0.782005 0.500000 1.015705
C13   C     C_1   0.033627 0.483081 0.500674 0.037133
C14   C     C_1   0.500000 0.065187 0.500000 -0.059976
C15   C     C_1   0.500000 0.934801 0.500000 -0.097118
C16   C     C_R   0.353203 0.499687 0.500099 1.004610
C17   C     C_R   0.646797 0.499687 0.499901 1.004611
C18   C     C_R   0.846754 0.382419 0.591991 -0.208919
C19   C     C_R   0.153246 0.382418 0.408009 -0.208910
C20   C     C_R   0.150396 0.593492 0.595759 -0.201911
H1    H     H_    0.877531 0.299784 0.663493 0.195117
H2    H     H_    0.122469 0.299783 0.336507 0.195123
H3    H     H_    0.117341 0.672906 0.667027 0.198885
H4    H     H_    0.882658 0.672906 0.332972 0.198884
H5    H     H_    0.795439 0.051429 0.669991 0.374680
H6    H     H_    0.204570 0.051414 0.330001 0.374691
H7    H     H_    0.347835 0.930617 0.647212 0.396279
H8    H     H_    0.652172 0.930630 0.352798 0.396279
N1    N     N_1   0.500000 0.500000 0.073640 0.033610
N2    N     N_1   0.500000 0.500000 0.926360 0.033610
O1    O     O_R   0.500000 0.285350 0.636850 -0.606923
O2    O     O_2   0.662341 0.168369 0.598858 -0.343857
O3    O     O_3   0.782746 0.109974 0.770282 -0.485323
O4    O     O_2   0.317018 0.308392 0.145198 -0.212622
O5    O     O_2   0.337659 0.168367 0.401142 -0.343855
O6    O     O_3   0.217254 0.109976 0.229715 -0.485330
O7    O     O_2   0.213512 0.856639 0.770499 -0.266105
O8    O     O_2   0.315199 0.685769 0.852644 -0.242791
O9    O     O_3   0.332432 0.840983 0.583301 -0.571024
O10   O     O_2   0.786487 0.856641 0.229503 -0.266111
O11   O     O_2   0.684800 0.685772 0.147358 -0.242785
O12   O     O_R   0.500000 0.714650 0.363150 -0.605527
O13   O     O_3   0.667568 0.840984 0.416702 -0.571017
O14   O     O_R   0.500000 0.714650 0.636850 -0.605531
O15   O     O_R   0.500000 0.285350 0.363150 -0.606923
O16   O     O_R   0.389120 0.500000 0.636930 -0.584888
O17   O     O_R   0.610880 0.500000 0.363070 -0.584889
O18   O     O_R   0.610880 0.500000 0.636930 -0.577344
O19   O     O_R   0.389120 0.500000 0.363070 -0.577345
O20   O     O_2   0.682983 0.308391 0.854802 -0.212621
S1    S     S_3+6 0.721059 0.241433 0.705994 0.076087
S2    S     S_3+6 0.278941 0.241433 0.294005 0.076086
S3    S     S_3+6 0.272380 0.748667 0.707971 0.059854
S4    S     S_3+6 0.727619 0.748669 0.292030 0.059856
Zn1   Zn    Zn3+2 0.500000 0.500000 0.682780 1.144935
Zn2   Zn    Zn3+2 0.500000 0.500000 0.317220 1.144936

loop_
_geom_bond_atom_site_label_1
_geom_bond_atom_site_label_2
_ccdc_geom_bond_type
O16   Zn1   S    
O18   Zn1   S    
C12   O12   A    
C4    C19   A    
C20   H3    S    
O2    S1    D    
C6    C7    A    
N1    Zn2   S    
O3    S1    S    
O19   Zn2   S    
C9    C11   S    
N2    Zn1   S    
H8    O13   S    
O10   S4    D    
O6    S2    S    
C17   O18   A    
C10   C19   A    
C4    C8    A    
O7    S3    D    
O20   S1    D    
C8    C16   S    
C5    C20   A    
C2    C6    A    
C11   C13   T    
O14   Zn1   S    
C1    O15   A    
O9    S3    S    
O8    S3    D    
C6    S4    S    
O1    Zn1   S    
C5    S3    S    
C4    S2    S    
C12   C15   S    
C3    C7    A    
C2    H4    S    
O11   S4    D    
C5    C8    A    
H5    O3    S    
N1    N2    T    
C18   H1    S    
C9    C18   A    
C1    O1    A    
C19   H2    S    
C16   O19   A    
C3    C18   A    
C12   O14   A    
H7    O9    S    
O5    S2    D    
H6    O6    S    
C14   C15   T    
C16   O16   A    
C3    S1    S    
C1    C14   S    
O13   S4    S    
O12   Zn2   S    
C2    C9    A    
O4    S2    D    
C17   O17   A    
O15   Zn2   S    
C10   C20   A    
O17   Zn2   S    
C7    C17   S    
C10   C13   S    
