data_mof_unit_59938.cif
_audit_creation_date              2012-12-10T16:52:38-0500
_audit_creation_method            fapswitch 2.2
_symmetry_space_group_name_H-M    P1
_symmetry_Int_Tables_number       1
_space_group_crystal_system       triclinic
_cell_length_a                    7.840303
_cell_length_b                    8.573013
_cell_length_c                    13.63178
_cell_angle_alpha                 93.626486
_cell_angle_beta                  92.791364
_cell_angle_gamma                 93.865553
_cell_volume                      911.05376963

loop_
_atom_site_label
_atom_site_type_symbol
_atom_type_description
_atom_site_fract_x
_atom_site_fract_y
_atom_site_fract_z
_atom_type_partial_charge
Br1   Br    Br    0.752304 0.763584 0.221840 -0.500449
Br2   Br    Br    0.247674 0.236398 0.778151 -0.500456
Br3   Br    Br    0.204608 0.005892 0.374318 -0.451078
Br4   Br    Br    0.795390 0.994108 0.625681 -0.451078
C1    C     C_R   0.044235 0.794585 0.497998 0.956376
C2    C     C_R   0.937709 0.488691 0.317573 0.928126
C3    C     C_R   0.091679 0.528751 0.788265 -0.117247
C4    C     C_R   0.908317 0.471237 0.211735 -0.117259
C5    C     C_R   0.061343 0.674257 0.943038 -0.156853
C6    C     C_R   0.938646 0.325715 0.056968 -0.156850
C7    C     C_R   0.008357 0.639614 0.844703 -0.216011
C8    C     C_R   0.991639 0.360372 0.155300 -0.216015
C9    C     C_R   0.221854 0.448791 0.830619 0.157268
C10   C     C_R   0.778133 0.551186 0.169380 0.157269
C11   C     C_R   0.301428 0.509924 0.920501 0.032523
C12   C     C_R   0.955765 0.205415 0.502002 0.956376
C13   C     C_R   0.698554 0.490039 0.079503 0.032526
C14   C     C_R   0.210009 0.612530 0.980856 0.114621
C15   C     C_R   0.789974 0.387432 0.019150 0.114620
C16   C     C_R   0.469008 0.475996 0.951392 0.069827
C17   C     C_R   0.530971 0.523961 0.048615 0.069829
C18   C     C_R   0.419704 0.595488 0.113459 -0.145860
C19   C     C_R   0.580274 0.404465 0.886548 -0.145859
C20   C     C_R   0.266405 0.648449 0.078468 -0.178256
C21   C     C_R   0.733574 0.351505 0.921540 -0.178260
C22   C     C_2   0.057450 0.953668 0.479953 0.032559
C23   C     C_2   0.942549 0.046332 0.520047 0.032563
C24   C     C_R   0.062291 0.511307 0.682427 0.928126
H1    H     H_    0.190124 0.714360 0.128324 0.188889
H2    H     H_    0.512795 0.626564 0.572815 0.214832
H3    H     H_    0.809853 0.285591 0.871685 0.188892
H4    H     H_    0.096159 0.300664 0.187270 0.195001
H5    H     H_    0.903845 0.699332 0.812733 0.194999
H6    H     H_    0.992036 0.754892 0.987777 0.176493
H7    H     H_    0.007954 0.245081 0.012231 0.176492
H8    H     H_    0.449253 0.611553 0.191689 0.203071
H9    H     H_    0.550727 0.388395 0.808319 0.203078
H10   H     H_    0.487205 0.373436 0.427185 0.214830
N1    N     N_2   0.440860 0.456490 0.474790 -0.143676
N2    N     N_2   0.559140 0.543510 0.525210 -0.143675
O1    O     O_R   0.891570 0.738930 0.506190 -0.579150
O2    O     O_R   0.108430 0.261070 0.493810 -0.579148
O3    O     O_R   0.174650 0.711050 0.490030 -0.595560
O4    O     O_R   0.825350 0.288950 0.509970 -0.595560
O5    O     O_R   0.909850 0.521900 0.644940 -0.616089
O6    O     O_R   0.090150 0.478100 0.355060 -0.616093
O7    O     O_R   0.192930 0.494020 0.628780 -0.597726
O8    O     O_R   0.807070 0.505980 0.371220 -0.597724
Zn1   Zn    Zn3+2 0.810990 0.518620 0.510790 1.028374
Zn2   Zn    Zn3+2 0.189010 0.481380 0.489210 1.028372

loop_
_geom_bond_atom_site_label_1
_geom_bond_atom_site_label_2
_ccdc_geom_bond_type
O4    Zn1   S    
C21   H3    S    
C11   C14   A    
C2    C4    S    
O3    Zn2   S    
C6    H7    S    
Br1   C10   S    
C18   H8    S    
C12   O4    A    
C16   C19   A    
O5    Zn1   S    
C6    C15   A    
C4    C8    A    
Br4   C23   S    
C12   C23   S    
C9    C11   A    
C1    O3    A    
H2    N2    S    
C24   O7    A    
C17   C18   A    
C8    H4    S    
C3    C7    A    
C5    C7    A    
C10   C13   A    
C22   C23   D    
C5    H6    S    
C6    C8    A    
O2    Zn2   S    
C14   C20   A    
O1    Zn1   S    
O8    Zn1   S    
C13   C15   A    
O6    Zn2   S    
O7    Zn2   S    
C19   C21   A    
H10   N1    S    
C15   C21   A    
C18   C20   A    
C24   O5    A    
N2    Zn1   S    
C12   O2    A    
C5    C14   A    
C7    H5    S    
N1    Zn2   S    
C16   C17   A    
N1    N2    D    
Br2   C9    S    
C1    O1    A    
C20   H1    S    
C4    C10   A    
C3    C9    A    
C2    O6    A    
C19   H9    S    
Br3   C22   S    
C13   C17   A    
C3    C24   S    
C1    C22   S    
C11   C16   A    
C2    O8    A    
