data_mof_unit_43305.cif
_audit_creation_date              2012-12-11T14:38:14-0500
_audit_creation_method            fapswitch 2.2
_symmetry_space_group_name_H-M    P1
_symmetry_Int_Tables_number       1
_space_group_crystal_system       triclinic
_cell_length_a                    19.451444
_cell_length_b                    11.048772
_cell_length_c                    19.672281
_cell_angle_alpha                 90.048483
_cell_angle_beta                  96.66608
_cell_angle_gamma                 90.025446
_cell_volume                      4199.27542911

loop_
_atom_site_label
_atom_site_type_symbol
_atom_type_description
_atom_site_fract_x
_atom_site_fract_y
_atom_site_fract_z
_atom_type_partial_charge
C1    C     C_R   0.727870 0.945777 0.357480 0.500326
C2    C     C_R   0.272106 0.945713 0.642540 0.500675
C3    C     C_R   0.227891 0.445748 0.357462 0.500975
C4    C     C_R   0.772122 0.445750 0.642518 0.500849
C5    C     C_3   0.670653 0.436884 0.459952 -0.244875
C6    C     C_3   0.329367 0.436789 0.540063 -0.244334
C7    C     C_3   0.170664 0.936948 0.459962 -0.244889
C8    C     C_3   0.829330 0.936886 0.540069 -0.244919
C9    C     C_3   0.817753 0.421426 0.534101 0.106721
C10   C     C_3   0.182283 0.421272 0.465886 0.106969
C11   C     C_3   0.317721 0.921254 0.534133 0.106347
C12   C     C_3   0.682244 0.921283 0.465900 0.106927
C13   C     C_3   0.734052 0.260503 0.565315 0.143717
C14   C     C_3   0.266010 0.260530 0.434452 0.143967
C15   C     C_3   0.233950 0.760439 0.565377 0.143716
C16   C     C_3   0.765856 0.760499 0.434464 0.143992
C17   C     C_3   0.751133 0.397340 0.572689 0.025651
C18   C     C_3   0.248907 0.397341 0.427256 0.025499
C19   C     C_3   0.251089 0.897260 0.572726 0.025516
C20   C     C_3   0.748851 0.897332 0.427267 0.025941
C21   C     C_3   0.729201 0.352342 0.441158 -0.023412
C22   C     C_3   0.270769 0.352231 0.558774 -0.024428
C23   C     C_3   0.229168 0.852289 0.441180 -0.024116
C24   C     C_3   0.770780 0.852232 0.558781 -0.024362
C25   C     C_3   0.797323 0.423801 0.458344 -0.204512
C26   C     C_3   0.202692 0.423648 0.541657 -0.204598
C27   C     C_3   0.297314 0.923666 0.458382 -0.204609
C28   C     C_3   0.702669 0.923587 0.541664 -0.204579
C29   C     C_3   0.723278 0.237087 0.486341 -0.188225
C30   C     C_3   0.276546 0.237004 0.513412 -0.188489
C31   C     C_3   0.223148 0.737047 0.486384 -0.188273
C32   C     C_3   0.776692 0.737030 0.513425 -0.188616
C33   C     C_3   0.477292 0.316357 0.963597 0.179811
C34   C     C_3   0.502663 0.315671 0.039751 0.192509
C35   C     C_3   0.985573 0.830347 0.961801 0.198298
C36   C     C_3   0.014698 0.830316 0.038268 0.198432
C37   C     C_3   0.408545 0.122426 0.977075 -0.247088
C38   C     C_3   0.556548 0.107023 0.027834 -0.233050
C39   C     C_3   0.923151 0.629930 0.981136 -0.268868
C40   C     C_3   0.076946 0.629825 0.018788 -0.269084
C41   C     C_3   0.532441 0.109933 0.950904 -0.280971
C42   C     C_3   0.432994 0.123443 0.054611 -0.297314
C43   C     C_3   0.043445 0.625253 0.944343 -0.271692
C44   C     C_3   0.956654 0.625258 0.055563 -0.271563
C45   C     C_R   0.535966 0.180488 0.338664 0.510698
C46   C     C_R   0.464050 0.180451 0.661343 0.518227
C47   C     C_R   0.035938 0.680485 0.338647 0.519950
C48   C     C_R   0.964045 0.680453 0.661340 0.519818
C49   C     C_3   0.463882 0.182406 0.937231 0.043826
C50   C     C_3   0.505932 0.180609 0.067317 0.045959
C51   C     C_3   0.972603 0.692342 0.936423 0.038639
C52   C     C_3   0.027545 0.692279 0.063555 0.038710
C53   C     C_1   0.762503 0.427649 0.904704 -0.026662
C54   C     C_1   0.237514 0.426790 0.095428 -0.031187
C55   C     C_1   0.261958 0.926589 0.904337 -0.032981
C56   C     C_1   0.737606 0.927221 0.095411 -0.028296
C57   C     C_1   0.748657 0.406033 0.034621 -0.043309
C58   C     C_1   0.250975 0.404624 0.965479 -0.032623
C59   C     C_1   0.248124 0.904611 0.034216 -0.030445
C60   C     C_1   0.751620 0.905515 0.965567 -0.027508
C61   C     C_1   0.754598 0.416018 0.964134 -0.054463
C62   C     C_1   0.245226 0.414651 0.035989 -0.056926
C63   C     C_1   0.253890 0.914598 0.963703 -0.051524
C64   C     C_1   0.745634 0.915482 0.036026 -0.046915
C65   C     C_1   0.743715 0.391592 0.094508 -0.001969
C66   C     C_1   0.256075 0.390916 0.905569 0.004429
C67   C     C_1   0.243520 0.890401 0.094182 -0.010678
C68   C     C_1   0.756386 0.891097 0.905652 -0.008879
C69   C     C_R   0.724549 0.314972 0.367825 0.543934
C70   C     C_R   0.275434 0.314908 0.632125 0.544106
C71   C     C_R   0.224538 0.814944 0.367829 0.546351
C72   C     C_R   0.775439 0.814901 0.632128 0.545766
C73   C     C_R   0.722115 0.954225 0.163096 0.523717
C74   C     C_R   0.277772 0.954073 0.836807 0.515731
C75   C     C_R   0.222128 0.454118 0.163120 0.518797
C76   C     C_R   0.777911 0.454371 0.836948 0.518842
C77   C     C_R   0.532330 0.180379 0.140543 0.552497
C78   C     C_R   0.439965 0.183260 0.863311 0.574817
C79   C     C_R   0.057527 0.684640 0.136004 0.567809
C80   C     C_R   0.942560 0.684682 0.864003 0.567608
C81   C     C_R   0.735939 0.357764 0.163376 0.551944
C82   C     C_R   0.264004 0.357783 0.836622 0.540001
C83   C     C_R   0.235877 0.857376 0.163232 0.538089
C84   C     C_R   0.764087 0.857642 0.836688 0.538030
C85   C     C_1   0.485315 0.174125 0.594203 0.024833
C86   C     C_1   0.514710 0.174241 0.405804 0.027053
C87   C     C_1   0.985286 0.674136 0.594188 0.024774
C88   C     C_1   0.014647 0.674237 0.405774 0.024721
C89   C     C_1   0.504391 0.172357 0.464959 0.047707
C90   C     C_1   0.495637 0.172296 0.535047 0.047345
C91   C     C_1   0.004324 0.672357 0.464930 0.047130
C92   C     C_1   0.995587 0.672310 0.535024 0.047304
C93   C     C_3   0.681551 0.458772 0.538272 -0.251541
C94   C     C_3   0.318472 0.458849 0.461776 -0.251464
C95   C     C_3   0.181529 0.958744 0.538295 -0.251545
C96   C     C_3   0.818458 0.958758 0.461763 -0.251620
Cr1   Cr    Cr6+3 0.765780 0.160710 0.267420 1.023200
Cr2   Cr    Cr6+3 0.234220 0.160710 0.732580 1.017206
Cr3   Cr    Cr6+3 0.265780 0.660710 0.267420 1.016124
Cr4   Cr    Cr6+3 0.734220 0.660710 0.732580 1.021008
Cr5   Cr    Cr6+3 0.612200 0.009560 0.248850 1.044091
Cr6   Cr    Cr6+3 0.387800 0.009560 0.751150 1.048676
Cr7   Cr    Cr6+3 0.112200 0.509560 0.248850 1.043136
Cr8   Cr    Cr6+3 0.887800 0.509560 0.751150 1.043022
Cr9   Cr    Cr6+3 0.616030 0.323720 0.248510 1.002194
Cr10  Cr    Cr6+3 0.383970 0.323720 0.751490 1.006879
Cr11  Cr    Cr6+3 0.116030 0.823720 0.248510 0.986549
Cr12  Cr    Cr6+3 0.883970 0.823720 0.751490 0.986179
H1    H     H_    0.672933 0.552660 0.552096 0.176713
H2    H     H_    0.327078 0.552768 0.448113 0.176716
H3    H     H_    0.172905 0.052589 0.552181 0.176517
H4    H     H_    0.827142 0.052628 0.448038 0.176700
H5    H     H_    0.760258 0.171579 0.473971 0.111344
H6    H     H_    0.239276 0.171798 0.525507 0.112037
H7    H     H_    0.260042 0.671408 0.474009 0.110995
H8    H     H_    0.739719 0.671422 0.525707 0.111079
H9    H     H_    0.841430 0.395204 0.431266 0.219091
H10   H     H_    0.158581 0.394964 0.568700 0.219015
H11   H     H_    0.341419 0.895028 0.431317 0.218872
H12   H     H_    0.658565 0.894855 0.568704 0.219149
H13   H     H_    0.520411 0.352671 0.936686 0.142995
H14   H     H_    0.464297 0.364885 0.067325 0.140949
H15   H     H_    0.026253 0.868679 0.932438 0.159740
H16   H     H_    0.974035 0.868722 0.067644 0.159563
H17   H     H_    0.358295 0.170977 0.966923 0.154582
H18   H     H_    0.609927 0.144540 0.037618 0.163968
H19   H     H_    0.873321 0.680248 0.978064 0.150221
H20   H     H_    0.126831 0.680078 0.021934 0.150345
H21   H     H_    0.395891 0.176136 0.081944 0.112974
H22   H     H_    0.573183 0.152072 0.923305 0.125700
H23   H     H_    0.921193 0.667209 0.089388 0.124905
H24   H     H_    0.078948 0.667201 0.910577 0.124892
H25   H     H_    0.525152 0.015254 0.932014 0.144339
H26   H     H_    0.433971 0.029250 0.074733 0.129729
H27   H     H_    0.036347 0.528776 0.928649 0.144430
H28   H     H_    0.963673 0.528765 0.071135 0.144493
H29   H     H_    0.558921 0.011239 0.045560 0.133356
H30   H     H_    0.399696 0.027349 0.959561 0.127603
H31   H     H_    0.088785 0.536055 0.037302 0.129842
H32   H     H_    0.911209 0.536180 0.962513 0.130127
H33   H     H_    0.636312 0.418934 0.559779 0.185167
H34   H     H_    0.363729 0.419230 0.440207 0.184818
H35   H     H_    0.136268 0.918886 0.559752 0.184928
H36   H     H_    0.863673 0.918898 0.440226 0.184960
H37   H     H_    0.619117 0.394598 0.445184 0.160728
H38   H     H_    0.380868 0.394446 0.554745 0.160477
H39   H     H_    0.119103 0.894787 0.445146 0.160557
H40   H     H_    0.880865 0.894699 0.554810 0.160494
H41   H     H_    0.670542 0.524258 0.432290 0.172334
H42   H     H_    0.329551 0.524124 0.567862 0.172877
H43   H     H_    0.170638 0.024352 0.432336 0.172667
H44   H     H_    0.829437 0.024262 0.567812 0.172516
H45   H     H_    0.339040 0.011534 0.548510 0.121499
H46   H     H_    0.660990 0.011581 0.451651 0.121952
H47   H     H_    0.839036 0.511742 0.548478 0.121437
H48   H     H_    0.161012 0.511560 0.451625 0.121758
H49   H     H_    0.289355 0.018137 0.441135 0.116486
H50   H     H_    0.710683 0.018043 0.559017 0.116758
H51   H     H_    0.789312 0.518247 0.441096 0.116781
H52   H     H_    0.210741 0.518101 0.558997 0.116671
H53   H     H_    0.777025 0.203258 0.587462 0.173734
H54   H     H_    0.223110 0.203233 0.412023 0.173667
H55   H     H_    0.276896 0.703142 0.587542 0.173607
H56   H     H_    0.722827 0.703258 0.412303 0.173835
H57   H     H_    0.670973 0.198703 0.471968 0.125742
H58   H     H_    0.328722 0.198314 0.527856 0.125216
H59   H     H_    0.170808 0.698789 0.472017 0.125700
H60   H     H_    0.829003 0.698725 0.527701 0.125585
O1    O     O_R   0.783100 0.287550 0.345460 -0.509251
O2    O     O_R   0.216900 0.287550 0.654540 -0.508010
O3    O     O_R   0.283100 0.787550 0.345460 -0.507452
O4    O     O_R   0.716900 0.787550 0.654540 -0.506895
O5    O     O_R   0.554710 0.081900 0.170950 -0.512033
O6    O     O_R   0.445290 0.081900 0.829050 -0.514946
O7    O     O_R   0.054710 0.581900 0.170950 -0.509311
O8    O     O_R   0.945290 0.581900 0.829050 -0.509341
O9    O     O_R   0.545650 0.284910 0.163740 -0.499042
O10   O     O_R   0.454350 0.284910 0.836260 -0.518346
O11   O     O_R   0.045650 0.784910 0.163740 -0.547869
O12   O     O_R   0.954350 0.784910 0.836260 -0.547664
O13   O     O_R   0.677950 0.374280 0.185410 -0.492536
O14   O     O_R   0.322050 0.374280 0.814590 -0.504967
O15   O     O_R   0.177950 0.874280 0.185410 -0.522388
O16   O     O_R   0.822050 0.874280 0.814590 -0.523330
O17   O     O_3   0.664670 0.164660 0.254930 -0.269130
O18   O     O_3   0.335330 0.164660 0.745070 -0.286440
O19   O     O_3   0.164670 0.664660 0.254930 -0.280308
O20   O     O_3   0.835330 0.664660 0.745070 -0.280847
O21   O     O_R   0.760020 0.037400 0.337700 -0.538824
O22   O     O_R   0.239980 0.037400 0.662300 -0.537582
O23   O     O_R   0.260020 0.537400 0.337700 -0.537400
O24   O     O_R   0.739980 0.537400 0.662300 -0.537105
O25   O     O_R   0.666600 0.921990 0.332020 -0.448729
O26   O     O_R   0.333400 0.921990 0.667980 -0.447072
O27   O     O_R   0.166600 0.421990 0.332020 -0.448050
O28   O     O_R   0.833400 0.421990 0.667980 -0.448354
O29   O     O_R   0.557260 0.082670 0.312540 -0.464081
O30   O     O_R   0.442740 0.082670 0.687460 -0.458720
O31   O     O_R   0.057260 0.582670 0.312540 -0.458443
O32   O     O_R   0.942740 0.582670 0.687460 -0.458278
O33   O     O_R   0.548410 0.285740 0.316480 -0.534397
O34   O     O_R   0.451590 0.285740 0.683520 -0.525765
O35   O     O_R   0.048410 0.785740 0.316480 -0.527753
O36   O     O_R   0.951590 0.785740 0.683520 -0.527869
O37   O     O_R   0.680500 0.375040 0.327000 -0.512248
O38   O     O_R   0.319500 0.375040 0.673000 -0.508020
O39   O     O_R   0.180500 0.875040 0.327000 -0.508186
O40   O     O_R   0.819500 0.875040 0.673000 -0.508539
O41   O     O_R   0.780350 0.286720 0.192720 -0.507136
O42   O     O_R   0.219650 0.286720 0.807280 -0.507569
O43   O     O_R   0.280350 0.786720 0.192720 -0.504769
O44   O     O_R   0.719650 0.786720 0.807280 -0.502457
O45   O     O_R   0.757470 0.036630 0.196110 -0.495005
O46   O     O_R   0.242530 0.036630 0.803890 -0.496959
O47   O     O_R   0.257470 0.536630 0.196110 -0.499898
O48   O     O_R   0.742530 0.536630 0.803890 -0.498156
O49   O     O_R   0.663840 0.921160 0.179280 -0.526818
O50   O     O_R   0.336160 0.921160 0.820720 -0.532233
O51   O     O_R   0.163840 0.421160 0.179280 -0.529827
O52   O     O_R   0.836160 0.421160 0.820720 -0.530580
S1    S     S_3+6 0.893054 0.319324 0.552780 -0.017479
O53   O     O_2   0.893710 0.248190 0.617982 -0.312835
O54   O     O_2   0.897391 0.230910 0.495370 -0.319955
O55   O     O_3   0.964649 0.405408 0.559676 -0.489600
H61   H     H_    0.002799 0.350637 0.577582 0.398163
S2    S     S_3+6 0.106974 0.319074 0.447057 -0.017476
O56   O     O_2   0.106393 0.247860 0.381823 -0.312796
O57   O     O_2   0.102518 0.230724 0.504399 -0.319934
O58   O     O_3   0.035414 0.405127 0.440104 -0.489478
H62   H     H_    0.997251 0.350290 0.422170 0.398074
S3    S     S_3+6 0.392997 0.819127 0.552829 -0.016782
O59   O     O_2   0.393572 0.747908 0.617990 -0.309949
O60   O     O_2   0.397400 0.730801 0.495390 -0.320224
O61   O     O_3   0.464592 0.905221 0.559851 -0.489528
H63   H     H_    0.502751 0.850357 0.577614 0.398599
S4    S     S_3+6 0.606894 0.819162 0.447079 -0.017731
O62   O     O_2   0.606172 0.748160 0.381756 -0.313717
O63   O     O_2   0.602544 0.730617 0.504345 -0.319563
O64   O     O_3   0.535350 0.905241 0.440355 -0.489660
H64   H     H_    0.497171 0.850523 0.422313 0.397887
O65   O     O_3   0.415101 0.386037 0.951332 -0.590570
C97   C     C_3   0.425434 0.504841 0.926174 0.027545
H65   H     H_    0.394119 0.516164 0.876134 0.180535
H66   H     H_    0.478822 0.525295 0.914919 0.097504
C98   C     C_3   0.399928 0.599510 0.974466 -0.283272
H67   H     H_    0.342712 0.594753 0.971938 0.171725
H68   H     H_    0.421492 0.580808 0.028026 0.166389
C99   C     C_3   0.420019 0.727442 0.955161 -0.485447
H69   H     H_    0.477208 0.736483 0.958688 0.137129
H70   H     H_    0.400267 0.793627 0.990713 0.151870
H71   H     H_    0.397211 0.748551 0.902142 0.179132
O66   O     O_3   0.570028 0.369454 0.052103 -0.572482
C100  C     C_3   0.569219 0.497966 0.056074 0.009368
H72   H     H_    0.537443 0.538782 0.012581 0.115746
H73   H     H_    0.622551 0.529587 0.051276 0.153676
C101  C     C_3   0.548310 0.548355 0.123826 -0.263777
H74   H     H_    0.493762 0.526161 0.129742 0.138671
H75   H     H_    0.581182 0.509635 0.167988 0.219206
C102  C     C_3   0.556578 0.685741 0.127038 -0.475457
H76   H     H_    0.611054 0.711260 0.122349 0.164116
H77   H     H_    0.542751 0.719732 0.176822 0.168694
H78   H     H_    0.522064 0.729370 0.085248 0.143466
O67   O     O_3   0.924130 0.903711 0.954017 -0.596796
C103  C     C_3   0.922587 0.001128 0.905262 0.026534
H79   H     H_    0.869749 0.040269 0.900870 0.150902
H80   H     H_    0.929603 0.972732 0.853317 0.202890
C104  C     C_3   0.972157 0.106712 0.922619 -0.335780
H81   H     H_    0.951804 0.162983 0.962385 0.158756
H82   H     H_    0.025065 0.072561 0.938575 0.187451
C105  C     C_3   0.975878 0.189450 0.860847 -0.464430
H83   H     H_    0.998503 0.140267 0.819461 0.154971
H84   H     H_    0.009168 0.268839 0.876243 0.156567
H85   H     H_    0.923406 0.222324 0.841023 0.175331
O68   O     O_3   0.076203 0.903622 0.046152 -0.596208
C106  C     C_3   0.077717 0.001109 0.094948 0.026749
H86   H     H_    0.130652 0.039979 0.099661 0.151181
H87   H     H_    0.070258 0.972869 0.146797 0.202442
C107  C     C_3   0.028490 0.106898 0.077318 -0.336014
H88   H     H_    0.049125 0.162668 0.037543 0.158800
H89   H     H_    0.975530 0.072929 0.061274 0.187660
C108  C     C_3   0.024801 0.190135 0.138959 -0.464325
H90   H     H_    0.001851 0.141467 0.180294 0.154717
H91   H     H_    0.991818 0.269706 0.123361 0.156693
H92   H     H_    0.077326 0.222674 0.158938 0.175718
O69   O     O_3   0.672309 0.222955 0.592193 -0.617558
C109  C     C_3   0.673876 0.230897 0.664330 -0.012708
H93   H     H_    0.623798 0.193610 0.676726 0.166973
H94   H     H_    0.673870 0.326115 0.681800 0.144597
C110  C     C_3   0.731863 0.157250 0.704899 -0.277754
H95   H     H_    0.733943 0.065199 0.682671 0.195399
H96   H     H_    0.782541 0.202420 0.702924 0.184046
C111  C     C_3   0.719660 0.146464 0.779910 -0.449333
H97   H     H_    0.708264 0.236354 0.801096 0.143366
H98   H     H_    0.766767 0.109958 0.810128 0.146155
H99   H     H_    0.675452 0.084788 0.785073 0.154430
O70   O     O_3   0.327878 0.223153 0.407742 -0.617156
C112  C     C_3   0.326654 0.231518 0.335661 -0.013344
H100  H     H_    0.376931 0.194886 0.323432 0.164257
H101  H     H_    0.326474 0.326814 0.318405 0.143256
C113  C     C_3   0.269072 0.157404 0.294669 -0.275568
H102  H     H_    0.267057 0.065280 0.316760 0.195526
H103  H     H_    0.218244 0.202123 0.296413 0.183371
C114  C     C_3   0.281819 0.146884 0.219762 -0.453360
H104  H     H_    0.293155 0.236923 0.198774 0.139570
H105  H     H_    0.234978 0.109983 0.189202 0.147120
H106  H     H_    0.326245 0.085644 0.214791 0.149383
O71   O     O_3   0.172197 0.722942 0.592269 -0.617525
C115  C     C_3   0.173692 0.731097 0.664399 -0.013118
H107  H     H_    0.123555 0.694026 0.676769 0.166598
H108  H     H_    0.173757 0.826360 0.681797 0.144207
C116  C     C_3   0.231552 0.657350 0.705102 -0.276267
H109  H     H_    0.233595 0.565251 0.682919 0.194858
H110  H     H_    0.282271 0.702389 0.703153 0.185629
C117  C     C_3   0.219216 0.646722 0.780113 -0.451393
H111  H     H_    0.207659 0.736621 0.801185 0.142588
H112  H     H_    0.266301 0.610427 0.810512 0.149656
H113  H     H_    0.175038 0.584960 0.785246 0.151767
O72   O     O_3   0.827520 0.722971 0.407433 -0.617530
C118  C     C_3   0.825818 0.730832 0.335278 -0.012616
H114  H     H_    0.875820 0.693445 0.322755 0.166664
H115  H     H_    0.825907 0.826036 0.317882 0.143986
C119  C     C_3   0.767676 0.657255 0.294729 -0.277244
H116  H     H_    0.765558 0.565214 0.316882 0.194788
H117  H     H_    0.717060 0.702476 0.296857 0.185154
C120  C     C_3   0.779675 0.646453 0.219643 -0.453656
H118  H     H_    0.791185 0.736300 0.198542 0.141062
H119  H     H_    0.732442 0.610110 0.189449 0.150467
H120  H     H_    0.823770 0.584669 0.214302 0.151800

loop_
_geom_bond_atom_site_label_1
_geom_bond_atom_site_label_2
_ccdc_geom_bond_type
C81   O41   A    
C44   H28   S    
Cr8   O32   S    
C119  H117  S    
Cr2   O22   S    
Cr3   O19   S    
C114  H105  S    
C108  H92   S    
Cr1   O17   S    
Cr6   O18   S    
C72   O4    A    
C15   H55   S    
C36   H16   S    
C6    H38   S    
C46   O30   A    
C119  C120  S    
C40   H20   S    
C101  C102  S    
C5    H41   S    
C49   C78   S    
O68   C106  S    
C37   C42   S    
C51   C80   S    
C55   C74   S    
C40   C43   S    
O64   H64   S    
C6    C94   S    
C25   H51   S    
C97   H66   S    
C26   H52   S    
Cr11  O39   S    
C115  C116  S    
Cr11  O11   S    
C71   O39   A    
Cr2   O46   S    
C98   H67   S    
C74   O46   A    
Cr6   O26   S    
C41   C49   S    
C99   H70   S    
C97   C98   S    
Cr12  O16   S    
Cr7   O19   S    
Cr10  O18   S    
C12   H46   S    
C117  H111  S    
C21   C29   S    
C3    O27   A    
C35   C36   S    
C23   C31   S    
C1    O25   A    
C24   C32   S    
O58   H62   S    
C66   C82   S    
C114  H104  S    
C11   C27   S    
C16   C20   S    
C12   C20   S    
C28   H50   S    
C48   C87   S    
C83   O15   A    
C32   H8    S    
C30   H58   S    
C13   O69   S    
O70   C112  S    
C48   O32   A    
C32   H60   S    
C35   C51   S    
C79   O11   A    
C50   C77   S    
C113  H102  S    
C4    O28   A    
C29   H5    S    
C39   H32   S    
Cr4   O48   S    
C1    C20   S    
C11   S3    S    
C56   C73   S    
C109  C110  S    
Cr4   O20   S    
C2    C19   S    
Cr12  O20   S    
C2    O22   A    
Cr9   O9    S    
C102  H77   S    
Cr10  O38   S    
C85   C90   T    
C57   C61   S    
C26   H10   S    
C59   C63   S    
C42   H26   S    
C60   C64   S    
C111  H98   S    
C109  H94   S    
C16   O72   S    
C10   C18   S    
C75   O47   A    
S3    O61   S    
C5    C21   S    
C98   C99   S    
Cr11  O15   S    
C33   C49   S    
O66   C100  S    
C39   C51   S    
C118  H115  S    
C67   C83   S    
Cr4   O4    S    
C33   O65   S    
Cr12  O40   S    
C41   H25   S    
C72   O40   A    
Cr3   O43   S    
C16   H56   S    
Cr1   O41   S    
C36   O68   S    
C8    H44   S    
C100  H72   S    
C104  C105  S    
Cr5   O29   S    
C29   H57   S    
Cr12  O36   S    
S4    O62   D    
O65   C97   S    
C120  H119  S    
C59   C67   T    
C53   C61   T    
C103  H79   S    
C101  H75   S    
C56   C64   T    
C52   C79   S    
C36   C52   S    
C113  C114  S    
C44   C52   S    
Cr1   O21   S    
C20   C96   S    
C34   H14   S    
C112  H101  S    
C47   O31   A    
Cr4   O24   S    
Cr5   O17   S    
C31   H7    S    
C38   H18   S    
C115  H108  S    
C7    H39   S    
Cr8   O20   S    
C5    H37   S    
C94   H34   S    
C84   O16   A    
C106  C107  S    
C38   C41   S    
C28   H12   S    
C91   C92   S    
C108  H91   S    
C77   O9    A    
C21   C69   S    
Cr11  O35   S    
S1    O53   D    
Cr9   O33   S    
C88   C91   T    
C74   O50   A    
C110  H95   S    
C69   O1    A    
C42   C50   S    
C37   H30   S    
C116  H110  S    
C71   O3    A    
C17   C93   S    
C19   C95   S    
C24   C72   S    
C21   C25   S    
C22   C30   S    
C24   C28   S    
C100  C101  S    
C104  H81   S    
C15   C31   S    
C39   C44   S    
C27   H49   S    
C82   O14   A    
C69   O37   A    
S4    O64   S    
C13   C17   S    
C35   H15   S    
C45   C86   S    
C103  C104  S    
C7    C23   S    
C8    C24   S    
C42   H21   S    
C11   H45   S    
C54   C75   S    
Cr2   O2    S    
C9    H47   S    
S2    O56   D    
C107  H88   S    
Cr9   O13   S    
C22   C70   S    
C93   H1    S    
C82   O42   A    
C1    O21   A    
C58   C62   S    
C95   H35   S    
C4    O24   A    
C106  H86   S    
O55   H61   S    
C9    C25   S    
O67   C103  S    
C15   C19   S    
C11   C19   S    
C12   C28   S    
C13   C29   S    
S1    O55   S    
C41   H22   S    
C117  H112  S    
C6    C22   S    
C110  C111  S    
C35   O67   S    
Cr5   O5    S    
C113  H103  S    
C107  C108  S    
C46   C85   S    
C117  H113  S    
C119  H116  S    
Cr1   O45   S    
C87   C92   T    
C105  H85   S    
C73   O45   A    
C8    H40   S    
Cr7   O27   S    
Cr2   O42   S    
Cr5   O25   S    
C114  H106  S    
C14   O70   S    
O71   C115  S    
C68   C84   S    
C23   C71   S    
Cr8   O8    S    
C54   C62   T    
C94   H2    S    
C2    O26   A    
C14   H54   S    
O69   C109  S    
C37   C49   S    
C76   O48   A    
C65   C81   S    
Cr7   O7    S    
C97   H65   S    
Cr8   O28   S    
C47   O35   A    
S3    O60   D    
C7    H43   S    
C4    C17   S    
C98   H68   S    
C53   C76   S    
C16   C32   S    
O61   H63   S    
C93   H33   S    
C99   H69   S    
C30   H6    S    
C48   O36   A    
C111  H97   S    
C77   O5    A    
C78   O10   A    
C57   C65   T    
C86   C89   T    
C84   O44   A    
Cr9   O37   S    
Cr6   O6    S    
C15   O71   S    
C70   O2    A    
Cr2   O18   S    
Cr3   O23   S    
C104  H82   S    
C43   C51   S    
C76   O52   A    
C38   H29   S    
S4    O63   D    
C120  H118  S    
C118  H114  S    
C6    H42   S    
C9    S1    S    
C46   O34   A    
Cr3   O3    S    
C60   C68   T    
C103  H80   S    
C22   C26   S    
C105  H83   S    
C89   C90   S    
C45   O29   A    
Cr7   O51   S    
C116  H109  S    
C112  H100  S    
C14   C18   S    
C8    C96   S    
C81   O13   A    
C102  H78   S    
C44   H23   S    
C96   H4    S    
C80   O12   A    
C43   H24   S    
C106  H87   S    
C75   O51   A    
Cr6   O30   S    
C109  H93   S    
C96   H36   S    
C40   H31   S    
Cr11  O19   S    
Cr1   O1    S    
Cr12  O12   S    
C3    C18   S    
Cr9   O17   S    
Cr8   O52   S    
C58   C66   T    
Cr10  O14   S    
C23   C27   S    
C99   H71   S    
C10   C26   S    
C118  C119  S    
C33   H13   S    
C14   C30   S    
C37   H17   S    
C34   C50   S    
C39   H19   S    
C79   O7    A    
C80   O8    A    
C10   H48   S    
C100  H73   S    
Cr6   O50   S    
C108  H90   S    
C40   C52   S    
Cr4   O44   S    
C55   C63   T    
C120  H120  S    
O72   C118  S    
C3    O23   A    
Cr10  O34   S    
C101  H74   S    
C33   C34   S    
C73   O49   A    
Cr7   O31   S    
C43   H27   S    
C9    C17   S    
S2    O57   D    
C18   C94   S    
C112  C113  S    
C107  H89   S    
C102  H76   S    
C115  H107  S    
C10   S2    S    
C12   S4    S    
C111  H99   S    
C31   H59   S    
C25   H9    S    
C5    C93   S    
C13   H53   S    
C38   C50   S    
C27   H11   S    
C70   O38   A    
S2    O58   S    
C7    C95   S    
C47   C88   S    
S1    O54   D    
C95   H3    S    
Cr3   O47   S    
C110  H96   S    
Cr10  O10   S    
C105  H84   S    
Cr5   O49   S    
C45   O33   A    
C116  C117  S    
S3    O59   D    
C78   O6    A    
C34   O66   S    
C83   O43   A    
