data_mof_unit_7755.cif
_audit_creation_date              2012-12-10T17:01:37-0500
_audit_creation_method            fapswitch 2.2
_symmetry_space_group_name_H-M    P1
_symmetry_Int_Tables_number       1
_space_group_crystal_system       triclinic
_cell_length_a                    10.24217
_cell_length_b                    11.199351
_cell_length_c                    13.072496
_cell_angle_alpha                 84.702186
_cell_angle_beta                  72.604358
_cell_angle_gamma                 108.468307
_cell_volume                      1327.91941702

loop_
_atom_site_label
_atom_site_type_symbol
_atom_type_description
_atom_site_fract_x
_atom_site_fract_y
_atom_site_fract_z
_atom_type_partial_charge
C1    C     C_R   0.444963 0.257096 0.505721 0.860114
C2    C     C_R   0.558344 0.745158 0.489889 0.907378
C3    C     C_2   0.078545 0.498021 0.482343 0.228936
C4    C     C_2   0.916510 0.483424 0.506728 0.293535
C5    C     C_R   0.468698 0.495776 0.704067 0.789640
C6    C     C_R   0.531934 0.509579 0.295831 0.866830
C7    C     C_R   0.553125 0.513467 0.177628 -0.160733
C8    C     C_R   0.447393 0.488404 0.823329 -0.191015
C9    C     C_R   0.304785 0.406165 0.019098 0.053931
C10   C     C_R   0.698319 0.576351 0.982811 0.060231
C11   C     C_R   0.309721 0.445252 0.910976 0.414836
C12   C     C_R   0.680587 0.596328 0.090240 0.403246
C13   C     C_R   0.575700 0.521908 0.849858 -0.258286
C14   C     C_R   0.433515 0.437750 0.152034 -0.241035
C15   C     C_R   0.571268 0.514141 0.958177 0.088243
C16   C     C_R   0.435702 0.449653 0.043545 0.079849
C17   C     C_2   0.429886 0.122676 0.508143 -0.416155
C18   C     C_2   0.586974 0.884042 0.487164 -0.392367
C19   C     C_2   0.543295 0.085457 0.455768 0.329662
C20   C     C_2   0.509512 0.949290 0.455576 0.358685
Cu1   Cu    Cu3+1 0.647370 0.522180 0.481340 1.119151
Cu2   Cu    Cu3+1 0.352630 0.477820 0.518660 1.124234
H1    H     H_    0.334164 0.378624 0.218614 0.184650
H2    H     H_    0.680750 0.563512 0.784464 0.194492
H3    H     H_    0.676768 0.936170 0.512924 0.149289
H4    H     H_    0.322831 0.050330 0.555783 0.158653
N1    N     N_2   0.131210 0.444490 0.546730 -0.013829
N2    N     N_2   0.868790 0.555510 0.453270 -0.022835
O1    O     O_R   0.578710 0.332530 0.490040 -0.567643
O2    O     O_R   0.421290 0.667470 0.509960 -0.557867
O3    O     O_R   0.329810 0.295070 0.521560 -0.516519
O4    O     O_R   0.670190 0.704930 0.478440 -0.528462
O5    O     O_R   0.604230 0.515670 0.637800 -0.645011
O6    O     O_R   0.395770 0.484330 0.362200 -0.647455
O7    O     O_R   0.355330 0.478200 0.669330 -0.470027
O8    O     O_R   0.644670 0.521800 0.330670 -0.484279
S1    S     S_3+6 0.778470 0.754081 0.100299 0.066485
O9    O     O_2   0.701010 0.786889 0.204524 -0.233260
O10   O     O_2   0.931842 0.766910 0.092494 -0.220770
O11   O     O_3   0.789036 0.859066 0.994671 -0.505670
H5    H     H_    0.849517 0.944343 0.001875 0.396396
S2    S     S_3+6 0.151073 0.468070 0.896979 0.044412
O12   O     O_2   0.185638 0.566262 0.796930 -0.239583
O13   O     O_2   0.045922 0.341009 0.894095 -0.249984
O14   O     O_3   0.070642 0.519798 0.007244 -0.488915
H6    H     H_    0.963693 0.473634 0.026968 0.383978
C21   C     C_3   0.160510 0.325337 0.109244 -0.652104
H7    H     H_    0.126807 0.383940 0.168799 0.263910
H8    H     H_    0.070460 0.283868 0.077907 0.284705
H9    H     H_    0.172929 0.241615 0.152299 0.211288
C22   C     C_3   0.848271 0.634529 0.893485 -0.665880
H10   H     H_    0.937741 0.669453 0.926760 0.290841
H11   H     H_    0.871087 0.560121 0.848037 0.242889
H12   H     H_    0.852809 0.716391 0.835976 0.248000
S3    S     S_3+6 0.383720 0.890274 0.390702 0.043174
O15   O     O_2   0.446654 0.825983 0.303163 -0.234771
O16   O     O_2   0.245371 0.798651 0.477924 -0.315509
O17   O     O_3   0.349581 0.011014 0.330240 -0.482628
H13   H     H_    0.263800 0.018689 0.385477 0.360311
S4    S     S_3+6 0.711060 0.188269 0.351890 0.063865
O18   O     O_2   0.684057 0.286111 0.282574 -0.227695
O19   O     O_2   0.819378 0.256398 0.402702 -0.320349
O20   O     O_3   0.783717 0.101059 0.269783 -0.461724
H14   H     H_    0.845159 0.072732 0.304995 0.358219
C23   C     C_3   0.800407 0.386334 0.604379 -0.602857
H15   H     H_    0.802217 0.289474 0.603321 0.267354
H16   H     H_    0.801046 0.425032 0.679142 0.218981
H17   H     H_    0.689688 0.362937 0.607598 0.227297
C24   C     C_3   0.191144 0.577033 0.376538 -0.524804
H18   H     H_    0.199201 0.520484 0.311061 0.208699
H19   H     H_    0.191769 0.668876 0.347474 0.295911
H20   H     H_    0.291552 0.619439 0.391919 0.266616
S5    S     S_3+6 0.963095 0.678422 0.337221 0.153707
O21   O     O_2   0.042959 0.632265 0.241954 -0.248240
O22   O     O_2   0.858099 0.724294 0.303805 -0.169831
O23   O     O_3   0.073842 0.808464 0.363605 -0.500274
H21   H     H_    0.107544 0.876505 0.297406 0.391122
S6    S     S_3+6 0.034952 0.302060 0.647629 0.148338
O24   O     O_2   0.919139 0.314958 0.743285 -0.258625
O25   O     O_2   0.969858 0.193454 0.596851 -0.306358
O26   O     O_3   0.145465 0.258782 0.703296 -0.445185
H22   H     H_    0.087286 0.169460 0.745195 0.366453

loop_
_geom_bond_atom_site_label_1
_geom_bond_atom_site_label_2
_ccdc_geom_bond_type
S3    O15   D    
C8    C13   A    
C2    C18   S    
S5    O21   D    
C19   C20   S    
N1    S6    S    
O26   H22   S    
C21   H8    S    
Cu1   O8    S    
O14   H6    S    
Cu2   O7    S    
S4    O20   S    
C17   H4    S    
C2    O4    A    
C3    C24   S    
C9    C16   A    
S1    O11   S    
C10   C15   A    
C4    C23   S    
S6    O25   D    
Cu1   O5    S    
C10   C22   S    
C15   C16   A    
C1    O3    A    
C11   S2    S    
S4    O19   D    
C12   S1    S    
C24   H19   S    
C7    C14   A    
C23   H16   S    
C5    O5    A    
Cu1   Cu2   S    
S5    O22   D    
C18   H3    S    
S2    O13   D    
C20   S3    S    
N2    S5    S    
C4    N2    D    
C21   H9    S    
C7    C12   A    
Cu2   O6    S    
Cu1   O4    S    
Cu2   O3    S    
C22   H10   S    
O23   H21   S    
S6    O24   D    
O17   H13   S    
Cu1   O1    S    
C6    O6    A    
C13   H2    S    
S4    O18   D    
C22   H11   S    
S2    O14   S    
C14   H1    S    
C24   H20   S    
S1    O9    D    
C21   H7    S    
C13   C15   A    
C23   H17   S    
C1    O1    A    
C9    C11   A    
C10   C12   A    
O11   H5    S    
Cu1   N2    S    
C9    C21   S    
Cu2   N1    S    
S3    O16   D    
S5    O23   S    
C14   C16   A    
S2    O12   D    
C3    C4    S    
Cu2   O2    S    
C5    C8    S    
C6    C7    S    
C19   S4    S    
C1    C17   S    
C2    O2    A    
C22   H12   S    
C3    N1    D    
S1    O10   D    
S6    O26   S    
C8    C11   A    
C5    O7    A    
C17   C19   D    
C6    O8    A    
C18   C20   D    
C24   H18   S    
O20   H14   S    
C23   H15   S    
S3    O17   S    
