data_mof_unit_16057.cif
_audit_creation_date              2012-12-10T19:09:31-0500
_audit_creation_method            fapswitch 2.2
_symmetry_space_group_name_H-M    P1
_symmetry_Int_Tables_number       1
_space_group_crystal_system       triclinic
_cell_length_a                    14.551455
_cell_length_b                    15.677508
_cell_length_c                    9.87648
_cell_angle_alpha                 89.508573
_cell_angle_beta                  90.000574
_cell_angle_gamma                 90.000031
_cell_volume                      2253.0439604

loop_
_atom_site_label
_atom_site_type_symbol
_atom_type_description
_atom_site_fract_x
_atom_site_fract_y
_atom_site_fract_z
_atom_type_partial_charge
Br1   Br    Br    0.109307 0.774040 0.729626 -0.507185
Br2   Br    Br    0.281509 0.590605 0.267615 -0.515565
Br3   Br    Br    0.109280 0.225952 0.270401 -0.507223
Br4   Br    Br    0.281529 0.409417 0.732333 -0.515588
Br5   Br    Br    0.609316 0.274033 0.729642 -0.507188
Br6   Br    Br    0.781495 0.090623 0.267579 -0.515557
Br7   Br    Br    0.609263 0.725937 0.270425 -0.507227
Br8   Br    Br    0.781544 0.909453 0.732289 -0.515598
C1    C     C_R   0.124030 0.381988 0.500183 0.885469
C2    C     C_R   0.882615 0.624143 0.499217 0.899312
C3    C     C_R   0.382622 0.875852 0.500783 0.899302
C4    C     C_R   0.382618 0.124145 0.499217 0.899299
C5    C     C_3   0.797866 0.271901 0.648590 -0.406359
C6    C     C_3   0.856305 0.226382 0.425648 -0.371053
C7    C     C_3   0.797831 0.728074 0.351410 -0.406393
C8    C     C_3   0.856303 0.773619 0.574334 -0.371044
C9    C     C_3   0.297860 0.771905 0.648589 -0.406369
C10   C     C_3   0.356307 0.726379 0.425653 -0.371047
C11   C     C_3   0.297840 0.228079 0.351411 -0.406382
C12   C     C_R   0.124031 0.618012 0.499817 0.885464
C13   C     C_3   0.356307 0.273620 0.574333 -0.371043
C14   C     C_3   0.214163 0.713764 0.648430 0.090328
C15   C     C_3   0.288554 0.650553 0.439966 0.061240
C16   C     C_3   0.214146 0.286224 0.351573 0.090311
C17   C     C_3   0.288557 0.349447 0.560009 0.061218
C18   C     C_3   0.714169 0.213760 0.648432 0.090331
C19   C     C_3   0.788551 0.150555 0.439952 0.061259
C20   C     C_3   0.714135 0.786215 0.351573 0.090308
C21   C     C_3   0.788560 0.849450 0.559987 0.061175
C22   C     C_3   0.727276 0.335459 0.433951 -0.348697
C23   C     C_R   0.624030 0.881987 0.500183 0.885489
C24   C     C_3   0.727273 0.664542 0.566078 -0.348755
C25   C     C_3   0.227277 0.835457 0.433943 -0.348708
C26   C     C_3   0.227276 0.164543 0.566072 -0.348721
C27   C     C_3   0.817535 0.304367 0.502307 0.017106
C28   C     C_3   0.817524 0.695626 0.497696 0.017110
C29   C     C_3   0.317534 0.804367 0.502306 0.017104
C30   C     C_3   0.317528 0.195628 0.497695 0.017106
C31   C     C_3   0.195094 0.683849 0.499740 0.000938
C32   C     C_3   0.195091 0.316148 0.500260 0.000954
C33   C     C_3   0.695094 0.183850 0.499739 0.000933
C34   C     C_R   0.624031 0.118012 0.499817 0.885456
C35   C     C_3   0.695089 0.816148 0.500259 0.000967
C36   C     C_3   0.161451 0.760756 0.414087 -0.350640
C37   C     C_3   0.161456 0.239248 0.585931 -0.350645
C38   C     C_3   0.661447 0.260760 0.414096 -0.350631
C39   C     C_3   0.661459 0.739251 0.585949 -0.350643
C40   C     C_3   0.056876 0.430053 0.081345 -0.256290
C41   C     C_3   0.042191 0.421715 0.921126 -0.298684
C42   C     C_3   0.056871 0.569950 0.918656 -0.256275
C43   C     C_3   0.042186 0.578287 0.078875 -0.298673
C44   C     C_3   0.556878 0.930054 0.081346 -0.256300
C45   C     C_3   0.904002 0.483750 0.075729 0.301408
C46   C     C_3   0.542196 0.921717 0.921125 -0.298687
C47   C     C_3   0.556869 0.069952 0.918656 -0.256269
C48   C     C_3   0.542185 0.078288 0.078875 -0.298666
C49   C     C_3   0.904001 0.516244 0.924267 0.301402
C50   C     C_3   0.404003 0.983749 0.075730 0.301410
C51   C     C_3   0.404001 0.016242 0.924268 0.301400
C52   C     C_R   0.882622 0.375852 0.500783 0.899298
H1    H     H_    0.785501 0.322795 0.719950 0.265049
H2    H     H_    0.924563 0.207699 0.467181 0.169460
H3    H     H_    0.858646 0.763246 0.311076 0.166321
H4    H     H_    0.924566 0.792286 0.532809 0.169465
H5    H     H_    0.358679 0.736728 0.688899 0.166303
H6    H     H_    0.424565 0.707700 0.467186 0.169473
H7    H     H_    0.358656 0.263249 0.311080 0.166321
H8    H     H_    0.424565 0.292295 0.532797 0.169438
H9    H     H_    0.229897 0.658054 0.715257 0.156227
H10   H     H_    0.318082 0.603285 0.512642 0.145346
H11   H     H_    0.229878 0.341929 0.284736 0.156222
H12   H     H_    0.866956 0.242854 0.317960 0.268103
H13   H     H_    0.318081 0.396703 0.487315 0.145344
H14   H     H_    0.729906 0.158046 0.715253 0.156237
H15   H     H_    0.818080 0.103277 0.512616 0.145352
H16   H     H_    0.729862 0.841917 0.284724 0.156210
H17   H     H_    0.818085 0.896692 0.487268 0.145348
H18   H     H_    0.694221 0.385118 0.497466 0.218143
H19   H     H_    0.740900 0.364360 0.333525 0.226978
H20   H     H_    0.694201 0.614887 0.502574 0.218163
H21   H     H_    0.740905 0.635638 0.666499 0.226982
H22   H     H_    0.194219 0.885115 0.497455 0.218148
H23   H     H_    0.785449 0.677170 0.280078 0.265049
H24   H     H_    0.240903 0.864358 0.333518 0.226979
H25   H     H_    0.194211 0.114884 0.502569 0.218146
H26   H     H_    0.240908 0.135643 0.666497 0.226986
H27   H     H_    0.090520 0.780210 0.442258 0.186801
H28   H     H_    0.159434 0.743513 0.305004 0.226239
H29   H     H_    0.090522 0.219795 0.557777 0.186801
H30   H     H_    0.159452 0.256497 0.695008 0.226243
H31   H     H_    0.590517 0.280215 0.442282 0.186799
H32   H     H_    0.659421 0.243521 0.305010 0.226238
H33   H     H_    0.590518 0.719800 0.557823 0.186798
H34   H     H_    0.866935 0.757164 0.682033 0.268093
H35   H     H_    0.659476 0.756507 0.695027 0.226243
H36   H     H_    0.043368 0.368933 0.133363 0.238824
H37   H     H_    0.001572 0.364663 0.893872 0.196046
H38   H     H_    0.043359 0.631069 0.866638 0.238828
H39   H     H_    0.001564 0.635337 0.106128 0.196047
H40   H     H_    0.543371 0.868932 0.133362 0.238817
H41   H     H_    0.501583 0.864662 0.893868 0.196047
H42   H     H_    0.543354 0.131071 0.866639 0.238828
H43   H     H_    0.501564 0.135337 0.106131 0.196046
H44   H     H_    0.131015 0.441843 0.102738 0.197139
H45   H     H_    0.285492 0.822801 0.719942 0.265050
H46   H     H_    0.110110 0.410776 0.873841 0.228668
H47   H     H_    0.131011 0.558165 0.897265 0.197144
H48   H     H_    0.110104 0.589230 0.126161 0.228681
H49   H     H_    0.631017 0.941844 0.102743 0.197130
H50   H     H_    0.610118 0.910785 0.873844 0.228654
H51   H     H_    0.631010 0.058171 0.897261 0.197149
H52   H     H_    0.610104 0.089230 0.126158 0.228690
H53   H     H_    0.366955 0.742846 0.317964 0.268106
H54   H     H_    0.285458 0.177176 0.280078 0.265051
H55   H     H_    0.366957 0.257160 0.682026 0.268093
H56   H     H_    0.858685 0.236723 0.688893 0.166302
I1    I     I_    0.860217 0.348228 0.082420 -0.305658
I2    I     I_    0.782416 0.479266 0.816400 -0.245307
I3    I     I_    0.860208 0.651764 0.917576 -0.305755
I4    I     I_    0.782417 0.520717 0.183593 -0.245319
I5    I     I_    0.360220 0.848228 0.082422 -0.305674
I6    I     I_    0.282416 0.979265 0.816404 -0.245299
I7    I     I_    0.360205 0.151761 0.917571 -0.305717
I8    I     I_    0.282419 0.020722 0.183591 -0.245315
N1    N     N_3   0.998760 0.500000 0.138610 -0.103488
N2    N     N_3   0.998760 0.500000 0.861390 -0.103490
N3    N     N_3   0.498760 0.000000 0.138610 -0.103486
N4    N     N_3   0.498760 0.000000 0.861390 -0.103490
O1    O     O_R   0.092530 0.407440 0.616040 -0.606533
O2    O     O_R   0.907330 0.407420 0.383960 -0.587219
O3    O     O_R   0.907330 0.592580 0.383960 -0.610049
O4    O     O_R   0.907330 0.592580 0.616040 -0.587216
O5    O     O_R   0.407330 0.907420 0.616040 -0.610050
O6    O     O_R   0.407330 0.907420 0.383960 -0.587215
O7    O     O_R   0.407330 0.092580 0.383960 -0.610049
O8    O     O_R   0.407330 0.092580 0.616040 -0.587221
O9    O     O_R   0.092530 0.407440 0.383960 -0.612663
O10   O     O_R   0.092530 0.592560 0.383960 -0.606529
O11   O     O_R   0.092530 0.592560 0.616040 -0.612652
O12   O     O_R   0.592530 0.907440 0.616040 -0.606533
O13   O     O_R   0.592530 0.907440 0.383960 -0.612674
O14   O     O_R   0.592530 0.092560 0.383960 -0.606527
O15   O     O_R   0.592530 0.092560 0.616040 -0.612645
O16   O     O_R   0.907330 0.407420 0.616040 -0.610051
Zn1   Zn    Zn3+2 0.999890 0.500000 0.654960 0.980362
Zn2   Zn    Zn3+2 0.999890 0.500000 0.345040 0.980361
Zn3   Zn    Zn3+2 0.499890 0.000000 0.654960 0.980363
Zn4   Zn    Zn3+2 0.499890 0.000000 0.345040 0.980361

loop_
_geom_bond_atom_site_label_1
_geom_bond_atom_site_label_2
_ccdc_geom_bond_type
C47   C48   S    
C16   H11   S    
O2    Zn2   S    
C33   C34   S    
C46   H41   S    
C13   H55   S    
Br4   C17   S    
C45   I4    S    
O15   Zn3   S    
C24   H21   S    
C47   H42   S    
C23   C35   S    
C22   C27   S    
O4    Zn1   S    
C24   C28   S    
C12   O11   A    
C10   C29   S    
C5    C27   S    
N1    Zn2   S    
C3    O5    A    
C17   C32   S    
C45   I1    S    
C38   H32   S    
C40   H44   S    
C39   H35   S    
C46   H50   S    
O3    Zn2   S    
C26   H26   S    
C48   N3    S    
C12   O10   A    
C3    C29   S    
C2    O3    A    
O13   Zn4   S    
C16   C32   S    
C40   N1    S    
C1    O9    A    
C44   N3    S    
C13   C30   S    
C43   H48   S    
C4    O7    A    
C34   O14   A    
C33   C38   S    
C11   H7    S    
C42   N2    S    
C6    C19   S    
C36   H27   S    
C37   H29   S    
C25   H22   S    
C14   H9    S    
O1    Zn1   S    
N3    Zn4   S    
C49   I3    S    
C51   I6    S    
C50   N3    S    
O8    Zn3   S    
C21   C35   S    
C43   H39   S    
C15   H10   S    
Br3   C16   S    
C19   H15   S    
O12   Zn3   S    
N2    Zn1   S    
C44   C46   S    
C51   I7    S    
C32   C37   S    
C42   H38   S    
C10   C15   S    
C43   N1    S    
O14   Zn4   S    
O9    Zn2   S    
C3    O6    A    
C52   O2    A    
C49   N2    S    
C12   C31   S    
C45   C49   S    
O16   Zn1   S    
C7    H23   S    
C38   H31   S    
C11   H54   S    
C50   C51   S    
C46   N4    S    
C44   H40   S    
C1    C32   S    
C25   C29   S    
Br7   C20   S    
C27   C52   S    
C26   H25   S    
C23   O13   A    
C41   N2    S    
C11   C30   S    
C9    H45   S    
C9    H5    S    
C24   H20   S    
C19   C33   S    
Br6   C19   S    
Br2   C15   S    
C42   C43   S    
C39   H33   S    
C21   H17   S    
C26   C37   S    
C9    C29   S    
C37   H30   S    
C31   C36   S    
C45   N1    S    
O5    Zn3   S    
C22   H19   S    
C40   C41   S    
C13   H8    S    
C42   H47   S    
C24   C39   S    
C5    C18   S    
Br8   C21   S    
C20   H16   S    
C7    C28   S    
C6    C27   S    
C13   C17   S    
O11   Zn1   S    
C50   I5    S    
C7    H3    S    
C40   H36   S    
C47   H51   S    
C26   C30   S    
C25   C36   S    
C6    H12   S    
C22   C38   S    
C48   H43   S    
C50   I8    S    
N4    Zn3   S    
C41   H46   S    
C1    O1    A    
C10   H6    S    
O6    Zn4   S    
C20   C35   S    
C8    H34   S    
C9    C14   S    
C11   C16   S    
C51   N4    S    
C52   O16   A    
C7    C20   S    
C44   H49   S    
O10   Zn2   S    
C15   C31   S    
C14   C31   S    
C18   H14   S    
C17   H13   S    
C4    C30   S    
C25   H24   S    
C2    O4    A    
C5    H56   S    
C41   H37   S    
Br5   C18   S    
C22   H18   S    
Br1   C14   S    
C5    H1    S    
C47   N4    S    
C8    C21   S    
O7    Zn4   S    
C4    O8    A    
C34   O15   A    
C10   H53   S    
C2    C28   S    
C8    H4    S    
C23   O12   A    
C36   H28   S    
C35   C39   S    
C48   H52   S    
C8    C28   S    
C18   C33   S    
C49   I2    S    
C6    H2    S    
