data_mof_unit_24447.cif
_audit_creation_date              2012-12-10T17:37:21-0500
_audit_creation_method            fapswitch 2.2
_symmetry_space_group_name_H-M    P1
_symmetry_Int_Tables_number       1
_space_group_crystal_system       triclinic
_cell_length_a                    12.351208
_cell_length_b                    13.183017
_cell_length_c                    15.847065
_cell_angle_alpha                 77.08677
_cell_angle_beta                  101.816567
_cell_angle_gamma                 117.710537
_cell_volume                      2211.34069641

loop_
_atom_site_label
_atom_site_type_symbol
_atom_type_description
_atom_site_fract_x
_atom_site_fract_y
_atom_site_fract_z
_atom_type_partial_charge
C1    C     C_R   0.854852 0.285782 0.508858 0.915684
C2    C     C_3   0.994237 0.494012 0.916992 -0.123227
C3    C     C_3   0.108932 0.565997 0.033517 -0.257819
C4    C     C_3   0.995299 0.493958 0.083744 -0.085115
C5    C     C_3   0.025794 0.600952 0.957869 0.303644
C6    C     C_3   0.913899 0.530138 0.008895 0.395738
C7    C     C_1   0.995943 0.494999 0.825359 0.137478
C8    C     C_1   0.996540 0.495583 0.175261 0.136481
C9    C     C_R   0.291485 0.012734 0.358566 0.218540
C10   C     C_R   0.232497 0.834977 0.461613 -0.072651
C11   C     C_R   0.807657 0.086816 0.586937 0.144876
C12   C     C_R   0.999589 0.499067 0.659991 0.847558
C13   C     C_R   0.727826 0.969553 0.602456 -0.159041
C14   C     C_R   0.611492 0.926653 0.556462 -0.166008
C15   C     C_R   0.573656 0.999894 0.490944 0.071080
C16   C     C_R   0.662543 0.111967 0.462530 0.042190
C17   C     C_R   0.449410 0.966945 0.455427 0.014967
C18   C     C_R   0.418074 0.036732 0.381707 0.017003
C19   C     C_R   0.514999 0.127571 0.335921 0.345476
C20   C     C_R   0.636778 0.169667 0.379564 0.066512
C21   C     C_R   0.355080 0.868847 0.495107 -0.161182
C22   C     C_R   0.199850 0.909557 0.396426 -0.221466
C23   C     C_R   0.146094 0.713918 0.485773 0.809920
C24   C     C_R   0.775262 0.159926 0.517281 -0.015599
C25   C     C_R   0.390066 0.413122 0.666839 -0.176150
C26   C     C_R   0.753384 0.630418 0.373847 -0.028824
C27   C     C_R   0.645573 0.637412 0.332261 0.274551
C28   C     C_R   0.534788 0.569818 0.370925 0.315082
C29   C     C_R   0.543870 0.524556 0.461689 -0.204814
C30   C     C_R   0.654325 0.512304 0.498038 0.079763
C31   C     C_R   0.451122 0.488554 0.519220 -0.045155
C32   C     C_R   0.481108 0.459589 0.610245 0.083664
C33   C     C_R   0.599615 0.468709 0.641790 0.015555
C34   C     C_R   0.999898 0.500200 0.340070 0.811126
C35   C     C_R   0.657824 0.451513 0.583707 0.387178
C36   C     C_R   0.334562 0.488674 0.493986 0.141752
C37   C     C_R   0.271221 0.397411 0.633919 0.077821
C38   C     C_3   0.963115 0.385305 0.043925 -0.215569
C39   C     C_3   0.880812 0.422121 0.967502 -0.279354
C40   C     C_1   0.998082 0.496731 0.749841 -0.099434
C41   C     C_1   0.997949 0.497859 0.250575 -0.089558
C42   C     C_3   0.075098 0.457928 0.992194 0.453268
Cu1   Cu    Cu3+1 0.098270 0.475420 0.519690 0.989176
Cu2   Cu    Cu3+1 0.901730 0.524580 0.480310 1.014205
H1    H     H_    0.787427 0.364323 0.939464 0.225577
H2    H     H_    0.374093 0.815041 0.552364 0.153889
H3    H     H_    0.553580 0.835355 0.572869 0.140349
H4    H     H_    0.753777 0.912434 0.653704 0.169259
H5    H     H_    0.201517 0.361808 0.677780 0.169091
H6    H     H_    0.409086 0.385627 0.735632 0.205933
H7    H     H_    0.315026 0.534978 0.433147 0.195964
H8    H     H_    0.835679 0.674285 0.341215 0.196432
H9    H     H_    0.938815 0.296735 0.080505 0.202989
H10   H     H_    0.202363 0.624310 0.061142 0.244298
H11   H     H_    0.103676 0.887006 0.373500 0.168465
N1    N     N_R   0.246280 0.438200 0.549540 -0.212475
N2    N     N_R   0.754330 0.561180 0.450980 -0.231163
O1    O     O_R   0.972510 0.318130 0.524770 -0.572918
O2    O     O_R   0.806530 0.359650 0.491510 -0.488802
O3    O     O_R   0.082970 0.479240 0.637550 -0.578995
O4    O     O_R   0.916990 0.520750 0.604290 -0.579619
O5    O     O_R   0.193470 0.640350 0.508490 -0.590871
O6    O     O_R   0.027490 0.681870 0.475230 -0.583882
O7    O     O_R   0.083010 0.479250 0.395710 -0.572253
O8    O     O_R   0.917030 0.520760 0.362450 -0.579890
N3    N     N_3   0.920457 0.131776 0.643632 -0.553986
H12   H     H_    0.898809 0.114540 0.707327 0.254415
H13   H     H_    0.970909 0.087218 0.641390 0.238972
N4    N     N_3   0.736229 0.266608 0.338644 -0.588843
H14   H     H_    0.760351 0.240229 0.290885 0.253262
H15   H     H_    0.709840 0.332751 0.311177 0.302374
N5    N     N_3   0.636596 0.451455 0.733989 -0.507592
H16   H     H_    0.723375 0.452143 0.744768 0.242447
H17   H     H_    0.648331 0.523717 0.758451 0.254687
S1    S     S_3+6 0.394283 0.514527 0.299964 0.039038
O9    O     O_2   0.419501 0.501608 0.215175 -0.165136
O10   O     O_2   0.336376 0.596654 0.281249 -0.287860
O11   O     O_3   0.295541 0.383067 0.344647 -0.572596
H18   H     H_    0.218867 0.362472 0.303588 0.375853
S2    S     S_3+6 0.655252 0.729299 0.230836 0.089889
O12   O     O_2   0.644293 0.665430 0.159568 -0.162498
O13   O     O_2   0.555385 0.768725 0.212443 -0.196394
O14   O     O_3   0.793075 0.845955 0.233601 -0.558499
H19   H     H_    0.795550 0.889919 0.173937 0.391313
S3    S     S_3+6 0.611281 0.300039 0.595812 0.042976
O15   O     O_2   0.715867 0.272920 0.641678 -0.292363
O16   O     O_2   0.505611 0.232428 0.649907 -0.240737
O17   O     O_3   0.563315 0.257213 0.497294 -0.536941
H20   H     H_    0.484284 0.262470 0.478311 0.359969
S4    S     S_3+6 0.803835 0.575075 0.022935 0.077243
O18   O     O_2   0.705900 0.476402 0.073225 -0.187057
O19   O     O_2   0.866722 0.676385 0.072481 -0.256751
O20   O     O_3   0.739450 0.613406 0.924749 -0.512198
H21   H     H_    0.679312 0.636317 0.937493 0.398003
S5    S     S_3+6 0.069191 0.743679 0.899135 0.085055
O21   O     O_2   0.184341 0.780895 0.858741 -0.212237
O22   O     O_2   0.967908 0.744515 0.828184 -0.283168
O23   O     O_3   0.096332 0.835993 0.967533 -0.444191
H22   H     H_    0.020976 0.847734 0.958686 0.392737
S6    S     S_3+6 0.182241 0.408596 0.980149 0.064325
O24   O     O_2   0.118946 0.312112 0.925846 -0.278177
O25   O     O_2   0.287329 0.507074 0.936017 -0.236575
O26   O     O_3   0.235572 0.359906 0.079040 -0.482207
H23   H     H_    0.291989 0.331801 0.067333 0.406956
S7    S     S_3+6 0.489769 0.180758 0.222959 0.064283
O27   O     O_2   0.593408 0.201033 0.175686 -0.228904
O28   O     O_2   0.373040 0.095736 0.178764 -0.239815
O29   O     O_3   0.484201 0.307871 0.213830 -0.449477
H24   H     H_    0.397095 0.287705 0.216497 0.393574
N6    N     N_3   0.255200 0.096532 0.303689 -0.543489
H25   H     H_    0.214738 0.122634 0.341149 0.235042
H26   H     H_    0.187480 0.056135 0.254547 0.264582

loop_
_geom_bond_atom_site_label_1
_geom_bond_atom_site_label_2
_ccdc_geom_bond_type
N3    H13   S    
C3    C42   S    
O20   H21   S    
S5    O21   D    
C11   C13   A    
C19   C20   A    
C4    C8    S    
S5    O23   S    
S3    O15   D    
C10   C22   A    
S7    O28   D    
C26   C27   A    
C30   C35   A    
C28   C29   A    
C38   C42   S    
C26   H8    S    
C1    O2    A    
C5    C6    S    
C3    H10   S    
C9    C22   A    
Cu2   O2    S    
C15   C16   A    
C30   N2    A    
C11   C24   A    
O29   H24   S    
C18   C19   A    
N4    H15   S    
N6    H25   S    
Cu1   O1    S    
C25   C37   A    
C25   H6    S    
C37   N1    A    
C2    C39   S    
C23   O5    A    
C31   C32   A    
C7    C40   T    
C31   C36   A    
C33   N5    S    
C11   N3    S    
C39   H1    S    
C25   C32   A    
C23   O6    A    
N3    H12   S    
C16   C24   A    
C13   C14   A    
Cu2   O8    S    
C34   C41   S    
S2    O14   S    
C34   O8    A    
S6    O25   D    
C5    S5    S    
Cu1   O7    S    
S3    O16   D    
C10   C21   A    
S7    O29   S    
C8    C41   T    
S2    O13   D    
C27   S2    S    
O11   H18   S    
S2    O12   D    
C6    S4    S    
S6    O26   S    
C17   C21   A    
C26   N2    A    
C12   C40   S    
S1    O9    D    
C29   C30   A    
C36   N1    A    
C42   S6    S    
C37   H5    S    
Cu1   N1    S    
S4    O19   D    
O14   H19   S    
Cu2   N2    S    
C16   C20   A    
C34   O7    A    
C17   C18   A    
S1    O10   D    
C22   H11   S    
C36   H7    S    
Cu1   O3    S    
C19   S7    S    
C4    C6    S    
C4    C38   S    
O23   H22   S    
Cu1   Cu2   S    
C2    C7    S    
C10   C23   S    
C20   N4    S    
C2    C5    S    
C3    C4    S    
O26   H23   S    
N5    H17   S    
S4    O20   S    
C21   H2    S    
S3    O17   S    
C9    N6    S    
C15   C17   A    
C6    C39   S    
N5    H16   S    
C3    C5    S    
C13   H4    S    
S5    O22   D    
C14   H3    S    
Cu2   O4    S    
S7    O27   D    
C32   C33   A    
C29   C31   A    
C1    O1    A    
C12   O4    A    
C35   S3    S    
S4    O18   D    
C38   C39   S    
C38   H9    S    
C2    C42   S    
S6    O24   D    
C33   C35   A    
N4    H14   S    
S1    O11   S    
N6    H26   S    
C12   O3    A    
C9    C18   A    
O17   H20   S    
C1    C24   S    
Cu2   O6    S    
C27   C28   A    
C14   C15   A    
C28   S1    S    
Cu1   O5    S    
