data_mof_unit_56086.cif
_audit_creation_date              2012-12-11T15:28:45-0500
_audit_creation_method            fapswitch 2.2
_symmetry_space_group_name_H-M    P1
_symmetry_Int_Tables_number       1
_space_group_crystal_system       triclinic
_cell_length_a                    6.960468
_cell_length_b                    19.610198
_cell_length_c                    23.313237
_cell_angle_alpha                 95.915873
_cell_angle_beta                  91.098271
_cell_angle_gamma                 88.738364
_cell_volume                      3163.99574484

loop_
_atom_site_label
_atom_site_type_symbol
_atom_type_description
_atom_site_fract_x
_atom_site_fract_y
_atom_site_fract_z
_atom_type_partial_charge
O1    O     O_R   0.617180 0.809390 0.808140 -0.515025
O2    O     O_R   0.382820 0.190610 0.191860 -0.515178
O3    O     O_R   0.293300 0.672410 0.795490 -0.534202
O4    O     O_R   0.706700 0.327590 0.204510 -0.533466
O5    O     O_R   0.117220 0.690610 0.691850 -0.523034
O6    O     O_R   0.882780 0.309390 0.308150 -0.522717
C1    C     C_R   0.464865 0.647952 0.805647 0.753344
C2    C     C_R   0.535514 0.351909 0.194193 0.753440
O7    O     O_R   0.287840 0.807750 0.814460 -0.525950
O8    O     O_R   0.712160 0.192250 0.185540 -0.525413
O9    O     O_R   0.111720 0.826910 0.710960 -0.532343
O10   O     O_R   0.888280 0.173090 0.289040 -0.532495
C3    C     C_R   0.456470 0.830769 0.833164 0.729481
C4    C     C_R   0.543534 0.169220 0.166843 0.728822
O11   O     O_R   0.622680 0.673080 0.789040 -0.525393
O12   O     O_R   0.377320 0.326920 0.210960 -0.525194
O13   O     O_3   0.448820 0.756130 0.716020 -0.363199
O14   O     O_3   0.551180 0.243870 0.283980 -0.363417
V1    V     V_3+5 0.176220 0.748860 0.756300 1.493381
V2    V     V_3+5 0.823780 0.251140 0.243700 1.496463
O15   O     O_R   0.781670 0.827580 0.704500 -0.529784
O16   O     O_R   0.218330 0.172420 0.295500 -0.529891
C5    C     C_R   0.948016 0.852053 0.694445 0.752033
C6    C     C_R   0.051984 0.147946 0.305553 0.751656
O17   O     O_R   0.787130 0.692240 0.685530 -0.519074
O18   O     O_R   0.212870 0.307760 0.314470 -0.519542
C7    C     C_R   0.956092 0.669208 0.666819 0.726290
C8    C     C_R   0.043906 0.330793 0.333180 0.724917
V3    V     V_3+5 0.675510 0.751130 0.743690 1.509326
V4    V     V_3+5 0.324490 0.248870 0.256310 1.510460
O19   O     O_3   0.952780 0.743870 0.783980 -0.361484
O20   O     O_3   0.047220 0.256130 0.216020 -0.360926
C9    C     C_1   0.966605 0.617119 0.614780 -0.158969
C10   C     C_1   0.033384 0.382883 0.385218 -0.159135
C11   C     C_1   0.978161 0.573607 0.571961 0.040671
C12   C     C_1   0.021817 0.426395 0.428037 0.040888
C13   C     C_1   0.993398 0.521841 0.521329 0.029826
C14   C     C_1   0.006571 0.478162 0.478668 0.029990
C15   C     C_R   0.947978 0.914834 0.664546 -0.105606
C16   C     C_R   0.052020 0.085164 0.335452 -0.105638
C17   C     C_R   0.885453 0.036789 0.665345 -0.165727
C18   C     C_R   0.114529 0.963208 0.334652 -0.165909
C19   C     C_R   0.896330 0.978152 0.694359 0.254723
C20   C     C_R   0.103654 0.021845 0.305638 0.254729
C21   C     C_R   0.988114 0.911022 0.605354 -0.264927
C22   C     C_R   0.011890 0.088976 0.394644 -0.264926
C23   C     C_R   0.974887 0.970210 0.574621 0.095315
C24   C     C_R   0.025110 0.029788 0.425376 0.095326
C25   C     C_R   0.922780 0.033411 0.606186 0.080776
C26   C     C_R   0.077209 0.966586 0.393811 0.080839
C27   C     C_R   0.009245 0.968974 0.513877 0.067075
C28   C     C_R   0.990752 0.031024 0.486121 0.067039
C29   C     C_R   0.939065 0.092189 0.520068 -0.180155
C30   C     C_R   0.060928 0.907808 0.479929 -0.180172
C31   C     C_R   0.906299 0.093146 0.578670 -0.171330
C32   C     C_R   0.093688 0.906851 0.421327 -0.171522
H1    H     H_    0.866463 0.141484 0.602778 0.135999
H2    H     H_    0.133518 0.858513 0.397218 0.135824
H3    H     H_    0.974872 0.139047 0.415371 0.106059
H4    H     H_    0.025142 0.860952 0.584628 0.106032
H5    H     H_    0.845493 0.085279 0.689159 0.156019
H6    H     H_    0.154479 0.914717 0.310837 0.155899
H7    H     H_    0.922031 0.140744 0.502674 0.125743
H8    H     H_    0.077957 0.859253 0.497323 0.125694
C33   C     C_R   0.486799 0.585194 0.835546 -0.116104
C34   C     C_R   0.520864 0.415234 0.164881 -0.117041
C35   C     C_R   0.600049 0.467400 0.833775 -0.148257
C36   C     C_R   0.475264 0.538370 0.169409 -0.148111
C37   C     C_R   0.550189 0.523917 0.804645 0.262495
C38   C     C_R   0.484100 0.478529 0.196924 0.261156
C39   C     C_R   0.472603 0.588522 0.895982 -0.266609
C40   C     C_R   0.546771 0.412863 0.104954 -0.262174
C41   C     C_R   0.539818 0.533375 0.926994 0.092256
C42   C     C_R   0.549802 0.473837 0.076582 0.091872
C43   C     C_R   0.597250 0.471692 0.894195 0.009059
C44   C     C_R   0.506710 0.536588 0.109967 0.007513
C45   C     C_R   0.548221 0.536433 0.989030 -0.076315
C46   C     C_R   0.585650 0.474564 0.016017 -0.075306
C47   C     C_R   0.663299 0.416754 0.981359 0.349827
C48   C     C_R   0.528184 0.598982 0.025621 0.349557
C49   C     C_R   0.660197 0.415213 0.921616 -0.155210
C50   C     C_R   0.500538 0.597822 0.084441 -0.157051
H9    H     H_    0.716201 0.369825 0.896338 0.155923
H10   H     H_    0.480521 0.646173 0.110935 0.156662
H11   H     H_    0.557940 0.362705 0.081318 0.162288
H12   H     H_    0.410402 0.634833 0.917594 0.164383
H13   H     H_    0.646953 0.420351 0.809010 0.153839
H14   H     H_    0.445216 0.586742 0.194843 0.153594
C51   C     C_1   0.467148 0.882850 0.885213 -0.148635
C52   C     C_1   0.532868 0.117122 0.114804 -0.149146
C53   C     C_1   0.478615 0.926360 0.928040 0.052312
C54   C     C_1   0.521410 0.073601 0.071985 0.051025
C55   C     C_1   0.493572 0.978133 0.978681 0.039288
C56   C     C_1   0.506460 0.021821 0.021348 0.038782
O21   O     O_3   0.763855 0.364075 0.003788 -0.644525
H15   H     H_    0.838261 0.384307 0.037828 0.292266
O22   O     O_3   0.556630 0.662480 0.007341 -0.644894
H16   H     H_    0.662784 0.657350 0.979341 0.289056
Br1   Br    Br    0.160878 0.013233 0.224919 -0.542146
Br2   Br    Br    0.839088 0.986762 0.775076 -0.542942
Br3   Br    Br    0.445910 0.485578 0.278701 -0.550627
Br4   Br    Br    0.571629 0.515304 0.722180 -0.550398

loop_
_geom_bond_atom_site_label_1
_geom_bond_atom_site_label_2
_ccdc_geom_bond_type
C21   H4    S    
C2    C34   S    
C55   C56   T    
O6    C8    A    
C22   H3    S    
O13   V3    S    
O21   H15   S    
C17   H5    S    
O4    C2    A    
V1    O19   S    
O22   H16   S    
C38   Br3   S    
C23   C25   A    
C45   C46   A    
C7    C9    S    
C16   C22   A    
O9    V1    S    
C42   C44   A    
C11   C13   S    
O3    C1    A    
C48   O22   S    
C20   Br1   S    
C33   C37   A    
C53   C55   S    
O12   V4    S    
C21   C23   A    
O7    C3    A    
C4    C52   S    
C6    C16   S    
O5    C7    A    
O7    V1    S    
C34   C40   A    
O8    V2    S    
O3    V1    S    
O14   V4    S    
C51   C53   T    
C18   H6    S    
C10   C12   T    
C15   C21   A    
C24   C26   A    
C8    C10   S    
C2    O12   A    
C17   C19   A    
C18   C20   A    
C17   C25   A    
C49   H9    S    
O11   V3    S    
C30   C32   A    
C29   C31   A    
C40   H11   S    
O17   V3    S    
C22   C24   A    
C27   C28   A    
C19   Br2   S    
C48   C50   A    
O8    C4    A    
C44   C50   A    
C39   C41   A    
C37   Br4   S    
C46   C47   A    
C43   C49   A    
C15   C19   A    
C1    O11   A    
C25   C31   A    
O15   V3    S    
C26   C32   A    
C35   C37   A    
C47   O21   S    
C13   C14   T    
C1    C33   S    
C39   H12   S    
C52   C54   T    
C16   C20   A    
O10   V2    S    
C54   C56   S    
C36   C44   A    
C18   C26   A    
C40   C42   A    
O18   V4    S    
C50   H10   S    
C31   H1    S    
C36   H14   S    
O16   C6    A    
O1    C3    A    
C41   C43   A    
C12   C14   S    
C28   C29   A    
C47   C49   A    
V2    O20   S    
C45   C48   A    
O16   V4    S    
C3    C51   S    
C35   H13   S    
C23   C27   A    
O5    V1    S    
O17   C7    A    
O6    V2    S    
O10   C6    A    
O18   C8    A    
O2    V4    S    
C27   C30   A    
O15   C5    A    
V3    O19   S    
C33   C39   A    
V4    O20   S    
C29   H7    S    
C9    C11   T    
O1    V3    S    
C34   C38   A    
C30   H8    S    
C5    C15   S    
O9    C5    A    
O13   V1    S    
C32   H2    S    
O14   V2    S    
O2    C4    A    
O4    V2    S    
C24   C28   A    
C35   C43   A    
C36   C38   A    
C42   C46   A    
C41   C45   A    
