data_mof_unit_27086.cif
_audit_creation_date              2012-10-26T20:37:07-0400
_audit_creation_method            fapswitch 2.2
_symmetry_space_group_name_H-M    P1
_symmetry_Int_Tables_number       1
_space_group_crystal_system       triclinic
_cell_length_a                    10.764076
_cell_length_b                    19.414772
_cell_length_c                    18.152941
_cell_angle_alpha                 88.135531
_cell_angle_beta                  90.461865
_cell_angle_gamma                 92.637763
_cell_volume                      3787.53172645

loop_
_atom_site_label
_atom_site_type_symbol
_atom_type_description
_atom_site_fract_x
_atom_site_fract_y
_atom_site_fract_z
_atom_type_partial_charge
C1    C     C_R   0.502294 0.366959 0.501568 0.554830
C2    C     C_R   0.518921 0.823864 0.433106 0.010457
C3    C     C_R   0.502964 0.145020 0.500265 -0.002823
C4    C     C_R   0.495645 0.854983 0.500499 -0.002152
C5    C     C_R   0.525676 0.185487 0.435656 -0.014142
C6    C     C_R   0.471073 0.814170 0.564644 -0.014415
C7    C     C_R   0.523437 0.257160 0.438337 -0.065168
C8    C     C_R   0.473970 0.742543 0.561669 -0.064228
C9    C     C_R   0.506162 0.290250 0.504845 -0.002995
C10   C     C_R   0.493912 0.709781 0.495260 -0.003445
C11   C     C_R   0.498318 0.930445 0.503471 0.299063
C12   C     C_R   0.497937 0.633060 0.498432 0.553882
C13   C     C_R   0.500240 0.069559 0.497693 0.298845
C14   C     C_R   0.587952 0.537570 0.274564 0.142432
C15   C     C_R   0.412224 0.462293 0.725445 0.132366
C16   C     C_R   0.262556 0.502728 0.499615 0.545380
C17   C     C_R   0.737433 0.497226 0.500380 0.544145
C18   C     C_R   0.586362 0.535331 0.196685 -0.094931
C19   C     C_R   0.413741 0.464611 0.803328 -0.110760
C20   C     C_R   0.497295 0.495352 0.158823 0.011572
C21   C     C_R   0.502551 0.504778 0.841168 -0.001130
C22   C     C_R   0.410757 0.454495 0.201400 -0.039270
C23   C     C_R   0.871043 0.497301 0.500750 -0.015048
C24   C     C_R   0.588908 0.545741 0.798579 -0.045621
C25   C     C_R   0.413311 0.458146 0.280034 0.159496
C26   C     C_R   0.586441 0.542019 0.719950 0.157884
C27   C     C_R   0.501535 0.502631 0.924375 0.334782
C28   C     C_R   0.498302 0.497546 0.075613 0.339948
C29   C     C_R   0.189427 0.742005 0.452328 -0.122494
C30   C     C_R   0.811731 0.257538 0.546175 -0.131874
C31   C     C_R   0.155347 0.676890 0.483043 0.008309
C32   C     C_R   0.844095 0.323104 0.515904 0.008441
C33   C     C_R   0.127534 0.621571 0.435995 -0.003453
C34   C     C_R   0.128933 0.502632 0.499203 -0.014171
C35   C     C_R   0.872768 0.378008 0.563383 0.007204
C36   C     C_R   0.141044 0.631385 0.358521 0.016583
C37   C     C_R   0.862846 0.367081 0.640871 -0.013208
C38   C     C_R   0.176749 0.697904 0.328397 0.037793
C39   C     C_R   0.832626 0.299861 0.670597 0.038247
C40   C     C_R   0.198605 0.753771 0.376115 -0.033092
C41   C     C_R   0.806790 0.244762 0.622387 0.003799
C42   C     C_R   0.935332 0.554129 0.467970 -0.133289
C43   C     C_R   0.064658 0.445826 0.531993 -0.130441
C44   C     C_2   0.234948 0.825501 0.350407 0.200481
C45   C     C_R   0.935414 0.442259 0.532709 -0.047000
C46   C     C_2   0.769535 0.173161 0.647687 0.257396
C47   C     C_2   0.687497 0.581450 0.308598 0.242925
C48   C     C_2   0.312986 0.418145 0.691441 0.244087
C49   C     C_3   0.318249 0.404610 0.165124 -0.365629
C50   C     C_3   0.681121 0.595802 0.834838 -0.366016
C51   C     C_2   0.320620 0.414635 0.321797 0.296361
C52   C     C_2   0.678855 0.585686 0.678164 0.298861
C53   C     C_2   0.145812 0.667898 0.564634 0.237857
C54   C     C_2   0.850533 0.333066 0.434308 0.238402
C55   C     C_3   0.112389 0.572309 0.307343 -0.329416
C56   C     C_R   0.064574 0.557585 0.467076 -0.050776
C57   C     C_3   0.888975 0.425927 0.692661 -0.376652
C58   C     C_2   0.184183 0.709804 0.247270 0.288797
C59   C     C_2   0.834861 0.288035 0.751831 0.305257
C60   C     C_3   0.502054 0.281220 0.646751 -0.327485
C61   C     C_3   0.504772 0.719559 0.353418 -0.312121
C62   C     C_2   0.448659 0.132193 0.633966 0.281628
C63   C     C_2   0.553642 0.868606 0.367420 0.279406
C64   C     C_3   0.548026 0.152843 0.362940 -0.336882
C65   C     C_3   0.446053 0.846386 0.637248 -0.335449
C66   C     C_R   0.494018 0.249356 0.571579 -0.012039
C67   C     C_R   0.508325 0.751005 0.428855 -0.018741
C68   C     C_R   0.482248 0.176504 0.567774 0.008253
Cu1   Cu    Cu3+1 0.499990 0.499980 0.573360 0.950077
Cu2   Cu    Cu3+1 0.500010 0.500020 0.426640 0.955725
H1    H     H_    0.537965 0.287539 0.387789 0.192561
H2    H     H_    0.775381 0.131254 0.609857 0.118050
H3    H     H_    0.680065 0.598955 0.363822 0.155584
H4    H     H_    0.320113 0.400954 0.636074 0.157119
H5    H     H_    0.325346 0.352146 0.190469 0.178406
H6    H     H_    0.222406 0.421937 0.172550 0.143069
H7    H     H_    0.334575 0.398574 0.105709 0.170329
H8    H     H_    0.664873 0.601741 0.894276 0.173567
H9    H     H_    0.777100 0.578711 0.827329 0.138068
H10   H     H_    0.673579 0.648255 0.809543 0.180937
H11   H     H_    0.232853 0.435300 0.336650 0.098279
H12   H     H_    0.457904 0.711915 0.611913 0.191370
H13   H     H_    0.766616 0.565138 0.663161 0.099303
H14   H     H_    0.120288 0.618017 0.590066 0.126692
H15   H     H_    0.874568 0.383297 0.409249 0.126290
H16   H     H_    0.075923 0.524385 0.335792 0.124279
H17   H     H_    0.041361 0.587369 0.265943 0.197676
H18   H     H_    0.198478 0.559232 0.278743 0.159256
H19   H     H_    0.915714 0.475568 0.664104 0.144443
H20   H     H_    0.804262 0.434415 0.725028 0.097911
H21   H     H_    0.966092 0.413179 0.730924 0.195888
H22   H     H_    0.139509 0.753312 0.221208 0.180086
H23   H     H_    0.654240 0.566353 0.164795 0.176883
H24   H     H_    0.790777 0.323416 0.787354 0.093491
H25   H     H_    0.575811 0.322752 0.648879 0.132577
H26   H     H_    0.410302 0.299474 0.661570 0.167027
H27   H     H_    0.530613 0.244250 0.690719 0.193566
H28   H     H_    0.432523 0.677416 0.349674 0.158795
H29   H     H_    0.476658 0.756509 0.309295 0.206957
H30   H     H_    0.598002 0.702488 0.339894 0.160768
H31   H     H_    0.490070 0.082671 0.642938 0.141258
H32   H     H_    0.510876 0.917684 0.357962 0.141651
H33   H     H_    0.559657 0.192016 0.317247 0.157661
H34   H     H_    0.346027 0.433504 0.835249 0.178584
H35   H     H_    0.633940 0.123384 0.366470 0.177435
H36   H     H_    0.467901 0.117417 0.349108 0.158614
H37   H     H_    0.433388 0.806978 0.682635 0.158340
H38   H     H_    0.525369 0.881965 0.652122 0.159169
H39   H     H_    0.359901 0.875580 0.632915 0.178910
H40   H     H_    0.209127 0.784628 0.488412 0.163339
H41   H     H_    0.789918 0.215403 0.509781 0.160556
H42   H     H_    0.884613 0.596558 0.444172 0.141235
H43   H     H_    0.115420 0.403406 0.555782 0.144257
H44   H     H_    0.233358 0.867105 0.388909 0.132574
N1    N     N_R   0.607049 0.036553 0.488762 -0.233181
N2    N     N_R   0.606359 0.492491 0.038118 -0.208526
N3    N     N_R   0.391514 0.963459 0.512457 -0.232708
N4    N     N_R   0.605963 0.968001 0.491155 -0.197698
N5    N     N_R   0.392604 0.032019 0.510085 -0.197075
N6    N     N_R   0.500010 0.500050 0.316380 -0.273479
N7    N     N_R   0.499990 0.499950 0.683620 -0.275482
N8    N     N_R   0.392032 0.505655 0.035608 -0.199090
N9    N     N_R   0.607807 0.494535 0.964379 -0.216734
N10   N     N_R   0.393478 0.507695 0.961868 -0.201331
O1    O     O_R   0.500010 0.400130 0.561970 -0.544163
O2    O     O_2   0.726762 0.160081 0.708859 -0.452267
O3    O     O_2   0.780854 0.599980 0.274168 -0.544255
O4    O     O_2   0.220295 0.398895 0.726117 -0.531733
O5    O     O_2   0.337425 0.353659 0.334502 -0.515995
O6    O     O_2   0.661797 0.646659 0.665596 -0.514702
O7    O     O_2   0.166981 0.716323 0.604878 -0.502057
O8    O     O_2   0.828507 0.285045 0.393649 -0.501820
O9    O     O_2   0.242219 0.672056 0.209084 -0.501530
O10   O     O_2   0.891606 0.240775 0.779882 -0.392051
O11   O     O_2   0.370617 0.149370 0.677370 -0.452296
O12   O     O_R   0.499990 0.599870 0.438030 -0.544150
O13   O     O_2   0.634024 0.852324 0.325071 -0.464014
O14   O     O_R   0.500020 0.400160 0.438070 -0.457417
O15   O     O_R   0.499980 0.599840 0.561930 -0.456380
O16   O     O_R   0.319640 0.499990 0.561950 -0.523374
O17   O     O_R   0.680360 0.500010 0.438050 -0.524610
O18   O     O_R   0.319650 0.500020 0.438050 -0.513867
O19   O     O_R   0.680350 0.499980 0.561950 -0.514271
O20   O     O_2   0.270803 0.839277 0.287835 -0.501173

loop_
_geom_bond_atom_site_label_1
_geom_bond_atom_site_label_2
_ccdc_geom_bond_type
Cu1   O15   S    
C64   H33   S    
C66   C68   A    
C34   C56   A    
C23   C45   A    
N2    N9    A    
C14   C18   A    
C16   O18   A    
C61   H28   S    
C50   H9    S    
C51   O5    D    
C64   H35   S    
C39   C41   A    
C16   O16   A    
C10   C67   A    
C15   C19   A    
C17   C23   S    
C23   C42   A    
C57   H19   S    
C53   H14   S    
C8    H12   S    
C19   C21   A    
C1    O1    A    
N3    N5    A    
C7    H1    S    
C28   N8    A    
C33   C36   A    
C17   O17   A    
C55   H18   S    
C42   H42   S    
C9    C66   A    
C28   N2    A    
C16   C34   S    
C38   C58   S    
C6    C65   S    
C3    C68   A    
Cu2   N6    S    
C22   C25   A    
C41   C46   S    
C49   H5    S    
C30   C41   A    
C53   O7    D    
C59   H24   S    
C15   N7    A    
C51   H11   S    
C65   H38   S    
C46   H2    S    
C3    C13   S    
C62   H31   S    
C42   C56   A    
C33   C56   S    
C21   C27   S    
Cu1   O1    S    
C38   C40   A    
Cu2   O12   S    
C63   O13   D    
C61   H29   S    
C15   C48   S    
C63   H32   S    
C50   H8    S    
C32   C54   S    
C13   N5    A    
C58   O9    D    
C24   C50   S    
Cu2   O18   S    
C57   H20   S    
C32   C35   A    
C48   H4    S    
C29   H40   S    
C1    C9    S    
C47   H3    S    
C4    C6    A    
C2    C67   A    
C5    C7    A    
C27   N9    A    
C6    C8    A    
C20   C28   S    
C5    C64   S    
C62   O11   D    
C52   H13   S    
C2    C4    A    
C25   C51   S    
C26   C52   S    
C48   O4    D    
C19   H34   S    
C61   C67   S    
Cu1   N7    S    
C44   O20   D    
N1    N4    A    
C39   C59   S    
C31   C33   A    
C12   O15   A    
C31   C53   S    
C4    C11   S    
C47   O3    D    
C43   C45   A    
C65   H39   S    
C13   N1    A    
C10   C12   S    
C22   C49   S    
C60   H26   S    
C8    C10   A    
C26   N7    A    
C20   C22   A    
C60   H27   S    
C14   N6    A    
C61   H30   S    
N8    N10   A    
C11   N3    A    
C25   N6    A    
C2    C63   S    
C7    C9    A    
Cu2   O17   S    
C57   H21   S    
C35   C37   A    
C46   O2    D    
C34   C43   A    
C24   C26   A    
C3    C5    A    
C50   H10   S    
C54   H15   S    
C27   N10   A    
C64   H36   S    
C14   C47   S    
Cu1   O19   S    
C54   O8    D    
C59   O10   D    
C62   C68   S    
C30   H41   S    
C17   O19   A    
C52   O6    D    
C55   H16   S    
C36   C38   A    
C60   C66   S    
C29   C31   A    
C36   C55   S    
C43   H43   S    
C30   C32   A    
Cu2   O14   S    
Cu1   O16   S    
C29   C40   A    
C49   H6    S    
C49   H7    S    
C18   C20   A    
C55   H17   S    
Cu1   Cu2   S    
C44   H44   S    
C60   H25   S    
C40   C44   S    
C37   C39   A    
C12   O12   A    
C21   C24   A    
C18   H23   S    
C11   N4    A    
C58   H22   S    
C65   H37   S    
C37   C57   S    
C1    O14   A    
C35   C45   S    
