data_mof_unit_38397.cif
_audit_creation_date              2012-12-11T14:07:19-0500
_audit_creation_method            fapswitch 2.2
_symmetry_space_group_name_H-M    P1
_symmetry_Int_Tables_number       1
_space_group_crystal_system       triclinic
_cell_length_a                    19.706713
_cell_length_b                    17.031123
_cell_length_c                    15.352703
_cell_angle_alpha                 90.192427
_cell_angle_beta                  53.450462
_cell_angle_gamma                 89.771922
_cell_volume                      4139.31486161

loop_
_atom_site_label
_atom_site_type_symbol
_atom_type_description
_atom_site_fract_x
_atom_site_fract_y
_atom_site_fract_z
_atom_type_partial_charge
C1    C     C_R   0.339844 0.174951 0.050429 -0.109147
C2    C     C_R   0.374697 0.802664 0.995947 -0.121161
C3    C     C_R   0.839845 0.674951 0.050429 -0.109139
C4    C     C_R   0.874697 0.302664 0.995947 -0.121162
C5    C     C_R   0.633455 0.894798 0.105503 -0.132296
C6    C     C_R   0.669299 0.082649 0.050916 -0.139768
C7    C     C_R   0.133456 0.394798 0.105502 -0.132298
C8    C     C_R   0.169299 0.582649 0.050916 -0.139778
C9    C     C_R   0.710189 0.146782 0.982073 0.155032
C10   C     C_R   0.650423 0.816020 0.074039 0.162256
C11   C     C_R   0.210189 0.646782 0.982073 0.155031
C12   C     C_R   0.150425 0.316020 0.074036 0.162254
C13   C     C_R   0.694764 0.864324 0.680501 0.131070
C14   C     C_R   0.611157 0.183449 0.695979 0.072215
C15   C     C_R   0.194764 0.364328 0.680497 0.131038
C16   C     C_R   0.111157 0.683450 0.695979 0.072228
C17   C     C_3   0.247017 0.228156 0.454214 -0.325340
C18   C     C_3   0.238386 0.859904 0.523454 -0.341075
C19   C     C_3   0.747013 0.728196 0.454181 -0.325335
C20   C     C_3   0.738379 0.359907 0.523455 -0.341054
C21   C     C_3   0.195301 0.268401 0.564680 -0.460240
C22   C     C_3   0.183915 0.810639 0.624830 -0.480191
C23   C     C_3   0.695293 0.768440 0.564648 -0.460264
C24   C     C_3   0.683906 0.310643 0.624833 -0.480197
C25   C     C_3   0.354641 0.205105 0.492710 0.333922
C26   C     C_3   0.298223 0.734133 0.411429 0.371834
C27   C     C_3   0.854584 0.705060 0.492740 0.333898
C28   C     C_3   0.798226 0.234136 0.411433 0.371827
C29   C     C_3   0.869886 0.820350 0.377659 -0.558428
C30   C     C_3   0.669638 0.301250 0.443840 -0.547433
C31   C     C_3   0.369854 0.320370 0.377638 -0.558419
C32   C     C_3   0.169636 0.801255 0.443846 -0.547411
C33   C     C_3   0.341706 0.232908 0.405477 0.161123
C34   C     C_3   0.255632 0.814997 0.423672 0.145017
C35   C     C_3   0.841694 0.732901 0.405483 0.161151
C36   C     C_3   0.755631 0.314998 0.423672 0.145030
C37   C     C_3   0.753254 0.819877 0.579408 0.155204
C38   C     C_3   0.659031 0.232467 0.598276 0.151172
C39   C     C_3   0.253258 0.319887 0.579400 0.155233
C40   C     C_3   0.159031 0.732468 0.598277 0.151141
C41   C     C_3   0.814862 0.766288 0.584975 -0.420944
C42   C     C_3   0.741048 0.186024 0.513739 -0.415519
C43   C     C_3   0.314915 0.266345 0.584936 -0.420920
C44   C     C_3   0.241044 0.686020 0.513735 -0.415481
C45   C     C_R   0.351003 0.827504 0.220081 -0.096077
C46   C     C_R   0.395355 0.198470 0.212183 -0.139146
C47   C     C_R   0.851003 0.327504 0.220081 -0.096084
C48   C     C_R   0.895349 0.698468 0.212186 -0.139169
C49   C     C_3   0.808118 0.873044 0.477515 0.358276
C50   C     C_3   0.610319 0.254334 0.549935 0.356432
C51   C     C_3   0.308075 0.373057 0.477495 0.358227
C52   C     C_3   0.110316 0.754343 0.549944 0.356438
C53   C     C_2   0.283566 0.685496 0.961734 -0.186728
C54   C     C_2   0.190777 0.259409 0.100405 -0.142075
C55   C     C_2   0.783566 0.185496 0.961734 -0.186728
C56   C     C_2   0.690776 0.759409 0.100407 -0.142070
C57   C     C_2   0.810379 0.252886 0.906336 -0.184754
C58   C     C_2   0.710890 0.687397 0.055036 -0.158601
C59   C     C_2   0.310380 0.752886 0.906335 -0.184751
C60   C     C_2   0.210890 0.187397 0.055036 -0.158606
C61   C     C_R   0.365516 0.888633 0.896531 -0.154235
C62   C     C_R   0.328996 0.086777 0.952923 -0.112957
C63   C     C_R   0.865516 0.388633 0.896531 -0.154236
C64   C     C_R   0.828996 0.586778 0.952923 -0.112963
C65   C     C_R   0.408653 0.106809 0.303217 -0.104269
C66   C     C_R   0.360366 0.921398 0.315043 -0.055816
C67   C     C_R   0.908650 0.606807 0.303219 -0.104197
C68   C     C_R   0.860366 0.421398 0.315043 -0.055800
C69   C     C_R   0.286953 0.148131 0.026615 0.124882
C70   C     C_R   0.347056 0.812553 0.933391 0.147374
C71   C     C_R   0.786953 0.648131 0.026614 0.124882
C72   C     C_R   0.847056 0.312553 0.933391 0.147373
C73   C     C_R   0.312746 0.858969 0.323218 0.050699
C74   C     C_R   0.386785 0.183513 0.307013 0.043605
C75   C     C_R   0.812745 0.358969 0.323218 0.050698
C76   C     C_R   0.886772 0.683507 0.307020 0.043612
C77   C     C_R   0.659888 0.177855 0.954977 -0.104384
C78   C     C_R   0.623042 0.799891 0.012020 -0.108795
C79   C     C_R   0.159888 0.677855 0.954977 -0.104383
C80   C     C_R   0.123044 0.299891 0.012016 -0.108794
C81   C     C_R   0.651477 0.830137 0.782432 -0.143168
C82   C     C_R   0.600298 0.198641 0.792028 -0.153868
C83   C     C_R   0.151478 0.330137 0.782426 -0.143222
C84   C     C_R   0.100298 0.698641 0.792029 -0.153869
C85   C     C_R   0.592656 0.105669 0.696211 -0.078848
C86   C     C_R   0.644095 0.924087 0.686531 -0.120331
C87   C     C_R   0.092655 0.605670 0.696212 -0.078828
C88   C     C_R   0.144092 0.424087 0.686530 -0.120295
H1    H     H_    0.330564 0.224065 0.100806 0.089448
H2    H     H_    0.383254 0.747826 0.023487 0.090027
H3    H     H_    0.830565 0.724066 0.100804 0.089447
H4    H     H_    0.883254 0.247826 0.023488 0.090024
H5    H     H_    0.235155 0.257760 0.399788 0.156132
H6    H     H_    0.206119 0.916919 0.534667 0.180873
H7    H     H_    0.735185 0.757826 0.399737 0.156116
H8    H     H_    0.706111 0.416922 0.534664 0.180912
H9    H     H_    0.644980 0.804235 0.571232 0.165944
H10   H     H_    0.626349 0.344864 0.687165 0.169054
H11   H     H_    0.144956 0.304164 0.571291 0.165942
H12   H     H_    0.126363 0.844862 0.687168 0.169046
H13   H     H_    0.163067 0.223217 0.629399 0.227067
H14   H     H_    0.220538 0.798617 0.657399 0.201775
H15   H     H_    0.663023 0.723259 0.629361 0.227078
H16   H     H_    0.720524 0.298628 0.657409 0.201770
H17   H     H_    0.784049 0.736016 0.663485 0.200761
H18   H     H_    0.774375 0.169765 0.549602 0.229116
H19   H     H_    0.284137 0.236088 0.663456 0.200763
H20   H     H_    0.274372 0.669752 0.549593 0.229135
H21   H     H_    0.935451 0.825582 0.352900 0.216737
H22   H     H_    0.680140 0.269464 0.373262 0.210291
H23   H     H_    0.435424 0.325638 0.352855 0.216727
H24   H     H_    0.180133 0.769467 0.373271 0.210292
H25   H     H_    0.870499 0.841519 0.308888 0.168422
H26   H     H_    0.639551 0.358588 0.450388 0.187021
H27   H     H_    0.370437 0.341517 0.308882 0.168421
H28   H     H_    0.139553 0.858595 0.450392 0.187036
H29   H     H_    0.766658 0.904290 0.461996 0.077246
H30   H     H_    0.555273 0.292162 0.609659 0.098990
H31   H     H_    0.266582 0.404262 0.461995 0.077239
H32   H     H_    0.055276 0.792176 0.609669 0.099007
H33   H     H_    0.423309 0.199847 0.454746 0.114705
H34   H     H_    0.307443 0.700308 0.342942 0.077050
H35   H     H_    0.923244 0.699775 0.454806 0.114707
H36   H     H_    0.807448 0.200309 0.342946 0.077050
H37   H     H_    0.332045 0.776034 0.198603 0.086427
H38   H     H_    0.390767 0.254882 0.184116 0.092230
H39   H     H_    0.832045 0.276034 0.198603 0.086427
H40   H     H_    0.890760 0.754882 0.184123 0.092230
H41   H     H_    0.865508 0.802150 0.576453 0.197273
H42   H     H_    0.726055 0.129977 0.491267 0.174378
H43   H     H_    0.365558 0.302243 0.576372 0.197241
H44   H     H_    0.226044 0.629978 0.491262 0.174399
H45   H     H_    0.303548 0.666542 0.010596 0.127052
H46   H     H_    0.217289 0.282525 0.139903 0.116347
H47   H     H_    0.803547 0.166542 0.010597 0.127051
H48   H     H_    0.717287 0.782525 0.139906 0.116344
H49   H     H_    0.792780 0.270675 0.854530 0.133800
H50   H     H_    0.682462 0.663189 0.018568 0.129615
H51   H     H_    0.292780 0.770675 0.854530 0.133799
H52   H     H_    0.182462 0.163189 0.018568 0.129616
H53   H     H_    0.361705 0.914073 0.835076 0.114650
H54   H     H_    0.307553 0.052518 0.914275 0.113117
H55   H     H_    0.861705 0.414073 0.835077 0.114644
H56   H     H_    0.807553 0.552518 0.914275 0.113112
H57   H     H_    0.422873 0.077857 0.352929 0.160894
H58   H     H_    0.351129 0.958784 0.378185 0.124551
H59   H     H_    0.922869 0.577855 0.352933 0.160840
H60   H     H_    0.851128 0.458784 0.378185 0.124585
H61   H     H_    0.670049 0.228894 0.907259 0.091466
H62   H     H_    0.615888 0.743436 0.986305 0.093422
H63   H     H_    0.170050 0.728894 0.907259 0.091465
H64   H     H_    0.115893 0.243437 0.986299 0.093421
H65   H     H_    0.668503 0.778894 0.806573 0.107740
H66   H     H_    0.601305 0.254849 0.824120 0.096968
H67   H     H_    0.168506 0.278886 0.806555 0.107762
H68   H     H_    0.101306 0.754849 0.824120 0.096965
H69   H     H_    0.589580 0.074486 0.637454 0.158576
H70   H     H_    0.655314 0.958924 0.620702 0.103201
H71   H     H_    0.089577 0.574489 0.637455 0.158563
H72   H     H_    0.155306 0.458926 0.620705 0.103231
H73   H     H_    0.637760 0.922133 0.165722 0.105692
H74   H     H_    0.690565 0.048877 0.090025 0.104292
H75   H     H_    0.137761 0.422132 0.165722 0.105690
H76   H     H_    0.190565 0.548877 0.090025 0.104292
H77   H     H_    0.225986 0.166238 0.462940 0.212483
H78   H     H_    0.298181 0.872689 0.512921 0.218897
H79   H     H_    0.725955 0.666290 0.462895 0.212505
H80   H     H_    0.798172 0.372695 0.512928 0.218898
N1    N     N_R   0.408680 0.130160 0.995800 -0.048354
N2    N     N_R   0.408680 0.869840 0.995800 -0.048024
N3    N     N_R   0.908680 0.630160 0.995800 -0.048353
N4    N     N_R   0.908680 0.369840 0.995800 -0.048022
N5    N     N_R   0.421680 0.867580 0.153120 -0.037021
N6    N     N_R   0.421680 0.132420 0.153120 -0.041651
N7    N     N_R   0.921680 0.367580 0.153120 -0.037020
N8    N     N_R   0.921680 0.632420 0.153120 -0.041650
N9    N     N_R   0.403730 0.921770 0.935950 -0.044771
N10   N     N_R   0.403730 0.078230 0.935950 -0.044203
N11   N     N_R   0.903730 0.421770 0.935950 -0.044770
N12   N     N_R   0.903730 0.578230 0.935950 -0.044203
N13   N     N_R   0.426630 0.075970 0.212960 -0.052951
N14   N     N_R   0.426630 0.924030 0.212960 -0.040421
N15   N     N_R   0.926630 0.575970 0.212960 -0.052951
N16   N     N_R   0.926630 0.424030 0.212960 -0.040424
N17   N     N_R   0.591320 0.134600 0.004200 -0.049521
N18   N     N_R   0.591320 0.865400 0.004200 -0.047944
N19   N     N_R   0.091320 0.634600 0.004200 -0.049521
N20   N     N_R   0.091320 0.365400 0.004200 -0.047941
N21   N     N_R   0.578320 0.867660 0.846880 -0.046582
N22   N     N_R   0.578320 0.132340 0.846880 -0.037399
N23   N     N_R   0.078320 0.367660 0.846880 -0.046575
N24   N     N_R   0.078320 0.632340 0.846880 -0.037399
N25   N     N_R   0.573370 0.074390 0.787040 -0.045819
N26   N     N_R   0.573370 0.925610 0.787040 -0.048347
N27   N     N_R   0.073370 0.574390 0.787040 -0.045821
N28   N     N_R   0.073370 0.425610 0.787040 -0.048353
N29   N     N_R   0.596270 0.927870 0.064040 -0.043767
N30   N     N_R   0.596270 0.072130 0.064040 -0.045691
N31   N     N_R   0.096270 0.427870 0.064040 -0.043768
N32   N     N_R   0.096270 0.572130 0.064040 -0.045693
Ni1   Ni    Ni4+2 0.500000 0.131190 0.000000 0.212989
Ni2   Ni    Ni4+2 0.500000 0.868810 0.000000 0.226314
Ni3   Ni    Ni4+2 0.000000 0.631190 0.000000 0.212989
Ni4   Ni    Ni4+2 0.000000 0.368810 0.000000 0.226310
Ni5   Ni    Ni4+2 0.488650 0.000000 0.862740 0.235234
Ni6   Ni    Ni4+2 0.988650 0.500000 0.862740 0.235225
Ni7   Ni    Ni4+2 0.511350 0.000000 0.137260 0.237650
Ni8   Ni    Ni4+2 0.011350 0.500000 0.137260 0.237645
Cl1   Cl    Cl    0.306615 0.111542 0.553548 -0.717764
Cl2   Cl    Cl    0.401232 0.743648 0.381244 -0.648631
Cl3   Cl    Cl    0.806517 0.611505 0.553543 -0.717839
Cl4   Cl    Cl    0.901234 0.243658 0.381248 -0.648667
Cl5   Cl    Cl    0.864285 0.947071 0.493976 -0.653990
Cl6   Cl    Cl    0.567909 0.172673 0.523083 -0.717572
Cl7   Cl    Cl    0.364222 0.447140 0.493911 -0.654003
Cl8   Cl    Cl    0.067891 0.672689 0.523104 -0.717608

loop_
_geom_bond_atom_site_label_1
_geom_bond_atom_site_label_2
_ccdc_geom_bond_type
C61   C70   A    
N8    N15   A    
C39   C51   S    
C61   N9    A    
N19   Ni3   S    
C77   N17   A    
C48   C76   A    
C19   C23   S    
C16   C84   A    
C45   C73   A    
C3    N3    A    
C25   C43   S    
C6    C9    A    
C84   H68   S    
C18   H78   S    
C26   C44   S    
C29   C49   S    
C15   C83   A    
C66   N14   A    
C68   C75   A    
N9    Ni5   S    
C79   N19   A    
C30   H22   S    
C24   H10   S    
C29   H21   S    
N13   Ni7   S    
N7    Ni4   S    
C38   C42   S    
C82   H66   S    
C21   H11   S    
C58   C71   S    
C83   H67   S    
C50   Cl6   S    
N2    Ni2   S    
C54   H46   S    
N10   Ni5   S    
C49   Cl5   S    
C52   Cl8   S    
C81   H65   S    
N18   Ni2   S    
C3    H3    S    
N14   Ni7   S    
C64   C71   A    
N17   Ni1   S    
C2    H2    S    
C88   N28   A    
N23   N28   A    
C32   C52   S    
N22   N25   A    
C32   C34   S    
N21   N26   A    
C26   C34   S    
C23   H15   S    
C20   C24   S    
C87   H71   S    
C13   C86   A    
C16   C87   A    
C24   C38   S    
C46   N6    A    
N18   N29   A    
C78   N18   A    
N17   N30   A    
C10   C56   S    
C13   C37   S    
C11   C53   S    
C21   H13   S    
C58   H50   S    
C20   H8    S    
N11   Ni6   S    
N32   Ni8   S    
C4    N4    A    
C82   N22   A    
C37   C41   S    
N15   Ni8   S    
C28   C42   S    
N8    Ni3   S    
C11   C79   A    
C19   H79   S    
C62   H54   S    
C27   Cl3   S    
N12   Ni6   S    
C28   Cl4   S    
N6    N13   A    
C31   H27   S    
C56   H48   S    
N4    Ni4   S    
C34   C73   S    
C44   H20   S    
C64   N12   A    
C53   C59   D    
C7    C12   A    
C20   H80   S    
C49   H29   S    
C35   C76   S    
N25   Ni5   S    
N2    N9    A    
N24   N27   A    
C6    H74   S    
C53   H45   S    
C17   H77   S    
C42   H42   S    
C8    H76   S    
C77   H61   S    
C6    N30   A    
C27   H35   S    
C54   C60   D    
C64   H56   S    
N20   N31   A    
C27   C35   S    
C67   N15   A    
C40   C52   S    
C66   C73   A    
C7    H75   S    
N20   Ni4   S    
N6    Ni1   S    
C1    C69   A    
C65   C74   A    
C62   C69   A    
N5    Ni2   S    
C24   H16   S    
C5    H73   S    
C3    C71   A    
C26   Cl2   S    
C36   C75   S    
C45   N5    A    
C48   H40   S    
N1    Ni1   S    
C37   C49   S    
C27   C41   S    
C51   H31   S    
C21   C39   S    
C7    N31   A    
C59   H51   S    
C13   C81   A    
C22   C40   S    
C4    C72   A    
C31   C33   S    
C80   N20   A    
C57   H49   S    
C17   C33   S    
C43   H19   S    
C32   H28   S    
C25   Cl1   S    
C86   H70   S    
C15   C39   S    
C41   H17   S    
C16   C40   S    
C9    C55   S    
C52   H32   S    
N4    N11   A    
C61   H53   S    
C23   H9    S    
C42   H18   S    
C2    N2    A    
N5    N14   A    
C65   N13   A    
C50   H30   S    
C55   C57   D    
N3    Ni3   S    
C67   H59   S    
C18   H6    S    
N3    N12   A    
N29   Ni7   S    
C17   H5    S    
C60   H52   S    
C14   C82   A    
C65   H57   S    
C14   C38   S    
N1    N10   A    
C46   C74   A    
C19   H7    S    
C78   H62   S    
C79   H63   S    
C30   H26   S    
C51   Cl7   S    
C80   H64   S    
N26   Ni5   S    
C29   H25   S    
C68   N16   A    
C1    H1    S    
C32   H24   S    
N30   Ni7   S    
C18   C22   S    
C46   H38   S    
C83   N23   A    
C14   C85   A    
C31   C51   S    
C68   H60   S    
C62   N10   A    
C5    N29   A    
C28   H36   S    
N22   Ni1   S    
C47   H39   S    
C38   C50   S    
N21   Ni2   S    
C44   H44   S    
C29   C35   S    
C22   H14   S    
C30   C36   S    
N19   N32   A    
C43   H43   S    
C9    C77   A    
C87   N27   A    
C5    C10   A    
C23   C37   S    
C86   N26   A    
C41   H41   S    
C30   C50   S    
C85   N25   A    
N27   Ni6   S    
C60   C69   S    
C18   C34   S    
C8    C11   A    
C55   H47   S    
C12   C80   A    
C1    N1    A    
N31   Ni8   S    
N24   Ni3   S    
C56   C58   D    
C10   C78   A    
C84   N24   A    
C31   H23   S    
C88   H72   S    
C57   C72   S    
N28   Ni6   S    
C17   C21   S    
C66   H58   S    
C22   H12   S    
C8    N32   A    
C59   C70   S    
C47   C75   A    
C63   N11   A    
C20   C36   S    
C81   N21   A    
C33   C74   S    
C40   C44   S    
C63   C72   A    
C28   C36   S    
N23   Ni4   S    
C39   C43   S    
C45   H37   S    
C85   H69   S    
C47   N7    A    
C63   H55   S    
N16   Ni8   S    
C15   C88   A    
C19   C35   S    
C67   C76   A    
C26   H34   S    
C4    H4    S    
C2    C70   A    
C25   H33   S    
C12   C54   S    
C25   C33   S    
N7    N16   A    
C48   N8    A    
