data_mof_unit_9305.cif
_audit_creation_date              2012-12-11T16:04:49-0500
_audit_creation_method            fapswitch 2.2
_symmetry_space_group_name_H-M    P1
_symmetry_Int_Tables_number       1
_space_group_crystal_system       triclinic
_cell_length_a                    10.6019
_cell_length_b                    10.66682
_cell_length_c                    16.841273
_cell_angle_alpha                 98.651036
_cell_angle_beta                  99.155319
_cell_angle_gamma                 61.954528
_cell_volume                      1653.23946798

loop_
_atom_site_label
_atom_site_type_symbol
_atom_type_description
_atom_site_fract_x
_atom_site_fract_y
_atom_site_fract_z
_atom_type_partial_charge
C1    C     C_R   0.350938 0.781421 0.400908 0.543265
C2    C     C_3   0.438717 0.717233 0.264136 -0.093835
C3    C     C_3   0.333314 0.828404 0.321829 0.030510
C4    C     C_R   0.366744 0.343743 0.360070 0.528104
C5    C     C_3   0.348909 0.948504 0.291829 -0.168546
C6    C     C_3   0.220844 0.966352 0.227524 -0.130209
C7    C     C_3   0.205284 0.845680 0.258839 -0.063341
C8    C     C_3   0.311455 0.738005 0.201793 0.099718
C9    C     C_3   0.326953 0.854203 0.169733 0.057800
C10   C     C_3   0.438821 0.227979 0.763901 0.038588
C11   C     C_3   0.382837 0.376059 0.733667 -0.129868
C12   C     C_3   0.667036 0.363583 0.232425 -0.175460
C13   C     C_3   0.323036 0.322500 0.653868 0.056967
C14   C     C_3   0.377451 0.177839 0.684847 0.116746
C15   C     C_3   0.232588 0.229579 0.717444 -0.037898
C16   C     C_R   0.709504 0.414260 0.390534 0.577369
C17   C     C_3   0.176235 0.377626 0.685952 -0.137181
C18   C     C_3   0.236727 0.429597 0.767285 -0.134426
C19   C     C_3   0.293182 0.281598 0.797702 0.033435
C20   C     C_1   0.758182 0.374039 0.716849 -0.068554
C21   C     C_1   0.802401 0.335988 0.784091 -0.082871
C22   C     C_1   0.362576 0.755877 0.716132 -0.083188
C23   C     C_3   0.754985 0.385837 0.310690 0.060841
C24   C     C_1   0.331340 0.801134 0.784261 -0.077999
C25   C     C_R   0.895542 0.308278 0.091381 0.541185
C26   C     C_R   0.292071 0.261906 0.122524 0.571685
C27   C     C_R   0.296489 0.888654 0.087664 0.534822
C28   C     C_R   0.380989 0.712904 0.631811 0.543491
C29   C     C_R   0.873931 0.304381 0.863581 0.526327
C30   C     C_R   0.278735 0.254274 0.877202 0.557550
C31   C     C_R   0.284601 0.875798 0.861098 0.536902
C32   C     C_R   0.364134 0.343514 0.581895 0.535829
C33   C     C_R   0.714186 0.412696 0.635217 0.541211
C34   C     C_3   0.889132 0.253820 0.285999 0.126977
C35   C     C_1   0.325897 0.317751 0.277921 -0.065909
C36   C     C_1   0.306762 0.292782 0.206927 -0.046815
C37   C     C_3   0.804042 0.231717 0.208051 0.110441
C38   C     C_3   0.594023 0.151552 0.803179 -0.214063
C39   C     C_3   0.647525 0.991251 0.807407 -0.285898
C40   C     C_3   0.782205 0.929041 0.866618 -0.422860
C41   C     C_3   0.149572 0.145362 0.714236 -0.266264
C42   C     C_3   0.089032 0.114471 0.629114 -0.280198
C43   C     C_3   0.003146 0.033372 0.631593 -0.377255
C44   C     C_3   0.798837 0.621085 0.302945 -0.244578
C45   C     C_3   0.933436 0.345387 0.245832 -0.110930
C46   C     C_3   0.936446 0.601315 0.357315 -0.273968
C47   C     C_3   0.922398 0.743583 0.399729 -0.423924
C48   C     C_3   0.797877 0.478926 0.270504 -0.009383
C49   C     C_3   0.708998 0.459195 0.191650 -0.166396
C50   C     C_3   0.843543 0.325914 0.167556 0.053407
C51   C     C_3   0.454077 0.837986 0.232453 -0.146147
Cr1   Cr    Cr6+3 0.608340 0.611040 0.520430 0.993231
Cr2   Cr    Cr6+3 0.287650 0.601120 0.489350 0.965591
Cr3   Cr    Cr6+3 0.604040 0.287870 0.490280 1.004891
Cr4   Cr    Cr6+3 0.054020 0.052700 0.970850 0.988922
Cr5   Cr    Cr6+3 0.059230 0.375120 0.993390 1.012257
Cr6   Cr    Cr6+3 0.374950 0.061200 0.992340 0.988234
H1    H     H_    0.558549 0.370411 0.228541 0.140270
H2    H     H_    0.553169 0.835847 0.217602 0.114478
H3    H     H_    0.361606 0.036182 0.330922 0.122268
H4    H     H_    0.199093 0.665121 0.115082 0.254279
H5    H     H_    0.378285 0.571568 0.115463 0.225061
H6    H     H_    0.869322 0.944524 0.847792 0.181873
H7    H     H_    0.758912 0.981171 0.928492 0.157002
H8    H     H_    0.819454 0.812975 0.867586 0.139793
H9    H     H_    0.563547 0.970448 0.825733 0.198560
H10   H     H_    0.674772 0.934380 0.746907 0.177860
H11   H     H_    0.665419 0.163907 0.766778 0.140592
H12   H     H_    0.132746 0.068533 0.207816 0.136426
H13   H     H_    0.601178 0.205633 0.864264 0.164972
H14   H     H_    0.451921 0.964344 0.667425 0.241377
H15   H     H_    0.394135 0.046326 0.581586 0.232335
H16   H     H_    0.068141 0.936138 0.663870 0.177442
H17   H     H_    0.907336 0.098785 0.664423 0.163374
H18   H     H_    0.968223 0.003103 0.569160 0.161228
H19   H     H_    0.018519 0.215864 0.601058 0.196825
H20   H     H_    0.178007 0.048492 0.591021 0.176287
H21   H     H_    0.223353 0.045281 0.740350 0.145089
H22   H     H_    0.062700 0.204791 0.753339 0.156379
H23   H     H_    0.105258 0.843345 0.268246 0.129722
H24   H     H_    0.773893 0.058801 0.212620 0.225954
H25   H     H_    0.740415 0.114851 0.120186 0.246928
H26   H     H_    0.971741 0.057475 0.328111 0.235916
H27   H     H_    0.082903 0.136229 0.349268 0.216993
H28   H     H_    0.905181 0.817645 0.354643 0.142415
H29   H     H_    0.831020 0.792863 0.437420 0.143361
H30   H     H_    0.022094 0.726026 0.439682 0.182914
H31   H     H_    0.960987 0.526854 0.403553 0.196636
H32   H     H_    0.027946 0.555432 0.319891 0.173273
H33   H     H_    0.791122 0.677510 0.250718 0.136297
H34   H     H_    0.444347 0.437740 0.738725 0.094973
H35   H     H_    0.703983 0.687734 0.336734 0.170180
H36   H     H_    0.070194 0.437690 0.651856 0.141966
H37   H     H_    0.180134 0.533381 0.802733 0.138786
H38   H     H_    0.043723 0.333244 0.249278 0.085378
H39   H     H_    0.637732 0.542221 0.150152 0.119548
H40   H     H_    0.517644 0.617194 0.287930 0.114825
N1    N     N_3   0.294946 0.620941 0.152748 -0.610725
N2    N     N_3   0.453211 0.042762 0.637826 -0.607360
N3    N     N_3   0.812395 0.095251 0.172438 -0.617401
N4    N     N_3   0.977234 0.152753 0.345614 -0.605874
O1    O     O_R   0.751220 0.499230 0.435170 -0.524674
O2    O     O_R   0.412990 0.180750 0.091610 -0.510825
O3    O     O_R   0.366620 0.943130 0.065760 -0.518296
O4    O     O_R   0.477220 0.727600 0.436870 -0.518493
O5    O     O_R   0.160510 0.906330 0.879210 -0.516826
O6    O     O_R   0.930190 0.179050 0.889450 -0.510103
O7    O     O_R   0.909140 0.398170 0.896710 -0.508864
O8    O     O_R   0.186190 0.363460 0.918830 -0.492554
O9    O     O_R   0.401670 0.173200 0.913310 -0.525776
O10   O     O_R   0.356120 0.936130 0.900470 -0.517391
O11   O     O_3   0.162740 0.163010 0.985530 -0.288584
O12   O     O_R   0.297880 0.469080 0.560050 -0.524641
O13   O     O_R   0.258650 0.745120 0.411470 -0.522489
O14   O     O_R   0.297070 0.467240 0.395960 -0.503769
O15   O     O_R   0.488830 0.252610 0.387790 -0.522362
O16   O     O_R   0.724400 0.302390 0.420980 -0.462200
O17   O     O_R   0.752100 0.501210 0.612190 -0.509405
O18   O     O_R   0.478040 0.729440 0.600970 -0.510176
O19   O     O_R   0.259530 0.747110 0.588490 -0.523128
O20   O     O_R   0.489720 0.254590 0.564810 -0.499776
O21   O     O_R   0.725220 0.304230 0.585080 -0.499449
O22   O     O_3   0.500010 0.500010 0.500020 -0.299224
O23   O     O_R   0.171830 0.913880 0.057510 -0.510256
O24   O     O_R   0.940690 0.186050 0.054730 -0.492344
O25   O     O_R   0.920470 0.405720 0.075010 -0.526993
O26   O     O_R   0.196690 0.370460 0.084120 -0.478213

loop_
_geom_bond_atom_site_label_1
_geom_bond_atom_site_label_2
_ccdc_geom_bond_type
C43   H16   S    
C6    H12   S    
C44   C48   S    
Cr3   O22   S    
C38   H13   S    
C11   C18   S    
Cr4   O11   S    
C34   C37   S    
C41   C42   S    
C13   C32   S    
H4    N1    S    
C9    C51   S    
C6    C9    S    
C12   C49   S    
Cr2   O19   S    
C14   N2    S    
C46   H32   S    
Cr6   O10   S    
C15   C19   S    
C12   C23   S    
Cr1   O1    S    
C40   H6    S    
C30   O9    A    
C47   H28   S    
C3    C7    S    
C38   C39   S    
Cr1   O22   S    
Cr6   O11   S    
C27   O3    A    
C18   C19   S    
C46   C47   S    
Cr5   O26   S    
C12   C37   S    
C25   O24   A    
C25   C50   S    
Cr5   O7    S    
C8    N1    S    
C4    O14   A    
H5    N1    S    
C35   C36   T    
C2    H40   S    
Cr2   O12   S    
C8    C9    S    
Cr3   O15   S    
C29   O7    A    
Cr5   O25   S    
C32   O12   A    
C44   H35   S    
C12   H1    S    
C43   H17   S    
Cr3   O21   S    
C4    C35   S    
C33   O17   A    
C22   C28   S    
C13   C14   S    
H27   N4    S    
H25   N3    S    
C44   C46   S    
C46   H31   S    
C43   H18   S    
Cr6   O2    S    
C34   N4    S    
C30   O8    A    
C47   H29   S    
Cr4   O24   S    
C7    C8    S    
C15   C41   S    
C28   O19   A    
C5    C51   S    
C41   H21   S    
Cr4   O5    S    
H14   N2    S    
Cr4   O6    S    
C1    C3    S    
C47   H30   S    
C25   O25   A    
C26   O2    A    
Cr6   O9    S    
C10   C19   S    
C23   C34   S    
C17   C18   S    
C34   C45   S    
C20   C33   S    
C26   C36   S    
C48   C49   S    
Cr3   O20   S    
C38   H11   S    
Cr1   O4    S    
C16   C23   S    
C40   H8    S    
Cr2   O22   S    
C33   O21   A    
C18   H37   S    
C39   H9    S    
C22   C24   T    
C51   H2    S    
C42   C43   S    
C45   H38   S    
Cr5   O8    S    
C39   C40   S    
C44   H33   S    
Cr2   O13   S    
C9    C27   S    
C45   C48   S    
C16   O1    A    
C15   C17   S    
Cr6   O3    S    
Cr4   O23   S    
C23   C48   S    
H26   N4    S    
C5    H3    S    
C39   H10   S    
C32   O20   A    
C4    O15   A    
C2    C8    S    
C3    C5    S    
C28   O18   A    
C41   H22   S    
C27   O23   A    
C6    C7    S    
H24   N3    S    
C42   H19   S    
C40   H7    S    
C13   C17   S    
C10   C38   S    
C10   C11   S    
C2    C3    S    
C24   C31   S    
C16   O16   A    
C37   C50   S    
C11   C13   S    
C5    C6    S    
C21   C29   S    
C45   C50   S    
C31   O5    A    
C26   O26   A    
C49   H39   S    
C2    C51   S    
Cr1   O18   S    
C11   H34   S    
C17   H36   S    
C20   C21   T    
C42   H20   S    
C49   C50   S    
C1    O13   A    
Cr3   O16   S    
C1    O4    A    
C31   O10   A    
C14   C15   S    
C29   O6    A    
C19   C30   S    
Cr5   O11   S    
C37   N3    S    
Cr2   O14   S    
C10   C14   S    
C7    H23   S    
H15   N2    S    
Cr1   O17   S    
