data_mof_unit_45398.cif
_audit_creation_date              2012-12-11T15:13:39-0500
_audit_creation_method            fapswitch 2.2
_symmetry_space_group_name_H-M    P1
_symmetry_Int_Tables_number       1
_space_group_crystal_system       triclinic
_cell_length_a                    6.945135
_cell_length_b                    13.479129
_cell_length_c                    20.147623
_cell_angle_alpha                 104.149739
_cell_angle_beta                  89.729996
_cell_angle_gamma                 90.661464
_cell_volume                      1828.75751866

loop_
_atom_site_label
_atom_site_type_symbol
_atom_type_description
_atom_site_fract_x
_atom_site_fract_y
_atom_site_fract_z
_atom_type_partial_charge
O1    O     O_R   0.506780 0.600060 0.449950 -0.531368
O2    O     O_R   0.179840 0.597110 0.589410 -0.547824
O3    O     O_R   0.004570 0.399940 0.550050 -0.539968
C1    C     C_R   0.348079 0.619046 0.616914 0.671848
O4    O     O_R   0.177380 0.612160 0.452890 -0.542273
O5    O     O_R   0.002100 0.415100 0.412560 -0.542685
C2    C     C_R   0.347102 0.638912 0.436265 0.712191
O6    O     O_R   0.509250 0.584900 0.587440 -0.542451
O7    O     O_3   0.337570 0.435330 0.486930 -0.369628
V1    V     V_3+5 0.064650 0.512000 0.502430 1.433293
O8    O     O_R   0.672090 0.402890 0.410590 -0.530819
C3    C     C_R   0.840779 0.381183 0.383129 0.764066
O9    O     O_R   0.674540 0.387840 0.547110 -0.544949
C4    C     C_R   0.842463 0.360668 0.563320 0.683871
V2    V     V_3+5 0.564040 0.488000 0.497570 1.454540
O10   O     O_3   0.840990 0.564670 0.513070 -0.375078
C5    C     C_R   0.836126 0.105163 0.606084 -0.128088
H1    H     H_    0.828090 0.155771 0.513130 0.103824
H2    H     H_    0.836646 0.978149 0.687286 0.142569
H3    H     H_    0.828074 0.025151 0.579003 0.111185
C6    C     C_R   0.847819 0.282493 0.602150 -0.032833
C7    C     C_R   0.872568 0.317592 0.931012 -0.192473
C8    C     C_R   0.872534 0.394179 0.895961 -0.107072
C9    C     C_R   0.866005 0.369546 0.824808 -0.126901
C10   C     C_R   0.859223 0.266262 0.786360 0.013281
C11   C     C_R   0.857602 0.187325 0.822600 -0.045720
C12   C     C_R   0.853898 0.239046 0.713208 0.067614
C13   C     C_R   0.844545 0.134034 0.677886 0.053534
C14   C     C_R   0.843110 0.058319 0.714182 -0.286208
C15   C     C_R   0.850090 0.083644 0.785156 0.538242
C16   C     C_R   0.856993 0.312409 0.673551 -0.189420
C17   C     C_R   0.836579 0.179094 0.568467 -0.169780
C18   C     C_R   0.864702 0.214801 0.895368 -0.080508
H4    H     H_    0.864677 0.393481 0.696160 0.086069
H5    H     H_    0.878985 0.338579 0.986449 0.100767
H6    H     H_    0.866315 0.433610 0.801744 0.096638
H7    H     H_    0.878192 0.473600 0.924200 0.114084
C19   C     C_3   0.675505 0.221453 0.228650 -0.258378
C20   C     C_3   0.772113 0.199816 0.293119 -0.284912
H8    H     H_    0.705593 0.158421 0.328885 0.136041
H9    H     H_    0.526416 0.199218 0.210948 0.158690
C21   C     C_3   0.850219 0.310886 0.312745 -0.178537
C22   C     C_3   0.755311 0.332031 0.249105 0.702720
C23   C     C_3   0.940467 0.299977 0.206973 -0.283006
C24   C     C_3   0.037052 0.278275 0.271431 -0.253406
C25   C     C_3   0.957184 0.167732 0.250972 0.698736
C26   C     C_3   0.862388 0.188897 0.187327 -0.173335
H10   H     H_    0.007500 0.341594 0.171399 0.143570
H11   H     H_    0.186193 0.300299 0.289156 0.163746
C27   C     C_3   0.456925 0.794087 0.707116 -0.145239
C28   C     C_3   0.277064 0.840410 0.748730 -0.105811
H12   H     H_    0.211107 0.914854 0.748220 0.140285
H13   H     H_    0.540076 0.829604 0.671584 0.106652
C29   C     C_3   0.358978 0.811554 0.812238 -0.001721
C30   C     C_3   0.539248 0.766086 0.771430 -0.088550
C31   C     C_3   0.436042 0.660560 0.751036 -0.167054
C32   C     C_3   0.256152 0.706848 0.792615 -0.154212
C33   C     C_3   0.173829 0.734888 0.728316 -0.101391
C34   C     C_3   0.354082 0.689334 0.687515 -0.019478
H14   H     H_    0.690456 0.779161 0.789403 0.144236
H15   H     H_    0.502172 0.586148 0.751534 0.106791
H16   H     H_    0.173023 0.671385 0.828180 0.101387
H17   H     H_    0.022597 0.721980 0.710347 0.113399
C35   C     C_R   0.418657 0.890912 0.391230 -0.140935
H18   H     H_    0.414810 0.841337 0.484635 0.100134
H19   H     H_    0.451805 0.015687 0.308524 0.132773
H20   H     H_    0.448589 0.969760 0.417621 0.113112
C36   C     C_R   0.359980 0.716311 0.396759 -0.040363
C37   C     C_R   0.316337 0.682160 0.067873 -0.173526
C38   C     C_R   0.296770 0.605960 0.103070 -0.110171
C39   C     C_R   0.312316 0.629518 0.174148 -0.114970
C40   C     C_R   0.348672 0.731203 0.212205 0.069918
C41   C     C_R   0.370848 0.808853 0.175597 0.045034
C42   C     C_R   0.363292 0.758465 0.285210 0.065687
C43   C     C_R   0.401571 0.862170 0.319638 0.117589
C44   C     C_R   0.423275 0.936533 0.282546 -0.116191
C45   C     C_R   0.408091 0.910551 0.211752 -0.108313
C46   C     C_R   0.341738 0.686529 0.325518 -0.169353
C47   C     C_R   0.399021 0.818232 0.429502 -0.179164
C48   C     C_R   0.353632 0.783222 0.103326 -0.067471
H21   H     H_    0.312855 0.606591 0.303406 0.124051
H22   H     H_    0.301875 0.662327 0.012642 0.097402
H23   H     H_    0.294888 0.566185 0.197520 0.134485
H24   H     H_    0.268268 0.527826 0.075047 0.121309
H25   H     H_    0.425815 0.971315 0.185574 0.133286
O11   O     O_R   0.203580 0.914920 0.912610 -0.526800
O12   O     O_R   0.535710 0.887810 0.047120 -0.547972
O13   O     O_R   0.710730 0.084950 0.087430 -0.551602
C49   C     C_R   0.366130 0.861219 0.063934 0.676578
O14   O     O_R   0.533010 0.902850 0.910600 -0.528598
O15   O     O_R   0.708010 0.100090 0.949930 -0.528162
C50   C     C_R   0.364844 0.881306 0.882982 0.702375
O16   O     O_R   0.206300 0.899780 0.050100 -0.535264
O17   O     O_3   0.375170 0.064580 0.013100 -0.380603
V3    V     V_3+5 0.648200 0.988020 0.997570 1.489508
O18   O     O_R   0.038030 0.112330 0.952840 -0.544084
C51   C     C_R   0.870162 0.138402 0.935832 0.813341
O19   O     O_R   0.040730 0.097300 0.089360 -0.537125
C52   C     C_R   0.872022 0.118763 0.116895 0.738900
V4    V     V_3+5 0.148780 0.012220 0.002360 1.491211
O20   O     O_3   0.871930 0.935430 0.986900 -0.365848
F1    F     F_    0.649702 0.418205 0.248656 -0.703574
F2    F     F_    0.062379 0.081494 0.251451 -0.705862
F3    F     F_    0.848940 0.004901 0.816215 -0.713539

loop_
_geom_bond_atom_site_label_1
_geom_bond_atom_site_label_2
_ccdc_geom_bond_type
C30   C31   S    
H18   C47   S    
C1    O6    A    
C32   H16   S    
C24   C25   S    
C7    H5    S    
C6    C16   A    
C9    H6    S    
C27   C34   S    
C4    C6    S    
C13   C14   A    
O5    C3    A    
C19   C20   S    
V2    O10   S    
C5    H3    S    
C26   C52   S    
C31   C32   S    
C48   C49   S    
C3    C21   S    
C37   H22   S    
C2    C36   S    
C29   C30   S    
O8    V2    S    
C35   C43   A    
O12   V3    S    
C8    C9    A    
C38   C39   A    
O1    V2    S    
C24   H11   S    
C38   H24   S    
O7    V1    S    
C23   C26   S    
C36   C47   A    
O13   V3    S    
C45   H25   S    
C30   H14   S    
C49   O16   A    
O17   V3    S    
C20   C21   S    
C39   H23   S    
C36   C46   A    
C6    C17   A    
C27   H13   S    
C42   C43   A    
C12   C16   A    
C28   H12   S    
C35   H20   S    
O14   V3    S    
C9    C10   A    
C19   H9    S    
C40   C42   A    
C20   H8    S    
O4    C2    A    
C10   C11   A    
C8    H7    S    
O15   C51   A    
C21   C24   S    
O2    C1    A    
C43   C44   A    
C29   C50   S    
C14   C15   A    
C11   C18   A    
O14   C50   A    
O17   V4    S    
H19   C44   S    
O18   C51   A    
C27   C28   S    
C16   H4    S    
C31   H15   S    
C28   C33   S    
C44   C45   A    
O16   V4    S    
C19   C26   S    
O3    C4    A    
C20   C25   S    
C11   C15   A    
O6    V2    S    
O19   V4    S    
O12   C49   A    
C22   C23   S    
C35   C47   A    
H1    C17   S    
C21   C22   S    
O2    V1    S    
O11   V4    S    
C23   C24   S    
C33   H17   S    
C7    C18   A    
C25   C26   S    
O1    C2    A    
C5    C13   A    
C40   C41   A    
O5    V1    S    
O8    C3    A    
C10   C12   A    
C25   F2    S    
C27   C30   S    
C31   C34   S    
C28   C29   S    
O9    V2    S    
C33   C34   S    
C22   F1    S    
C19   C22   S    
O3    V1    S    
O11   C50   A    
C46   H21   S    
C32   C33   S    
O18   V4    S    
C1    C34   S    
V4    O20   S    
C41   C48   A    
C18   C51   S    
O7    V2    S    
C37   C38   A    
O13   C52   A    
O15   V3    S    
C23   H10   S    
O4    V1    S    
C39   C40   A    
O19   C52   A    
C42   C46   A    
C15   F3    S    
C12   C13   A    
C5    C17   A    
C41   C45   A    
C7    C8    A    
C37   C48   A    
V1    O10   S    
O9    C4    A    
V3    O20   S    
C29   C32   S    
H2    C14   S    
