data_mof_unit_27255.cif
_audit_creation_date              2012-12-10T16:56:11-0500
_audit_creation_method            fapswitch 2.2
_symmetry_space_group_name_H-M    P1
_symmetry_Int_Tables_number       1
_space_group_crystal_system       triclinic
_cell_length_a                    9.893107
_cell_length_b                    10.978704
_cell_length_c                    13.866443
_cell_angle_alpha                 93.846377
_cell_angle_beta                  86.406082
_cell_angle_gamma                 90.503214
_cell_volume                      1499.71930395

loop_
_atom_site_label
_atom_site_type_symbol
_atom_type_description
_atom_site_fract_x
_atom_site_fract_y
_atom_site_fract_z
_atom_type_partial_charge
C1    C     C_R   0.501229 0.733334 0.500340 0.868525
C2    C     C_1   0.468424 0.495089 0.784592 -0.186175
C3    C     C_2   0.605856 0.063498 0.492399 0.269212
C4    C     C_2   0.493134 0.131601 0.487984 0.136689
C5    C     C_2   0.599593 0.930275 0.464473 0.484163
C6    C     C_2   0.505687 0.864389 0.511861 -0.373434
C7    C     C_2   0.076981 0.583047 0.549680 0.545736
C8    C     C_2   0.919691 0.578002 0.554190 0.500112
C9    C     C_R   0.479219 0.498301 0.682064 0.777846
C10   C     C_R   0.498873 0.265456 0.499005 0.756053
C11   C     C_R   0.520751 0.500333 0.317827 0.784825
C12   C     C_1   0.531428 0.504782 0.215366 -0.151498
C13   C     C_2   0.554586 0.516008 0.024833 0.346883
C14   C     C_2   0.444400 0.487968 0.975428 0.435712
C15   C     C_1   0.457311 0.491925 0.870957 -0.065811
C16   C     C_1   0.542361 0.509771 0.129121 -0.074796
Cu1   Cu    Cu3+1 0.361370 0.499980 0.499980 0.991753
Cu2   Cu    Cu3+1 0.638630 0.500020 0.500020 1.021665
H1    H     H_    0.436566 0.906645 0.566842 0.102974
N1    N     N_2   0.152970 0.501340 0.501040 -0.036306
N2    N     N_2   0.846830 0.501370 0.501060 -0.015370
O1    O     O_R   0.382960 0.678040 0.499980 -0.523897
O2    O     O_R   0.617100 0.678080 0.500020 -0.504967
O3    O     O_R   0.366380 0.499950 0.637830 -0.589969
O4    O     O_R   0.600520 0.499990 0.637860 -0.573839
O5    O     O_R   0.382900 0.321920 0.499980 -0.625177
O6    O     O_R   0.617040 0.321960 0.500020 -0.531145
O7    O     O_R   0.399480 0.500010 0.362140 -0.552530
O8    O     O_R   0.633620 0.500050 0.362170 -0.610895
O9    O     O_3   0.324081 0.455654 0.026528 -0.588778
C17   C     C_3   0.215605 0.433309 0.966222 -0.330853
H2    H     H_    0.236791 0.353029 0.914359 0.164358
H3    H     H_    0.193242 0.515472 0.927289 0.163946
H4    H     H_    0.123694 0.411974 0.012138 0.192321
O10   O     O_3   0.898872 0.389023 0.479416 -0.516823
C18   C     C_3   0.865167 0.350129 0.383895 0.030214
H5    H     H_    0.896908 0.418252 0.330932 0.132193
H6    H     H_    0.759726 0.326450 0.374355 0.165109
H7    H     H_    0.915071 0.261618 0.362719 0.072261
O11   O     O_3   0.674618 0.549014 0.973737 -0.616804
C19   C     C_3   0.780503 0.581140 0.034499 0.090497
H8    H     H_    0.810129 0.501116 0.073591 0.147377
H9    H     H_    0.750035 0.658476 0.087282 0.155319
C20   C     C_3   0.903158 0.621697 0.972874 -0.845863
H10   H     H_    0.878449 0.704750 0.936114 0.245446
H11   H     H_    0.988664 0.643083 0.019477 0.217364
H12   H     H_    0.934213 0.547896 0.917408 0.237034
O12   O     O_3   0.727308 0.118781 0.517253 -0.573886
C21   C     C_3   0.794331 0.048255 0.580846 -0.284805
H13   H     H_    0.841860 0.966517 0.541460 0.213952
H14   H     H_    0.725010 0.021019 0.642215 0.139891
H15   H     H_    0.876500 0.104548 0.612110 0.182647
O13   O     O_3   0.374372 0.076497 0.457064 -0.602900
C22   C     C_3   0.270920 0.083150 0.532898 0.028697
H16   H     H_    0.218950 0.172264 0.538059 0.176659
H17   H     H_    0.309974 0.069925 0.605104 0.109509
C23   C     C_3   0.164628 0.985637 0.511559 -0.722931
H18   H     H_    0.213220 0.895324 0.495487 0.300487
H19   H     H_    0.091725 0.980173 0.575291 0.192617
H20   H     H_    0.108988 0.008458 0.448053 0.235478
O14   O     O_3   0.694099 0.871225 0.398749 -0.556335
C24   C     C_3   0.740107 0.947550 0.325500 -0.297864
H21   H     H_    0.814831 0.015354 0.352963 0.186398
H22   H     H_    0.654808 0.993771 0.294201 0.148631
H23   H     H_    0.792717 0.890270 0.265946 0.180449
O15   O     O_3   0.141267 0.691098 0.580323 -0.569745
C25   C     C_3   0.139236 0.709438 0.682079 0.067088
H24   H     H_    0.131935 0.622475 0.719431 0.107209
H25   H     H_    0.055623 0.772960 0.706129 0.169730
C26   C     C_3   0.265826 0.777403 0.713081 -0.794809
H26   H     H_    0.267996 0.870215 0.686098 0.224676
H27   H     H_    0.264320 0.786719 0.793390 0.195141
H28   H     H_    0.358836 0.728213 0.685816 0.243309
O16   O     O_3   0.116521 0.475387 0.409634 -0.503027
C27   C     C_3   0.158213 0.354481 0.379543 0.003530
H29   H     H_    0.122113 0.288203 0.432449 0.135474
H30   H     H_    0.266121 0.340707 0.363134 0.180483
H31   H     H_    0.117028 0.329001 0.308464 0.079154
O17   O     O_3   0.853118 0.673635 0.607078 -0.591976
C28   C     C_3   0.820407 0.641691 0.703519 0.085881
H32   H     H_    0.906080 0.651160 0.749872 0.075585
H33   H     H_    0.792219 0.544623 0.709495 0.170793
C29   C     C_3   0.710338 0.727006 0.749668 -0.737278
H34   H     H_    0.622536 0.727518 0.703788 0.232502
H35   H     H_    0.675848 0.697636 0.822198 0.237702
H36   H     H_    0.751042 0.821479 0.757930 0.211222

loop_
_geom_bond_atom_site_label_1
_geom_bond_atom_site_label_2
_ccdc_geom_bond_type
C10   O6    A    
C4    O13   S    
Cu2   N2    S    
C19   H8    S    
O10   C18   S    
C9    O4    A    
C7    C8    S    
C17   H2    S    
O13   C22   S    
C6    H1    S    
Cu1   O5    S    
C18   H5    S    
O9    C17   S    
C23   H19   S    
C3    O12   S    
Cu1   N1    S    
C13   O11   S    
C24   H22   S    
C12   C16   T    
C21   H14   S    
C8    O17   S    
C17   H3    S    
C26   H26   S    
C20   H12   S    
C10   O5    A    
O15   C25   S    
C1    O1    A    
C13   C14   D    
C19   H9    S    
Cu2   O4    S    
C14   O9    S    
C28   C29   S    
C20   H11   S    
Cu1   Cu2   S    
C22   H17   S    
Cu1   O3    S    
O16   C27   S    
N1    O16   S    
Cu2   O2    S    
C28   H33   S    
C23   H20   S    
C7    N1    D    
C25   H24   S    
C25   H25   S    
C27   H29   S    
C24   H21   S    
C29   H34   S    
C21   H15   S    
C26   H28   S    
C8    N2    D    
C17   H4    S    
C5    O14   S    
Cu2   O8    S    
C2    C15   T    
C27   H30   S    
O11   C19   S    
C29   H35   S    
C1    O2    A    
C19   C20   S    
C4    C10   S    
C3    C4    D    
C20   H10   S    
C22   H16   S    
O12   C21   S    
C24   H23   S    
Cu1   O7    S    
C18   H7    S    
Cu2   O6    S    
C28   H32   S    
C3    C5    S    
C11   C12   S    
C9    O3    A    
N2    O10   S    
Cu1   O1    S    
C25   C26   S    
C18   H6    S    
C7    O15   S    
C23   H18   S    
C5    C6    D    
C11   O7    A    
O14   C24   S    
C27   H31   S    
O17   C28   S    
C29   H36   S    
C11   O8    A    
C21   H13   S    
C13   C16   S    
C1    C6    S    
C14   C15   S    
C26   H27   S    
C2    C9    S    
C22   C23   S    
