data_mof_unit_31292.cif
_audit_creation_date              2012-12-11T16:48:07-0500
_audit_creation_method            fapswitch 2.2
_symmetry_space_group_name_H-M    P1
_symmetry_Int_Tables_number       1
_space_group_crystal_system       triclinic
_cell_length_a                    17.522998
_cell_length_b                    24.271679
_cell_length_c                    15.141272
_cell_angle_alpha                 90.37626
_cell_angle_beta                  125.696525
_cell_angle_gamma                 90.276432
_cell_volume                      5229.45200298

loop_
_atom_site_label
_atom_site_type_symbol
_atom_type_description
_atom_site_fract_x
_atom_site_fract_y
_atom_site_fract_z
_atom_type_partial_charge
C1    C     C_R   0.353691 0.347177 0.909382 -0.057316
C2    C     C_R   0.431986 0.500159 0.633592 0.009654
C3    C     C_R   0.058019 0.846603 0.911035 -0.167243
C4    C     C_R   0.380402 0.315666 0.998555 0.047359
C5    C     C_R   0.620120 0.316423 0.002734 0.031281
C6    C     C_R   0.881435 0.815429 0.998325 0.045478
C7    C     C_R   0.119320 0.816035 0.002319 0.032133
C8    C     C_3   0.416926 0.772274 0.122624 0.278849
C9    C     C_3   0.483403 0.765702 0.089666 -0.905294
C10   C     C_3   0.584971 0.765028 0.843971 0.273817
C11   C     C_3   0.511050 0.762444 0.866353 -0.919582
C12   C     C_3   0.911167 0.275333 0.096901 0.279304
C13   C     C_R   0.013859 0.001120 0.333067 0.028421
C14   C     C_3   0.970158 0.266732 0.054122 -0.900158
C15   C     C_3   0.073236 0.254261 0.816267 0.275658
C16   C     C_3   0.985665 0.250530 0.814517 -0.924636
C17   C     C_3   0.332922 0.654814 0.318813 -0.992820
C18   C     C_3   0.703659 0.623302 0.721653 -1.020096
C19   C     C_3   0.857923 0.165124 0.328648 -1.006866
C20   C     C_3   0.184647 0.098199 0.739637 -0.994531
C21   C     C_3   0.281825 0.512454 0.154267 0.282113
C22   C     C_3   0.193287 0.537392 0.056065 -0.890659
C23   C     C_3   0.374896 0.342393 0.427863 0.296097
C24   C     C_R   0.931426 0.000413 0.633163 0.014105
C25   C     C_3   0.344095 0.282218 0.408396 -0.916666
C26   C     C_3   0.779899 0.013763 0.154825 0.289510
C27   C     C_3   0.691756 0.039416 0.057389 -0.887915
C28   C     C_3   0.873498 0.842219 0.425941 0.295494
C29   C     C_3   0.843760 0.781875 0.407834 -0.919971
C30   C     C_3   0.218207 0.378609 0.144469 -0.850115
C31   C     C_3   0.136500 0.445828 0.299371 -0.835618
C32   C     C_3   0.715719 0.879160 0.141719 -0.855226
C33   C     C_3   0.633655 0.944289 0.297036 -0.837539
C34   C     C_3   0.609089 0.398560 0.454853 -0.967404
C35   C     C_R   0.200205 0.498954 0.635548 0.016241
C36   C     C_3   0.376055 0.366663 0.645483 -1.008012
C37   C     C_3   0.107312 0.898713 0.454393 -0.967369
C38   C     C_3   0.874976 0.867068 0.644228 -1.008426
C39   C     C_3   0.169728 0.371359 0.602923 0.189305
C40   C     C_3   0.069974 0.349949 0.549955 -0.866343
C41   C     C_3   0.803683 0.392507 0.419342 0.227193
C42   C     C_3   0.801133 0.331108 0.437043 -0.918806
C43   C     C_3   0.669220 0.871343 0.603308 0.191931
C44   C     C_3   0.569490 0.850020 0.550897 -0.871296
C45   C     C_3   0.302882 0.892959 0.420244 0.227352
C46   C     C_R   0.819572 0.502066 0.337448 -0.050607
C47   C     C_3   0.299945 0.831685 0.438437 -0.913840
C48   C     C_R   0.699994 0.998931 0.635729 0.015636
C49   C     C_R   0.319229 0.002077 0.338323 -0.050890
C50   C     C_2   0.968270 0.544572 0.404131 -0.124689
C51   C     C_2   0.069618 0.547206 0.481802 -0.131448
C52   C     C_2   0.467847 0.044597 0.404906 -0.124043
C53   C     C_R   0.646338 0.348327 0.091119 -0.078102
C54   C     C_2   0.569205 0.047199 0.482304 -0.130884
C55   C     C_2   0.919482 0.505711 0.414790 -0.141533
C56   C     C_2   0.116154 0.500359 0.525070 -0.166932
C57   C     C_2   0.419119 0.005795 0.415809 -0.142975
C58   C     C_2   0.615721 0.000336 0.525426 -0.167244
C59   C     C_R   0.272267 0.694414 0.105965 -0.011626
C60   C     C_R   0.740393 0.687588 0.900431 0.011602
C61   C     C_R   0.778968 0.198023 0.107005 -0.005896
C62   C     C_R   0.244834 0.184827 0.900291 -0.001906
C63   C     C_R   0.248361 0.671179 0.007242 0.028272
C64   C     C_R   0.854508 0.847038 0.909327 -0.060178
C65   C     C_R   0.757136 0.668816 0.997577 0.018239
C66   C     C_R   0.750748 0.172324 0.008597 0.027667
C67   C     C_R   0.258613 0.167007 0.996896 0.023714
C68   C     C_R   0.159421 0.683059 0.911941 -0.176125
C69   C     C_R   0.842304 0.685189 0.095112 -0.174732
C70   C     C_R   0.659852 0.182405 0.915142 -0.180491
C71   C     C_R   0.341731 0.184949 0.095365 -0.176532
C72   C     C_R   0.608408 0.226341 0.915040 -0.192828
C73   C     C_R   0.391642 0.230333 0.096256 -0.195902
C74   C     C_R   0.107868 0.727021 0.911592 -0.194357
C75   C     C_R   0.145831 0.848081 0.090873 -0.082710
C76   C     C_R   0.893631 0.729555 0.095141 -0.194315
C77   C     C_R   0.648329 0.259795 0.008597 0.085768
C78   C     C_R   0.359714 0.257243 0.998269 0.075114
C79   C     C_R   0.145373 0.758795 0.006829 0.085194
C80   C     C_R   0.860407 0.757056 0.997219 0.068615
C81   C     C_R   0.403129 0.625414 0.090370 -0.066755
C82   C     C_R   0.598585 0.622807 0.909404 -0.076995
C83   C     C_R   0.903592 0.125658 0.090479 -0.054384
C84   C     C_R   0.098569 0.122387 0.909141 -0.113264
C85   C     C_R   0.728173 0.241361 0.106120 0.027123
C86   C     C_R   0.317219 0.641599 0.001026 0.041579
C87   C     C_R   0.296001 0.228480 0.901721 0.068088
C88   C     C_R   0.221100 0.737716 0.104932 0.033812
C89   C     C_R   0.793260 0.729693 0.900125 0.075306
C90   C     C_3   0.812419 0.272722 0.196624 -0.635776
C91   C     C_3   0.222523 0.244684 0.787133 -0.732860
C92   C     C_3   0.303609 0.765876 0.203651 -0.639162
C93   C     C_3   0.715804 0.748666 0.788463 -0.735484
C94   C     C_3   0.361716 0.717914 0.208323 0.662077
C95   C     C_3   0.655995 0.702286 0.787772 0.676540
C96   C     C_3   0.870365 0.224782 0.201067 0.662322
C97   C     C_R   0.684925 0.640035 0.999668 0.049151
C98   C     C_3   0.164727 0.195739 0.782366 0.684469
C99   C     C_R   0.402706 0.458166 0.464898 -0.146976
C100  C     C_R   0.417896 0.463204 0.385058 -0.205014
C101  C     C_R   0.899905 0.958014 0.463387 -0.145717
C102  C     C_R   0.915476 0.963005 0.383608 -0.205434
C103  C     C_R   0.427990 0.503530 0.536308 0.086883
C104  C     C_R   0.477150 0.504576 0.393809 0.161373
C105  C     C_R   0.922829 0.004059 0.532754 0.085789
C106  C     C_R   0.974252 0.004670 0.392113 0.156006
C107  C     C_R   0.474637 0.549422 0.531498 -0.175485
C108  C     C_R   0.817865 0.141862 0.001201 0.045031
C109  C     C_R   0.502287 0.548927 0.463977 -0.185692
C110  C     C_R   0.964584 0.051189 0.523476 -0.166409
C111  C     C_R   0.995327 0.050116 0.458855 -0.187907
C112  C     C_3   0.318705 0.447608 0.290795 0.474017
C113  C     C_3   0.305751 0.433638 0.380952 0.574908
C114  C     C_3   0.816246 0.947607 0.289185 0.473569
C115  C     C_3   0.803240 0.933135 0.378985 0.575233
C116  C     C_R   0.523648 0.454136 0.287987 0.127777
C117  C     C_R   0.451611 0.454806 0.696924 0.197970
C118  C     C_R   0.022637 0.954179 0.287456 0.129227
C119  C     C_R   0.185641 0.138770 0.998881 0.058875
C120  C     C_R   0.951527 0.954950 0.696659 0.197918
C121  C     C_R   0.249300 0.544733 0.697537 -0.208352
C122  C     C_R   0.763020 0.546760 0.287827 -0.213752
C123  C     C_R   0.749192 0.044725 0.697610 -0.206250
C124  C     C_R   0.262744 0.046750 0.288386 -0.215465
C125  C     C_R   0.525332 0.546189 0.287714 -0.244020
C126  C     C_R   0.445495 0.545136 0.696891 -0.212787
C127  C     C_R   0.024201 0.046186 0.287080 -0.243253
C128  C     C_R   0.945335 0.045261 0.696919 -0.231250
C129  C     C_R   0.244314 0.452658 0.699359 0.512114
C130  C     C_R   0.515637 0.501076 0.333983 0.028370
C131  C     C_R   0.764849 0.454996 0.288062 0.527806
C132  C     C_R   0.744188 0.952636 0.699516 0.511593
C133  C     C_R   0.264636 0.954996 0.288500 0.528269
C134  C     C_R   0.312528 0.627104 0.908534 -0.139367
C135  C     C_R   0.687387 0.627900 0.091216 -0.122420
C136  C     C_R   0.812614 0.127220 0.908532 -0.148319
C137  C     C_R   0.188013 0.126937 0.090722 -0.112907
C138  C     C_R   0.440634 0.347738 0.089621 -0.165271
C139  C     C_R   0.558415 0.346631 0.911231 -0.170102
C140  C     C_R   0.941109 0.847529 0.089493 -0.163226
H1    H     H_    0.323283 0.332315 0.828123 0.120618
H2    H     H_    0.863804 0.668752 0.172593 0.119826
H3    H     H_    0.834160 0.046555 0.196761 0.105275
H4    H     H_    0.670500 0.075274 0.084102 0.260668
H5    H     H_    0.705395 0.053450 0.998148 0.218445
H6    H     H_    0.633494 0.008637 0.016572 0.253537
H7    H     H_    0.929407 0.848890 0.513025 0.125362
H8    H     H_    0.906134 0.849934 0.383040 0.099815
H9    H     H_    0.790514 0.773524 0.319686 0.263266
H10   H     H_    0.905625 0.755339 0.437619 0.205526
H11   H     H_    0.813014 0.771609 0.452405 0.259626
H12   H     H_    0.356462 0.399745 0.203908 0.146209
H13   H     H_    0.632876 0.160686 0.839489 0.127382
H14   H     H_    0.224045 0.339414 0.110641 0.231815
H15   H     H_    0.178427 0.408352 0.077222 0.249737
H16   H     H_    0.179226 0.369841 0.179959 0.274018
H17   H     H_    0.239062 0.507462 0.376284 0.181229
H18   H     H_    0.088989 0.470902 0.309131 0.233811
H19   H     H_    0.129079 0.402205 0.315101 0.266534
H20   H     H_    0.114508 0.450101 0.214590 0.265540
H21   H     H_    0.853733 0.900748 0.201097 0.146403
H22   H     H_    0.721472 0.840515 0.106379 0.231866
H23   H     H_    0.675593 0.909430 0.075554 0.249918
H24   H     H_    0.362228 0.169084 0.172812 0.119276
H25   H     H_    0.677154 0.869437 0.177352 0.274758
H26   H     H_    0.735208 0.006424 0.374219 0.182108
H27   H     H_    0.585759 0.968782 0.307040 0.233709
H28   H     H_    0.626909 0.900475 0.312377 0.266269
H29   H     H_    0.611579 0.948976 0.212297 0.265455
H30   H     H_    0.590335 0.381092 0.309671 0.167181
H31   H     H_    0.561545 0.400356 0.480309 0.259953
H32   H     H_    0.662349 0.432274 0.495314 0.254653
H33   H     H_    0.645882 0.358491 0.483059 0.247203
H34   H     H_    0.518881 0.382189 0.718357 0.158544
H35   H     H_    0.543373 0.237372 0.839138 0.121691
H36   H     H_    0.386537 0.322956 0.633347 0.251589
H37   H     H_    0.311039 0.381273 0.570079 0.290287
H38   H     H_    0.369491 0.369200 0.713913 0.238124
H39   H     H_    0.089274 0.881091 0.309745 0.167136
H40   H     H_    0.059548 0.900645 0.479522 0.259872
H41   H     H_    0.160618 0.932401 0.494928 0.254283
H42   H     H_    0.144015 0.858628 0.482871 0.247400
H43   H     H_    0.017927 0.882057 0.717508 0.158933
H44   H     H_    0.884969 0.823360 0.631528 0.252047
H45   H     H_    0.810103 0.882020 0.569037 0.289795
H46   H     H_    0.447344 0.247368 0.174437 0.124275
H47   H     H_    0.868536 0.869469 0.712752 0.237825
H48   H     H_    0.216119 0.334977 0.631644 0.130398
H49   H     H_    0.173418 0.391649 0.540035 0.093199
H50   H     H_    0.020213 0.384650 0.518532 0.246668
H51   H     H_    0.049475 0.321779 0.481138 0.229867
H52   H     H_    0.065181 0.327109 0.609828 0.255827
H53   H     H_    0.748446 0.412655 0.422350 0.103429
H54   H     H_    0.872905 0.408874 0.487727 0.103994
H55   H     H_    0.860384 0.310385 0.443205 0.268614
H56   H     H_    0.808057 0.324493 0.513920 0.221573
H57   H     H_    0.045274 0.739494 0.834625 0.120254
H58   H     H_    0.733553 0.312661 0.368607 0.241863
H59   H     H_    0.715553 0.834943 0.631822 0.129559
H60   H     H_    0.672637 0.891560 0.540169 0.093059
H61   H     H_    0.519781 0.884750 0.519444 0.247182
H62   H     H_    0.548723 0.821711 0.482173 0.229967
H63   H     H_    0.564889 0.827364 0.611098 0.258282
H64   H     H_    0.247687 0.913411 0.422964 0.102827
H65   H     H_    0.372198 0.909258 0.488552 0.103702
H66   H     H_    0.358650 0.810640 0.443880 0.268998
H67   H     H_    0.307545 0.825385 0.515783 0.222248
H68   H     H_    0.951632 0.745651 0.172970 0.123969
H69   H     H_    0.231926 0.813392 0.370564 0.240045
H70   H     H_    0.822727 0.312953 0.170746 0.191778
H71   H     H_    0.193343 0.285865 0.780703 0.203603
H72   H     H_    0.319464 0.806920 0.186329 0.194758
H73   H     H_    0.677753 0.334111 0.172700 0.155244
H74   H     H_    0.691759 0.790847 0.787074 0.206665
H75   H     H_    0.811928 0.276761 0.269212 0.216853
H76   H     H_    0.247989 0.239517 0.735328 0.197839
H77   H     H_    0.296490 0.767441 0.271633 0.210232
H78   H     H_    0.733686 0.742513 0.729743 0.199133
H79   H     H_    0.497899 0.584163 0.586582 0.144841
H80   H     H_    0.545636 0.582530 0.469373 0.117342
H81   H     H_    0.983729 0.087162 0.574819 0.139635
H82   H     H_    0.038011 0.084179 0.464293 0.121914
H83   H     H_    0.427799 0.629558 0.173042 0.116744
H84   H     H_    0.824643 0.832133 0.828158 0.120635
H85   H     H_    0.574325 0.622721 0.825844 0.151536
H86   H     H_    0.928672 0.130456 0.173208 0.106382
H87   H     H_    0.072900 0.122792 0.825505 0.166034
H88   H     H_    0.241778 0.586766 0.670735 0.118705
H89   H     H_    0.780243 0.589223 0.314570 0.129418
H90   H     H_    0.741597 0.086761 0.670798 0.118227
H91   H     H_    0.279778 0.089218 0.315215 0.129773
H92   H     H_    0.535134 0.588536 0.314247 0.117326
H93   H     H_    0.427144 0.587390 0.670840 0.128545
H94   H     H_    0.033676 0.088526 0.313531 0.116292
H95   H     H_    0.176387 0.833920 0.172255 0.155499
H96   H     H_    0.925880 0.087436 0.671005 0.135849
H97   H     H_    0.255131 0.633502 0.824454 0.104558
H98   H     H_    0.743272 0.637490 0.174464 0.093847
H99   H     H_    0.755202 0.133896 0.824545 0.107028
H100  H     H_    0.244379 0.135962 0.173991 0.090231
H101  H     H_    0.484895 0.333015 0.171372 0.095875
H102  H     H_    0.513411 0.329226 0.831183 0.123667
H103  H     H_    0.985216 0.832756 0.171230 0.095629
H104  H     H_    0.012405 0.829440 0.830851 0.122120
H105  H     H_    0.933632 0.576259 0.342669 0.128717
H106  H     H_    0.953836 0.475400 0.478402 0.131452
H107  H     H_    0.101121 0.587478 0.514219 0.125727
H108  H     H_    0.433178 0.076214 0.343299 0.128833
H109  H     H_    0.600790 0.087466 0.514610 0.125542
H110  H     H_    0.430641 0.813730 0.160955 0.112236
H111  H     H_    0.343768 0.769962 0.047762 0.099346
H112  H     H_    0.470294 0.725653 0.046998 0.261863
H113  H     H_    0.471836 0.799546 0.034314 0.212139
H114  H     H_    0.557531 0.767581 0.162660 0.267134
H115  H     H_    0.572884 0.803400 0.798061 0.117370
H116  H     H_    0.654978 0.767382 0.923569 0.100198
H117  H     H_    0.082488 0.461884 0.484052 0.148606
H118  H     H_    0.522952 0.726223 0.917139 0.262857
H119  H     H_    0.515521 0.800461 0.910338 0.215881
H120  H     H_    0.439725 0.759312 0.788675 0.261783
H121  H     H_    0.925742 0.317861 0.131037 0.110387
H122  H     H_    0.835969 0.271309 0.027248 0.098261
H123  H     H_    0.956449 0.225153 0.016457 0.262237
H124  H     H_    0.951893 0.298200 0.991980 0.208433
H125  H     H_    0.046065 0.270883 0.121544 0.264860
H126  H     H_    0.067676 0.293093 0.774653 0.114507
H127  H     H_    0.135551 0.256461 0.902466 0.101180
H128  H     H_    0.453542 0.975541 0.479527 0.131521
H129  H     H_    0.989223 0.214437 0.861255 0.259819
H130  H     H_    0.979983 0.288423 0.851659 0.216198
H131  H     H_    0.922018 0.246685 0.729380 0.261044
H132  H     H_    0.458670 0.664035 0.333791 0.167485
H133  H     H_    0.370837 0.641195 0.404234 0.268294
H134  H     H_    0.304341 0.618163 0.264571 0.270055
H135  H     H_    0.273812 0.680824 0.301070 0.262452
H136  H     H_    0.587323 0.674253 0.626993 0.176895
H137  H     H_    0.673508 0.594700 0.651349 0.263107
H138  H     H_    0.731431 0.597904 0.795052 0.269345
H139  H     H_    0.581924 0.961869 0.484490 0.148441
H140  H     H_    0.761772 0.646916 0.729505 0.264269
H141  H     H_    0.977949 0.177182 0.332010 0.170082
H142  H     H_    0.900697 0.156480 0.416943 0.267790
H143  H     H_    0.833726 0.125613 0.282714 0.266326
H144  H     H_    0.796046 0.189004 0.308684 0.267243
H145  H     H_    0.097627 0.159098 0.626609 0.175274
H146  H     H_    0.180102 0.075005 0.673273 0.263423
H147  H     H_    0.138534 0.077453 0.757127 0.258149
H148  H     H_    0.258875 0.096811 0.812005 0.266022
H149  H     H_    0.306234 0.480403 0.123802 0.095048
H150  H     H_    0.134492 0.663011 0.835400 0.125354
H151  H     H_    0.336146 0.545289 0.194681 0.107644
H152  H     H_    0.171280 0.573360 0.081622 0.259512
H153  H     H_    0.206777 0.551071 0.996503 0.220019
H154  H     H_    0.135521 0.506293 0.016032 0.254278
H155  H     H_    0.430703 0.348536 0.515087 0.125293
H156  H     H_    0.408216 0.350125 0.385753 0.097977
H157  H     H_    0.290982 0.274358 0.320043 0.263632
H158  H     H_    0.405544 0.255345 0.437942 0.204616
H159  H     H_    0.312856 0.271927 0.452421 0.259772
H160  H     H_    0.804456 0.982249 0.123571 0.092361
N1    N     N_R   0.395410 0.396350 0.944340 -0.043305
N2    N     N_R   0.474920 0.471030 0.794350 -0.073135
N3    N     N_R   0.025080 0.971030 0.205650 -0.081023
N4    N     N_R   0.974920 0.971030 0.794350 -0.071986
N5    N     N_R   0.320260 0.527820 0.794570 -0.062514
N6    N     N_R   0.679740 0.527820 0.205430 -0.061464
N7    N     N_R   0.820260 0.027820 0.794570 -0.061712
N8    N     N_R   0.179740 0.027820 0.205430 -0.061871
N9    N     N_R   0.524590 0.527840 0.205200 -0.047354
N10   N     N_R   0.475410 0.527840 0.794800 -0.052834
N11   N     N_R   0.024590 0.027840 0.205200 -0.047642
N12   N     N_R   0.604590 0.396350 0.055660 -0.044204
N13   N     N_R   0.975410 0.027840 0.794800 -0.051275
N14   N     N_R   0.320750 0.471000 0.795020 -0.086031
N15   N     N_R   0.679250 0.471000 0.204980 -0.094036
N16   N     N_R   0.820750 0.971000 0.795020 -0.085634
N17   N     N_R   0.179250 0.971000 0.204980 -0.093731
N18   N     N_R   0.393620 0.602490 0.942710 -0.041895
N19   N     N_R   0.606380 0.602490 0.057290 -0.040541
N20   N     N_R   0.893620 0.102490 0.942710 -0.042772
N21   N     N_R   0.106380 0.102490 0.057290 -0.038352
N22   N     N_R   0.451720 0.396350 0.057510 -0.050900
N23   N     N_R   0.895410 0.896350 0.944340 -0.042859
N24   N     N_R   0.548280 0.396350 0.942490 -0.042461
N25   N     N_R   0.951720 0.896350 0.057510 -0.050898
N26   N     N_R   0.048280 0.896350 0.942490 -0.042474
N27   N     N_2   0.397457 0.684831 0.305472 -0.113369
N28   N     N_2   0.631441 0.660128 0.705532 -0.119151
N29   N     N_2   0.914836 0.195550 0.304074 -0.114560
N30   N     N_2   0.155514 0.154552 0.705839 -0.115571
N31   N     N_2   0.311412 0.399926 0.226698 -0.125138
N32   N     N_2   0.232330 0.465156 0.375640 -0.109676
N33   N     N_2   0.808953 0.900326 0.224278 -0.124203
N34   N     N_R   0.104590 0.896350 0.055660 -0.043583
N35   N     N_2   0.729184 0.964066 0.373445 -0.109432
N36   N     N_2   0.556804 0.401583 0.337491 -0.120241
N37   N     N_2   0.453966 0.399950 0.668060 -0.116540
N38   N     N_2   0.055377 0.901617 0.337056 -0.119994
N39   N     N_2   0.953257 0.900097 0.667227 -0.116960
N40   N     N_R   0.449930 0.602500 0.055880 -0.046599
N41   N     N_R   0.550070 0.602500 0.944120 -0.050594
N42   N     N_R   0.949930 0.102500 0.055880 -0.045608
N43   N     N_R   0.050070 0.102500 0.944120 -0.049438
N44   N     N_R   0.525080 0.471030 0.205650 -0.080953
Ni1   Ni    Ni4+2 0.435420 0.434270 0.870230 0.205015
Ni2   Ni    Ni4+2 0.564580 0.434270 0.129770 0.202615
Ni3   Ni    Ni4+2 0.935420 0.934270 0.870230 0.205584
Ni4   Ni    Ni4+2 0.064580 0.934270 0.129770 0.203206
Ni5   Ni    Ni4+2 0.563430 0.564580 0.128740 0.212256
Ni6   Ni    Ni4+2 0.436570 0.564580 0.871260 0.204837
Ni7   Ni    Ni4+2 0.063430 0.064580 0.128740 0.213962
Ni8   Ni    Ni4+2 0.936570 0.064580 0.871260 0.200233
O1    O     O_3   0.436676 0.731325 0.199383 -0.655938
O2    O     O_3   0.790176 0.400924 0.318835 -0.657879
O3    O     O_3   0.697166 0.905107 0.694223 -0.646144
O4    O     O_3   0.289560 0.900935 0.319730 -0.657792
O5    O     O_3   0.573695 0.718738 0.779502 -0.656592
O6    O     O_3   0.938675 0.236924 0.180360 -0.652564
O7    O     O_3   0.074783 0.208576 0.758414 -0.661525
O8    O     O_3   0.261761 0.492794 0.226642 -0.640491
O9    O     O_3   0.295566 0.375926 0.392782 -0.633879
O10   O     O_3   0.759146 0.992928 0.225819 -0.640295
O11   O     O_3   0.793663 0.875299 0.390508 -0.634291
O12   O     O_3   0.197224 0.405087 0.693732 -0.645733

loop_
_geom_bond_atom_site_label_1
_geom_bond_atom_site_label_2
_ccdc_geom_bond_type
C128  H96   S    
C99   C103  A    
C105  C110  A    
C8    H111  S    
C87   C91   S    
C125  H92   S    
C120  N39   S    
C117  N37   S    
C73   H46   S    
C129  N14   A    
C131  O2    S    
C7    C79   S    
C129  O12   S    
C32   H23   S    
C100  C104  A    
N8    Ni7   S    
C20   H148  S    
N20   N42   A    
C139  H102  S    
C110  C111  A    
C41   H53   S    
C86   C134  A    
C10   O5    S    
C45   O4    S    
C46   C55   S    
C44   H63   S    
N21   N43   A    
N5    Ni6   S    
N1    Ni1   S    
C81   C86   A    
N17   Ni4   S    
N12   Ni2   S    
C32   N33   S    
C21   C22   S    
C52   H108  S    
C2    C117  A    
C16   H129  S    
C45   C47   S    
C24   C120  A    
C10   H115  S    
C42   H58   S    
N11   Ni7   S    
C71   C73   A    
C69   H2    S    
C49   C124  A    
N5    N14   A    
C11   H119  S    
C51   H107  S    
C43   C44   S    
C4    C78   S    
C102  C114  S    
C6    C80   S    
C40   H52   S    
C84   N43   A    
C27   H5    S    
C37   H41   S    
N43   Ni8   S    
C92   C94   S    
N24   Ni1   S    
C12   H122  S    
C14   H124  S    
C107  H79   S    
C60   C65   A    
C74   C79   A    
C138  N22   A    
C101  C115  S    
C33   H28   S    
C28   O11   S    
C125  N9    A    
C98   O7    S    
C16   H131  S    
N3    N11   A    
C37   H40   S    
C49   C133  A    
C28   H7    S    
C121  N5    A    
C34   N36   S    
C93   H74   S    
C21   O8    S    
C59   C63   A    
C9    H113  S    
C13   C106  S    
C17   H133  S    
C85   C90   S    
C115  N35   S    
C19   H143  S    
C15   H127  S    
N34   Ni4   S    
C132  N16   A    
C133  N17   A    
C109  H80   S    
C66   C70   A    
C84   C119  A    
C54   H109  S    
C91   C98   S    
C42   H55   S    
N10   Ni6   S    
C29   H9    S    
C13   C127  A    
C60   C95   S    
C30   H14   S    
C116  C130  A    
C139  N24   A    
C46   C122  A    
C103  C107  A    
C110  H81   S    
C111  H82   S    
C34   H31   S    
C76   H68   S    
C78   C87   A    
C8    O1    S    
N26   N34   A    
C114  N33   S    
C15   H126  S    
C13   C118  A    
C61   C96   S    
C20   N30   S    
C8    H110  S    
C27   H6    S    
C39   H49   S    
C137  N21   A    
C37   N38   S    
C68   C74   A    
C128  N13   A    
C49   C57   S    
C69   C76   A    
C72   H35   S    
C126  H93   S    
N4    Ni3   S    
C32   H22   S    
C117  N2    A    
N7    Ni8   S    
C12   H121  S    
C77   C85   A    
C93   C95   S    
H17   N32   S    
N19   N41   A    
C113  O9    S    
C30   N31   S    
N2    N10   A    
C92   H77   S    
C17   H135  S    
C5    C139  A    
C106  C111  A    
C75   N34   A    
H26   N35   S    
N9    Ni5   S    
C31   H18   S    
C36   H38   S    
C91   H71   S    
C52   C57   D    
C39   C40   S    
C98   N30   S    
N23   N25   A    
N15   Ni2   S    
C25   H158  S    
C29   H11   S    
C18   H137  S    
N41   Ni6   S    
C58   H139  S    
C138  H101  S    
C39   H48   S    
C43   O3    S    
C47   H69   S    
C92   H72   S    
C97   C135  A    
C26   H3    S    
N16   Ni3   S    
C122  H89   S    
C63   C68   A    
C53   H73   S    
C35   C56   S    
C48   C132  A    
C76   C80   A    
C12   C14   S    
C16   H130  S    
N6    Ni5   S    
C90   C96   S    
C17   N27   S    
C116  N44   A    
C22   H153  S    
C135  N19   A    
C123  H90   S    
C136  N20   A    
C30   H16   S    
C118  N3    A    
N9    N44   A    
C3    H104  S    
C89   C93   S    
C126  N10   A    
C124  N8    A    
C10   C11   S    
C64   N23   A    
C19   N29   S    
C94   N27   S    
C25   H157  S    
N1    N22   A    
C122  N6    A    
C94   O1    S    
C84   H87   S    
C67   C119  S    
C83   H86   S    
C23   O9    S    
C12   O6    S    
C101  C102  A    
C68   H150  S    
C70   H13   S    
C41   C42   S    
C56   H117  S    
C112  O8    S    
C118  N38   S    
C33   H29   S    
C48   C123  A    
N4    N13   A    
N2    Ni1   S    
H21   N33   S    
C26   C27   S    
C10   H116  S    
N6    N15   A    
C28   C29   S    
C3    C7    A    
N8    N17   A    
C81   N40   A    
C83   C108  A    
C64   H84   S    
C6    C64   A    
C80   C89   A    
C79   C88   A    
C112  N31   S    
N26   Ni3   S    
C57   H128  S    
C55   H106  S    
C43   H60   S    
C59   C94   S    
N25   Ni4   S    
C31   H20   S    
C14   H125  S    
C96   N29   S    
C104  C130  S    
C32   H25   S    
C107  C109  A    
C33   H27   S    
H132  N27   S    
C23   H155  S    
C90   H75   S    
C28   H8    S    
C71   H24   S    
C35   C121  A    
C9    H112  S    
N20   Ni8   S    
C113  N32   S    
C41   O2    S    
H145  N30   S    
N12   N24   A    
C20   H147  S    
C41   H54   S    
C96   O6    S    
C38   N39   S    
C25   H159  S    
C27   H4    S    
C26   H160  S    
C42   H56   S    
C18   H140  S    
C30   H15   S    
C36   H36   S    
C63   C86   S    
C82   C97   A    
C21   H149  S    
C22   H154  S    
C34   H32   S    
C44   H62   S    
N18   N40   A    
C45   H65   S    
C47   H66   S    
C66   C108  S    
C99   C113  S    
C48   C58   S    
H34   N37   S    
C62   C87   A    
C135  H98   S    
C140  H103  S    
C11   H120  S    
C34   H33   S    
C40   H51   S    
C2    C103  S    
C45   H64   S    
C65   C69   A    
C37   H42   S    
C67   C71   A    
N40   Ni5   S    
C6    C140  A    
N14   Ni1   S    
C124  H91   S    
C1    H1    S    
C14   H123  S    
C4    C138  A    
N21   Ni7   S    
C3    N26   A    
C136  H99   S    
H136  N28   S    
C120  N4    A    
C15   C16   S    
C95   N28   S    
H12   N31   S    
C9    H114  S    
C36   N37   S    
C134  N18   A    
C17   H134  S    
C38   H44   S    
N22   Ni2   S    
C60   C89   A    
C19   H144  S    
C91   H76   S    
C121  H88   S    
C62   C67   A    
C5    C53   A    
C108  C136  A    
C104  C109  A    
C132  O3    S    
C38   H47   S    
C123  N7    A    
C51   C56   D    
C53   N12   A    
C59   C88   A    
C29   H10   S    
C18   H138  S    
C61   C66   A    
C88   C92   S    
C8    C9    S    
N13   Ni8   S    
C131  N15   A    
C73   C78   A    
N3    Ni4   S    
H30   N36   S    
C21   H151  S    
C50   H105  S    
C22   H152  S    
C35   C129  A    
C114  O10   S    
C62   C98   S    
C1    N1    A    
C31   N32   S    
C116  N36   S    
C125  C130  A    
N23   Ni3   S    
C112  C113  S    
C52   C54   S    
C50   C51   S    
C93   H78   S    
C101  C105  A    
C81   H83   S    
C82   H85   S    
C119  C137  A    
C11   H118  S    
C83   N42   A    
C46   C131  A    
C90   H70   S    
C7    C75   A    
C15   O7    S    
C95   O5    S    
N42   Ni7   S    
C72   C77   A    
C99   C100  A    
C74   H57   S    
C140  N25   A    
C26   O10   S    
C20   H146  S    
C75   H95   S    
C61   C85   A    
C2    C126  A    
N44   Ni2   S    
N18   Ni6   S    
C44   H61   S    
C82   N41   A    
C24   C128  A    
C54   C58   D    
C19   H142  S    
C127  H94   S    
C36   H37   S    
C114  C115  S    
C43   H59   S    
C100  C112  S    
N7    N16   A    
C38   H45   S    
C127  N11   A    
N19   Ni5   S    
C50   C55   D    
C133  O4    S    
C47   H67   S    
C1    C4    A    
C137  H100  S    
C115  O11   S    
C65   C97   S    
H39   N38   S    
C134  H97   S    
C102  C106  A    
H141  N29   S    
C23   C25   S    
C18   N28   S    
C39   O12   S    
H43   N39   S    
C40   H50   S    
C33   N35   S    
C70   C72   A    
C24   C105  S    
C5    C77   S    
C31   H19   S    
C23   H156  S    
