data_mof_unit_54408.cif
_audit_creation_date              2012-12-11T14:40:27-0500
_audit_creation_method            fapswitch 2.2
_symmetry_space_group_name_H-M    P1
_symmetry_Int_Tables_number       1
_space_group_crystal_system       triclinic
_cell_length_a                    19.452164
_cell_length_b                    11.016845
_cell_length_c                    19.503346
_cell_angle_alpha                 89.697025
_cell_angle_beta                  97.501342
_cell_angle_gamma                 89.966028
_cell_volume                      4143.7646223

loop_
_atom_site_label
_atom_site_type_symbol
_atom_type_description
_atom_site_fract_x
_atom_site_fract_y
_atom_site_fract_z
_atom_type_partial_charge
C1    C     C_R   0.726569 0.948746 0.359623 0.557164
C2    C     C_3   0.258080 0.386392 0.564658 0.044852
C3    C     C_3   0.924199 0.982632 0.502435 -0.077769
C4    C     C_2   0.877376 0.338278 0.468849 0.600442
C5    C     C_2   0.153547 0.530288 0.565248 0.553125
C6    C     C_2   0.377376 0.838278 0.468849 0.600444
C7    C     C_2   0.653545 0.030285 0.565247 0.553122
C8    C     C_3   0.235446 0.855959 0.439416 0.022435
C9    C     C_3   0.758080 0.886393 0.564658 0.044853
C10   C     C_3   0.715603 0.477795 0.467341 0.274737
C11   C     C_3   0.314368 0.430145 0.522853 0.263683
C12   C     C_3   0.215603 0.977795 0.467341 0.274738
C13   C     C_3   0.814367 0.930147 0.522853 0.263681
C14   C     C_3   0.786275 0.482502 0.513267 -0.097925
C15   C     C_3   0.261524 0.518004 0.484220 -0.148437
C16   C     C_3   0.286275 0.982501 0.513267 -0.097925
C17   C     C_R   0.273070 0.950199 0.640480 0.572176
C18   C     C_3   0.761522 0.018005 0.484220 -0.148437
C19   C     C_3   0.805375 0.358865 0.486063 0.035367
C20   C     C_3   0.204811 0.469643 0.525852 0.004558
C21   C     C_3   0.305375 0.858865 0.486063 0.035366
C22   C     C_3   0.704810 0.969643 0.525852 0.004558
C23   C     C_3   0.772488 0.291910 0.542980 -0.114875
C24   C     C_3   0.185137 0.369060 0.472946 -0.092191
C25   C     C_3   0.272488 0.791910 0.542980 -0.114876
C26   C     C_3   0.685136 0.869059 0.472946 -0.092189
C27   C     C_3   0.752990 0.414768 0.569930 0.003372
C28   C     C_R   0.226569 0.448746 0.359623 0.557164
C29   C     C_3   0.242428 0.415269 0.431581 -0.001511
C30   C     C_3   0.252989 0.914768 0.569930 0.003371
C31   C     C_3   0.742428 0.915270 0.431582 -0.001511
C32   C     C_3   0.526704 0.272334 0.976353 -0.107929
C33   C     C_3   0.468627 0.268056 0.023158 -0.110961
C34   C     C_3   0.026704 0.772334 0.976353 -0.107928
C35   C     C_3   0.968627 0.768056 0.023158 -0.110961
C36   C     C_3   0.567921 0.174490 0.021155 -0.109108
C37   C     C_3   0.432088 0.165310 0.979053 -0.112789
C38   C     C_3   0.067921 0.674490 0.021155 -0.109108
C39   C     C_R   0.773070 0.450199 0.640480 0.572177
C40   C     C_3   0.932088 0.665310 0.979053 -0.112789
C41   C     C_3   0.509409 0.170711 0.067256 0.054258
C42   C     C_3   0.490549 0.170067 0.932926 0.054366
C43   C     C_3   0.009409 0.670712 0.067256 0.054258
C44   C     C_3   0.990549 0.670067 0.932926 0.054366
C45   C     C_R   0.534766 0.180026 0.337518 0.534585
C46   C     C_R   0.462821 0.180705 0.660831 0.540992
C47   C     C_R   0.034766 0.680026 0.337518 0.534584
C48   C     C_R   0.962821 0.680705 0.660830 0.540994
C49   C     C_3   0.473456 0.067647 0.024297 -0.117149
C50   C     C_3   0.701199 0.290602 0.496120 -0.197629
C51   C     C_3   0.531240 0.071946 0.976637 -0.117619
C52   C     C_3   0.973456 0.567647 0.024297 -0.117149
C53   C     C_3   0.031240 0.571946 0.976637 -0.117619
C54   C     C_1   0.772827 0.450131 0.910317 -0.003664
C55   C     C_1   0.242833 0.411100 0.100060 -0.004650
C56   C     C_1   0.272827 0.950131 0.910317 -0.003663
C57   C     C_1   0.742833 0.911100 0.100060 -0.004650
C58   C     C_1   0.742993 0.387292 0.031523 -0.043530
C59   C     C_1   0.265696 0.361332 0.974073 -0.045530
C60   C     C_1   0.242993 0.887292 0.031523 -0.043530
C61   C     C_3   0.239186 0.283954 0.512525 -0.137599
C62   C     C_1   0.765696 0.861332 0.974073 -0.045530
C63   C     C_1   0.758057 0.420873 0.965807 -0.040664
C64   C     C_1   0.255294 0.385663 0.042937 -0.041837
C65   C     C_1   0.258057 0.920873 0.965807 -0.040663
C66   C     C_1   0.755293 0.885663 0.042937 -0.041837
C67   C     C_1   0.732561 0.356695 0.088289 -0.006463
C68   C     C_1   0.272063 0.340657 0.914605 -0.011818
C69   C     C_1   0.232561 0.856695 0.088289 -0.006463
C70   C     C_1   0.772063 0.840657 0.914605 -0.011818
C71   C     C_R   0.725820 0.314755 0.368331 0.562336
C72   C     C_3   0.201199 0.790602 0.496120 -0.197631
C73   C     C_R   0.262274 0.358166 0.636759 0.598582
C74   C     C_R   0.225820 0.814755 0.368331 0.562336
C75   C     C_R   0.762274 0.858167 0.636759 0.598579
C76   C     C_R   0.722766 0.951493 0.164338 0.543580
C77   C     C_R   0.291895 0.988182 0.845612 0.527602
C78   C     C_R   0.222766 0.451493 0.164338 0.543580
C79   C     C_R   0.791895 0.488182 0.845612 0.527602
C80   C     C_R   0.530163 0.178889 0.140925 0.540477
C81   C     C_R   0.469753 0.178518 0.859174 0.531365
C82   C     C_R   0.030163 0.678889 0.140925 0.540477
C83   C     C_3   0.739186 0.783954 0.512525 -0.137597
C84   C     C_R   0.969753 0.678518 0.859174 0.531366
C85   C     C_R   0.723382 0.315868 0.155796 0.553121
C86   C     C_R   0.277786 0.311295 0.844009 0.536278
C87   C     C_R   0.223382 0.815868 0.155796 0.553121
C88   C     C_R   0.777786 0.811295 0.844009 0.536277
C89   C     C_1   0.480288 0.174579 0.592163 0.041365
C90   C     C_1   0.510486 0.172343 0.403314 -0.004568
C91   C     C_1   0.980287 0.674579 0.592162 0.041364
C92   C     C_1   0.010485 0.672343 0.403314 -0.004567
C93   C     C_1   0.498022 0.170305 0.462007 -0.019789
C94   C     C_3   0.735446 0.355959 0.439416 0.022433
C95   C     C_1   0.488557 0.171854 0.532213 0.016272
C96   C     C_1   0.998019 0.670305 0.462006 -0.019787
C97   C     C_1   0.988555 0.671854 0.532212 0.016270
C98   C     C_3   0.681623 0.414700 0.525239 -0.132861
C99   C     C_3   0.296296 0.328461 0.469712 -0.129974
C100  C     C_3   0.181623 0.914700 0.525239 -0.132864
C101  C     C_3   0.796296 0.828462 0.469713 -0.129975
C102  C     C_3   0.617277 0.578318 0.417040 -0.102921
C103  C     C_3   0.424199 0.482630 0.502435 -0.077771
C104  C     C_3   0.117277 0.078319 0.417041 -0.102922
Cr1   Cr    Cr6+3 0.765830 0.160660 0.268180 1.029599
Cr2   Cr    Cr6+3 0.384070 0.324050 0.751550 1.071766
Cr3   Cr    Cr6+3 0.115930 0.824050 0.248450 1.031668
Cr4   Cr    Cr6+3 0.884070 0.824050 0.751550 1.071765
Cr5   Cr    Cr6+3 0.234170 0.160660 0.731820 1.044354
Cr6   Cr    Cr6+3 0.265830 0.660660 0.268180 1.029599
Cr7   Cr    Cr6+3 0.734170 0.660660 0.731820 1.044354
Cr8   Cr    Cr6+3 0.612110 0.009150 0.248770 1.026832
Cr9   Cr    Cr6+3 0.387890 0.009150 0.751230 1.056271
Cr10  Cr    Cr6+3 0.112110 0.509150 0.248770 1.026832
Cr11  Cr    Cr6+3 0.887890 0.509150 0.751230 1.056272
Cr12  Cr    Cr6+3 0.615930 0.324050 0.248450 1.031667
H1    H     H_    0.664007 0.215557 0.483614 0.131944
H2    H     H_    0.775385 0.107741 0.465372 0.123049
H3    H     H_    0.822187 0.560941 0.521700 0.111133
H4    H     H_    0.275387 0.607740 0.465373 0.123050
H5    H     H_    0.796081 0.216793 0.576281 0.202651
H6    H     H_    0.131672 0.343036 0.450978 0.163369
H7    H     H_    0.296081 0.716793 0.576281 0.202652
H8    H     H_    0.631672 0.843034 0.450977 0.163369
H9    H     H_    0.624193 0.177495 0.040330 0.103934
H10   H     H_    0.375891 0.160278 0.959943 0.091386
H11   H     H_    0.124193 0.677495 0.040330 0.103934
H12   H     H_    0.227519 0.192579 0.531057 0.164300
H13   H     H_    0.875891 0.660278 0.959943 0.091386
H14   H     H_    0.549404 0.355051 0.955587 0.135618
H15   H     H_    0.442259 0.347070 0.043399 0.132099
H16   H     H_    0.049405 0.855051 0.955587 0.135618
H17   H     H_    0.942259 0.847070 0.043399 0.132099
H18   H     H_    0.450983 0.985206 0.045579 0.129771
H19   H     H_    0.557368 0.993080 0.955984 0.130919
H20   H     H_    0.950983 0.485206 0.045579 0.129771
H21   H     H_    0.057368 0.493080 0.955984 0.130920
H22   H     H_    0.600046 0.610903 0.465892 0.105885
H23   H     H_    0.164007 0.715557 0.483613 0.131941
H24   H     H_    0.593520 0.488675 0.402475 0.139857
H25   H     H_    0.598212 0.644027 0.375596 0.149561
H26   H     H_    0.400704 0.546205 0.461449 0.151430
H27   H     H_    0.436290 0.395537 0.478514 0.090511
H28   H     H_    0.473861 0.522420 0.526525 0.165155
H29   H     H_    0.100047 0.110904 0.465893 0.105885
H30   H     H_    0.093520 0.988675 0.402475 0.139857
H31   H     H_    0.098212 0.144028 0.375596 0.149561
H32   H     H_    0.900704 0.046209 0.461451 0.151433
H33   H     H_    0.936286 0.895538 0.478513 0.090509
H34   H     H_    0.727520 0.692579 0.531057 0.164300
H35   H     H_    0.973862 0.022416 0.526524 0.165147
H36   H     H_    0.951301 0.386743 0.410600 0.335934
H37   H     H_    0.136063 0.652063 0.637815 0.337232
H38   H     H_    0.451301 0.886743 0.410599 0.335933
H39   H     H_    0.636062 0.152052 0.637820 0.337236
H40   H     H_    0.631616 0.436434 0.544067 0.114248
H41   H     H_    0.332429 0.270109 0.444952 0.130065
H42   H     H_    0.131616 0.936433 0.544067 0.114246
H43   H     H_    0.832430 0.770111 0.444953 0.130063
H44   H     H_    0.322187 0.060941 0.521700 0.111134
O1    O     O_R   0.783230 0.287800 0.346510 -0.476196
O2    O     O_R   0.454570 0.285140 0.836900 -0.520968
O3    O     O_R   0.045430 0.785140 0.163100 -0.520686
O4    O     O_R   0.954570 0.785140 0.836900 -0.520967
O5    O     O_R   0.677850 0.374730 0.185500 -0.475421
O6    O     O_R   0.322150 0.374730 0.814500 -0.478369
O7    O     O_R   0.177850 0.874730 0.185500 -0.475421
O8    O     O_R   0.822150 0.874730 0.814500 -0.478370
O9    O     O_3   0.664630 0.164620 0.255130 -0.302636
O10   O     O_3   0.335370 0.164620 0.744870 -0.315019
O11   O     O_3   0.164630 0.664620 0.255130 -0.302636
O12   O     O_R   0.216770 0.287800 0.653490 -0.511076
O13   O     O_3   0.835370 0.664620 0.744870 -0.315019
O14   O     O_R   0.760130 0.037060 0.338610 -0.533652
O15   O     O_R   0.239870 0.037060 0.661390 -0.512282
O16   O     O_R   0.260130 0.537060 0.338610 -0.533651
O17   O     O_R   0.739870 0.537060 0.661390 -0.512281
O18   O     O_R   0.666620 0.921370 0.332440 -0.507009
O19   O     O_R   0.333380 0.921370 0.667560 -0.486662
O20   O     O_R   0.166620 0.421370 0.332440 -0.507008
O21   O     O_R   0.833380 0.421370 0.667560 -0.486662
O22   O     O_R   0.557170 0.082420 0.312350 -0.489796
O23   O     O_R   0.283230 0.787800 0.346510 -0.476196
O24   O     O_R   0.442830 0.082420 0.687650 -0.482188
O25   O     O_R   0.057170 0.582420 0.312350 -0.489796
O26   O     O_R   0.942830 0.582420 0.687650 -0.482187
O27   O     O_R   0.548310 0.285980 0.316250 -0.538551
O28   O     O_R   0.451690 0.285980 0.683750 -0.486171
O29   O     O_R   0.048310 0.785980 0.316250 -0.538551
O30   O     O_R   0.951690 0.785980 0.683750 -0.486172
O31   O     O_R   0.680520 0.375500 0.327470 -0.456940
O32   O     O_R   0.319480 0.375500 0.672530 -0.451927
O33   O     O_R   0.180520 0.875500 0.327470 -0.456940
O34   O     O_R   0.716770 0.787800 0.653490 -0.511076
O35   O     O_R   0.819480 0.875500 0.672530 -0.451928
O36   O     O_R   0.780350 0.286970 0.193350 -0.489455
O37   O     O_R   0.219650 0.286970 0.806650 -0.494287
O38   O     O_R   0.280350 0.786970 0.193350 -0.489455
O39   O     O_R   0.719650 0.786970 0.806650 -0.494289
O40   O     O_R   0.757460 0.036290 0.196640 -0.513655
O41   O     O_R   0.242540 0.036290 0.803360 -0.503502
O42   O     O_R   0.257460 0.536290 0.196640 -0.513655
O43   O     O_R   0.742540 0.536290 0.803360 -0.503502
O44   O     O_R   0.663740 0.920540 0.179290 -0.498630
O45   O     O_R   0.554500 0.081650 0.170370 -0.498795
O46   O     O_R   0.336260 0.920540 0.820710 -0.488784
O47   O     O_R   0.163740 0.420540 0.179290 -0.498630
O48   O     O_R   0.836260 0.420540 0.820710 -0.488785
O49   O     O_3   0.690215 0.574344 0.423146 -0.546602
O50   O     O_3   0.381033 0.463826 0.554188 -0.525530
O51   O     O_3   0.190215 0.074344 0.423146 -0.546602
O52   O     O_3   0.881032 0.963830 0.554189 -0.525529
O53   O     O_2   0.915577 0.265790 0.502651 -0.531966
O54   O     O_R   0.901538 0.406831 0.416477 -0.663287
O55   O     O_2   0.093917 0.493484 0.558848 -0.510635
O56   O     O_R   0.445500 0.081650 0.829630 -0.514818
O57   O     O_R   0.175262 0.620345 0.613369 -0.710365
O58   O     O_2   0.415576 0.765788 0.502649 -0.531969
O59   O     O_R   0.401538 0.906831 0.416477 -0.663286
O60   O     O_2   0.593916 0.993475 0.558849 -0.510632
O61   O     O_R   0.675259 0.120345 0.613368 -0.710372
O62   O     O_R   0.054500 0.581650 0.170370 -0.498795
O63   O     O_R   0.945500 0.581650 0.829630 -0.514818
O64   O     O_R   0.545430 0.285140 0.163100 -0.520686

loop_
_geom_bond_atom_site_label_1
_geom_bond_atom_site_label_2
_ccdc_geom_bond_type
Cr1   O36   S    
C49   H18   S    
C27   C98   S    
C47   O29   A    
C16   C21   S    
C89   C95   T    
C16   H44   S    
C50   H1    S    
C68   C86   S    
C81   O2    A    
Cr5   O37   S    
C36   H9    S    
C86   O6    A    
Cr2   O32   S    
C57   C66   T    
C40   H13   S    
C70   C88   S    
C103  H28   S    
C35   H17   S    
C41   C80   S    
C32   H14   S    
C38   H11   S    
C23   H5    S    
C5    C20   S    
Cr3   O11   S    
C26   C31   S    
Cr5   O10   S    
Cr4   O4    S    
C104  H31   S    
C59   C64   S    
C24   C61   S    
Cr10  O25   S    
Cr1   O9    S    
C13   C18   S    
C26   C83   S    
C53   H21   S    
C32   C36   S    
C57   C76   S    
Cr11  O63   S    
C28   C29   S    
Cr8   O45   S    
C37   H10   S    
C11   O50   S    
C7    O61   S    
C43   C52   S    
C81   O56   A    
Cr6   O38   S    
C82   O3    A    
C10   C94   S    
C16   C30   S    
C56   C65   T    
C5    O55   D    
C30   C100  S    
C92   C96   T    
C37   C49   S    
C15   H4    S    
C62   C70   T    
C11   C99   S    
C34   C35   S    
C102  H22   S    
C46   O24   A    
C37   C42   S    
C10   C98   S    
C9    C13   S    
C78   O47   A    
C22   C26   S    
Cr7   O39   S    
C6    O58   D    
C4    C19   S    
C11   C15   S    
C44   C53   S    
C72   H23   S    
C87   O7    A    
C12   C16   S    
C27   C39   S    
C49   C51   S    
C48   C91   S    
C102  H25   S    
C23   C27   S    
C14   C27   S    
C47   O25   A    
C35   C43   S    
C18   H2    S    
C48   O30   A    
C69   C87   S    
Cr5   O12   S    
C42   C51   S    
C83   H34   S    
Cr6   O11   S    
C33   H15   S    
C80   O45   A    
Cr4   O8    S    
C74   O33   A    
C34   H16   S    
C3    H32   S    
C93   C95   S    
Cr7   O13   S    
Cr11  O48   S    
C96   C97   S    
C17   C30   S    
Cr2   O10   S    
C13   O52   S    
Cr4   O30   S    
C36   C41   S    
C61   C99   S    
C42   C81   S    
C26   H8    S    
C47   C92   S    
C2    C11   S    
C104  H29   S    
C103  O50   S    
C41   C49   S    
C39   O17   A    
C45   O22   A    
C15   C29   S    
C98   H40   S    
Cr1   O40   S    
C1    C31   S    
Cr10  O11   S    
Cr12  O27   S    
Cr3   O7    S    
C1    O14   A    
C3    H33   S    
C67   C85   S    
C62   C66   S    
C2    C20   S    
C58   C63   S    
C104  H30   S    
C4    O54   S    
C76   O40   A    
C50   C98   S    
Cr7   O43   S    
C71   C94   S    
C55   C78   S    
C29   C99   S    
C50   C94   S    
C23   C50   S    
Cr8   O22   S    
C74   O23   A    
C86   O37   A    
C88   O8    A    
C40   C52   S    
C6    C21   S    
H36   O54   S    
C33   C37   S    
C56   C77   S    
C12   C100  S    
C103  H27   S    
C15   C20   S    
C73   O12   A    
C76   O44   A    
Cr12  O64   S    
C19   C23   S    
C48   O26   A    
C46   C89   S    
C59   C68   T    
C80   O64   A    
C25   H7    S    
C1    O18   A    
C54   C63   T    
C10   O49   S    
Cr8   O9    S    
C8    C12   S    
Cr4   O13   S    
Cr3   O29   S    
C3    O52   S    
C8    C74   S    
C8    C21   S    
C34   C44   S    
C79   O48   A    
C85   O36   A    
C25   C72   S    
C102  H24   S    
Cr5   O15   S    
C91   C97   T    
Cr4   O35   S    
C24   C29   S    
C45   C90   S    
C28   O20   A    
C39   O21   A    
C2    C73   S    
C9    C83   S    
C7    O60   D    
C28   O16   A    
Cr9   O19   S    
Cr12  O31   S    
Cr3   O3    S    
C60   C65   S    
C79   O43   A    
Cr1   O14   S    
C99   H41   S    
C10   C14   S    
C52   H20   S    
Cr1   O1    S    
Cr12  O5    S    
H39   O61   S    
Cr8   O44   S    
C13   C101  S    
C103  H26   S    
C31   C101  S    
Cr3   O33   S    
C52   C53   S    
C88   O39   A    
C90   C93   T    
Cr8   O18   S    
C54   C79   S    
C72   C100  S    
C25   C30   S    
Cr11  O26   S    
C21   C25   S    
C32   C42   S    
C4    O53   D    
C71   O1    A    
C34   C38   S    
C8    C72   S    
H37   O57   S    
C14   C19   S    
C45   O27   A    
C78   O42   A    
C12   O51   S    
C44   C84   S    
C84   O63   A    
C77   O41   A    
Cr6   O23   S    
C2    C61   S    
C102  O49   S    
Cr9   O10   S    
C82   O62   A    
C55   C64   T    
Cr6   O16   S    
C7    C22   S    
C24   H6    S    
C3    H35   S    
C36   C51   S    
C87   O38   A    
Cr6   O42   S    
C33   C41   S    
Cr9   O46   S    
C18   C22   S    
C35   C40   S    
C85   O5    A    
C38   C43   S    
Cr11  O13   S    
C71   O31   A    
C77   O46   A    
C32   C33   S    
C17   O19   A    
C84   O4    A    
C38   C53   S    
C51   H19   S    
C60   C69   T    
Cr2   O6    S    
Cr5   O41   S    
Cr12  O9    S    
C61   H12   S    
Cr2   O2    S    
C9    C22   S    
Cr10  O20   S    
C73   O32   A    
Cr7   O34   S    
Cr2   O28   S    
C6    O59   S    
Cr9   O24   S    
C75   O34   A    
C100  H42   S    
C58   C67   T    
C40   C44   S    
Cr10  O47   S    
C101  H43   S    
C14   H3    S    
Cr11  O21   S    
Cr7   O17   S    
C43   C82   S    
C83   C101  S    
C5    O57   S    
C18   C31   S    
C9    C75   S    
C104  O51   S    
C46   O28   A    
H38   O59   S    
C19   C94   S    
C20   C24   S    
C17   O15   A    
Cr9   O56   S    
Cr10  O62   S    
C75   O35   A    
