data_mof_unit_68016.cif
_audit_creation_date              2013-03-05T15:40:29-0500
_audit_creation_method            fapswitch 2.2
_symmetry_space_group_name_H-M    P1
_symmetry_Int_Tables_number       1
_space_group_crystal_system       triclinic
_cell_length_a                    7.100347
_cell_length_b                    12.376352
_cell_length_c                    18.781639
_cell_angle_alpha                 89.999093
_cell_angle_beta                  92.712253
_cell_angle_gamma                 89.999733
_cell_volume                      1648.61382027

loop_
_atom_site_label
_atom_site_type_symbol
_atom_site_description
_atom_site_fract_x
_atom_site_fract_y
_atom_site_fract_z
_atom_type_partial_charge
O1    O     O_R   0.330540 0.606360 0.598870 -0.555369
O2    O     O_R   0.669460 0.106360 0.401130 -0.555299
O3    O     O_R   0.026770 0.620470 0.750430 -0.561178
O4    O     O_R   0.973230 0.120470 0.249570 -0.561187
O5    O     O_R   0.856460 0.393640 0.750930 -0.552454
O6    O     O_R   0.143540 0.893640 0.249070 -0.552449
C1    C     C_R   0.200490 0.647521 0.772128 0.687078
C2    C     C_R   0.799514 0.147481 0.227848 0.687166
O7    O     O_R   0.000920 0.620350 0.599420 -0.545728
O8    O     O_R   0.999080 0.120350 0.400580 -0.545861
O9    O     O_R   0.830430 0.393520 0.598850 -0.548148
O10   O     O_R   0.169570 0.893520 0.401150 -0.548224
C3    C     C_R   0.167510 0.644398 0.572947 0.699745
C4    C     C_R   0.832497 0.144378 0.427064 0.699877
O11   O     O_R   0.356570 0.606480 0.750960 -0.557157
O12   O     O_R   0.643430 0.106480 0.249040 -0.557144
O13   O     O_3   0.176990 0.425580 0.674890 -0.391544
O14   O     O_3   0.823010 0.925580 0.325110 -0.391515
V1    V     V_3+5 0.902170 0.513810 0.674910 1.350846
V2    V     V_3+5 0.097830 0.013810 0.325090 1.350709
O15   O     O_R   0.500800 0.379530 0.599380 -0.540456
O16   O     O_R   0.499200 0.879530 0.400620 -0.540414
C5    C     C_R   0.668353 0.355564 0.573736 0.719371
C6    C     C_R   0.331656 0.855604 0.426287 0.719293
O17   O     O_R   0.526650 0.379650 0.750390 -0.542582
O18   O     O_R   0.473350 0.879650 0.249610 -0.542581
C7    C     C_R   0.698570 0.362234 0.778048 0.687201
C8    C     C_R   0.301432 0.862252 0.221943 0.687186
V3    V     V_3+5 0.402160 0.486190 0.674900 1.354899
V4    V     V_3+5 0.597840 0.986190 0.325100 1.355025
O19   O     O_3   0.677210 0.574420 0.674910 -0.391453
O20   O     O_3   0.322790 0.074420 0.325090 -0.391464
C9    C     C_R   0.784153 0.099726 0.872122 0.069860
C10   C     C_R   0.215859 0.599759 0.127853 0.069822
H1    H     H_    0.771004 0.158390 0.764119 0.102296
H2    H     H_    0.229035 0.658407 0.235860 0.102297
H3    H     H_    0.836834 0.976572 0.988025 0.137099
H4    H     H_    0.163154 0.476618 0.011958 0.137105
C11   C     C_R   0.720054 0.283933 0.836816 -0.043083
C12   C     C_R   0.279949 0.783961 0.163166 -0.043080
C13   C     C_R   0.710172 0.327736 0.187215 0.076314
C14   C     C_R   0.289897 0.827786 0.812755 0.076217
C15   C     C_R   0.671101 0.401090 0.134265 -0.157786
C16   C     C_R   0.328937 0.901135 0.865711 -0.157766
C17   C     C_R   0.713358 0.380167 0.064534 0.045372
C18   C     C_R   0.286669 0.880207 0.935441 0.045388
C19   C     C_R   0.749112 0.271773 0.040665 0.001097
C20   C     C_R   0.250917 0.771813 0.959310 0.001046
C21   C     C_R   0.779101 0.190011 0.095382 -0.016110
C22   C     C_R   0.220926 0.690054 0.904591 -0.016102
C23   C     C_R   0.751782 0.241314 0.965618 0.069336
C24   C     C_R   0.248239 0.741352 0.034359 0.069353
C25   C     C_R   0.785675 0.131893 0.946242 0.079222
C26   C     C_R   0.214336 0.631932 0.053733 0.079248
C27   C     C_R   0.815889 0.057879 0.000723 -0.253073
C28   C     C_R   0.184114 0.557921 0.999254 -0.253067
C29   C     C_R   0.817158 0.080840 0.073292 0.061928
C30   C     C_R   0.182869 0.580879 0.926683 0.061945
C31   C     C_R   0.710993 0.314004 0.908444 -0.273779
C32   C     C_R   0.289023 0.814038 0.091537 -0.273818
C33   C     C_R   0.760705 0.179120 0.819931 -0.221259
C34   C     C_R   0.239309 0.679146 0.180047 -0.221226
C35   C     C_R   0.770559 0.222762 0.168999 -0.102672
C36   C     C_R   0.229464 0.722811 0.830970 -0.102601
C37   C     C_2   0.824563 0.238977 0.479539 -0.130334
C38   C     C_2   0.175460 0.739022 0.520488 -0.130248
C39   C     C_2   0.679594 0.256984 0.526305 -0.067613
C40   C     C_2   0.320446 0.757044 0.473732 -0.067604
C41   C     C_3   0.530644 0.173409 0.543091 -0.344686
C42   C     C_3   0.531822 0.152805 0.625024 -0.295639
C43   C     C_3   0.336262 0.153595 0.654971 -0.734538
H5    H     H_    0.348801 0.152313 0.714132 0.202617
H6    H     H_    0.257873 0.081697 0.636768 0.220154
H7    H     H_    0.256531 0.226784 0.637755 0.252657
H8    H     H_    0.604994 0.077893 0.637765 0.179226
H9    H     H_    0.618263 0.210717 0.657159 0.191489
H10   H     H_    0.391456 0.205177 0.523165 0.177869
H11   H     H_    0.549111 0.095244 0.516030 0.164211
C44   C     C_3   0.469489 0.673518 0.456962 -0.344632
C45   C     C_3   0.468155 0.652827 0.375042 -0.295432
C46   C     C_3   0.663658 0.653477 0.345047 -0.734677
H12   H     H_    0.651013 0.652156 0.285886 0.202625
H13   H     H_    0.741956 0.581549 0.363256 0.220092
H14   H     H_    0.743532 0.726643 0.362213 0.252586
H15   H     H_    0.394810 0.577951 0.362380 0.179140
H16   H     H_    0.381765 0.710742 0.342885 0.191510
H17   H     H_    0.608662 0.705384 0.476826 0.177825
H18   H     H_    0.451257 0.595371 0.484071 0.164254
C47   C     C_3   0.807925 0.988685 0.837342 -0.385489
C48   C     C_3   0.796176 0.882275 0.877759 -0.349250
C49   C     C_3   0.780460 0.787033 0.826509 -0.701089
H19   H     H_    0.638072 0.752065 0.827282 0.223880
H20   H     H_    0.818697 0.808063 0.771589 0.232448
H21   H     H_    0.876062 0.722667 0.845092 0.225140
H22   H     H_    0.925221 0.868987 0.910975 0.207251
H23   H     H_    0.673776 0.882048 0.911913 0.205085
H24   H     H_    0.692241 0.983408 0.795558 0.194289
H25   H     H_    0.942776 0.989312 0.809434 0.175625
C50   C     C_3   0.192117 0.488714 0.162631 -0.385512
C51   C     C_3   0.203858 0.382298 0.122221 -0.349261
C52   C     C_3   0.219590 0.287067 0.173484 -0.701087
H26   H     H_    0.361975 0.252092 0.172709 0.223878
H27   H     H_    0.181396 0.308114 0.228407 0.232412
H28   H     H_    0.123971 0.222698 0.154918 0.225143
H29   H     H_    0.074809 0.369001 0.089009 0.207251
H30   H     H_    0.326247 0.382069 0.088062 0.205068
H31   H     H_    0.307840 0.483443 0.204396 0.194288
H32   H     H_    0.057290 0.489336 0.190554 0.175656
H33   H     H_    0.670905 0.395134 0.916980 0.120361
H34   H     H_    0.329116 0.895169 0.083004 0.120358
C53   C     C_3   0.705276 0.370906 0.262880 -0.427498
C54   C     C_3   0.568958 0.309318 0.308753 -0.248865
C55   C     C_3   0.438561 0.374851 0.352018 -0.859004
H35   H     H_    0.516505 0.424391 0.392378 0.230089
H36   H     H_    0.347566 0.422847 0.315056 0.227413
H37   H     H_    0.348983 0.318651 0.381172 0.233367
H38   H     H_    0.477232 0.253794 0.278268 0.239664
H39   H     H_    0.657386 0.264971 0.346075 0.212950
H40   H     H_    0.851533 0.365059 0.286429 0.149493
H41   H     H_    0.668978 0.458049 0.263831 0.193889
C56   C     C_3   0.294963 0.870970 0.737089 -0.427601
C57   C     C_3   0.431175 0.809287 0.691233 -0.248771
C58   C     C_3   0.561705 0.874690 0.647943 -0.859013
H42   H     H_    0.483905 0.924284 0.607580 0.229897
H43   H     H_    0.652913 0.922626 0.684867 0.227505
H44   H     H_    0.651048 0.818372 0.618787 0.233386
H45   H     H_    0.522815 0.753745 0.721737 0.239696
H46   H     H_    0.342655 0.764961 0.653932 0.212955
H47   H     H_    0.148728 0.865254 0.713503 0.149638
H48   H     H_    0.331505 0.958081 0.736151 0.193966
C59   C     C_3   0.784691 0.480315 0.030712 -0.411343
C60   C     C_3   0.631828 0.559626 0.008620 -0.325268
C61   C     C_3   0.709313 0.644910 0.961044 -0.771166
H49   H     H_    0.832308 0.686475 0.987417 0.245684
H50   H     H_    0.750043 0.604443 0.911465 0.226007
H51   H     H_    0.599427 0.705553 0.948345 0.235808
H52   H     H_    0.519471 0.516246 0.978757 0.215385
H53   H     H_    0.576993 0.598923 0.056266 0.213005
H54   H     H_    0.879845 0.523463 0.069544 0.201283
H55   H     H_    0.870392 0.458574 0.987503 0.188265
C62   C     C_3   0.215327 0.980350 0.969264 -0.411342
C63   C     C_3   0.368177 0.059660 0.991367 -0.325271
C64   C     C_3   0.290672 0.144939 0.038943 -0.771156
H56   H     H_    0.167686 0.186509 0.012565 0.245682
H57   H     H_    0.249919 0.104468 0.088520 0.226008
H58   H     H_    0.400558 0.205577 0.051651 0.235806
H59   H     H_    0.480527 0.016277 0.021235 0.215387
H60   H     H_    0.423023 0.098963 0.943725 0.213010
H61   H     H_    0.120176 0.023501 0.930431 0.201289
H62   H     H_    0.129628 0.958601 0.012470 0.188279
H63   H     H_    0.635000 0.482920 0.149288 0.126627
H64   H     H_    0.365048 0.982967 0.850694 0.126622
C65   C     C_3   0.863191 0.979618 0.119325 -0.381992
C66   C     C_3   0.713838 0.891582 0.111312 -0.334033
C67   C     C_3   0.775954 0.786053 0.147571 -0.697233
H65   H     H_    0.890682 0.748823 0.118112 0.228605
H66   H     H_    0.824117 0.799900 0.203838 0.252856
H67   H     H_    0.656761 0.728311 0.146940 0.209886
H68   H     H_    0.591573 0.924927 0.137242 0.213180
H69   H     H_    0.674017 0.872475 0.054960 0.189507
H70   H     H_    0.998718 0.945901 0.105598 0.168732
H71   H     H_    0.887416 0.988162 0.175647 0.217560
C68   C     C_3   0.136842 0.479650 0.880654 -0.381877
C69   C     C_3   0.286147 0.391587 0.888699 -0.334114
C70   C     C_3   0.224017 0.286063 0.852440 -0.697280
H72   H     H_    0.109281 0.248839 0.881898 0.228623
H73   H     H_    0.175862 0.299912 0.796172 0.252851
H74   H     H_    0.343203 0.228315 0.853073 0.209886
H75   H     H_    0.408446 0.424905 0.862776 0.213187
H76   H     H_    0.325923 0.372481 0.945055 0.189502
H77   H     H_    0.001263 0.445967 0.894356 0.168709
H78   H     H_    0.112732 0.488174 0.824327 0.217609
C71   C     C_3   0.985367 0.320595 0.474829 -0.343848
C72   C     C_3   0.916123 0.430539 0.446247 -0.312190
C73   C     C_3   0.075603 0.501115 0.422231 -0.822417
H79   H     H_    0.205737 0.486068 0.455615 0.239444
H80   H     H_    0.098517 0.484268 0.365488 0.218446
H81   H     H_    0.036683 0.587560 0.426016 0.224310
H82   H     H_    0.820583 0.415961 0.399920 0.198596
H83   H     H_    0.837196 0.476919 0.485281 0.203853
H84   H     H_    0.065542 0.328704 0.526659 0.196413
H85   H     H_    0.090891 0.291093 0.438297 0.183069
C74   C     C_3   0.014635 0.820633 0.525197 -0.343906
C75   C     C_3   0.083812 0.930632 0.553721 -0.312315
C76   C     C_3   0.924465 0.000975 0.578104 -0.823587
H86   H     H_    0.793885 0.985626 0.545087 0.239722
H87   H     H_    0.902693 0.984222 0.634933 0.218544
H88   H     H_    0.962756 0.087479 0.574126 0.224506
H89   H     H_    0.180059 0.916130 0.599845 0.198753
H90   H     H_    0.161911 0.977169 0.514536 0.204146
H91   H     H_    0.934395 0.828696 0.473376 0.196302
H92   H     H_    0.909202 0.791124 0.561758 0.183229

loop_
_geom_bond_atom_site_label_1
_geom_bond_atom_site_label_2
_geom_bond_distance
_ccdc_geom_bond_type
C64   H58   1.100607 S    
C38   C40   1.402212 D    
C38   C74   1.530215 S    
C50   C51   1.524330 S    
O15   V3    2.083022 S    
C70   H72   1.106649 S    
C12   C32   1.400273 A    
C14   C36   1.415265 A    
C67   H66   1.108573 S    
C22   C36   1.444941 A    
C69   H76   1.108021 S    
C68   C69   1.522949 S    
C56   H48   1.109235 S    
O4    C2    1.323611 A    
V1    O19   1.764662 S    
C74   H92   1.101804 S    
C44   H17   1.111908 S    
C46   H12   1.110642 S    
C41   H11   1.103504 S    
C62   H61   1.107668 S    
C58   H42   1.103150 S    
C73   H80   1.105503 S    
C71   C72   1.535066 S    
C50   H32   1.113136 S    
O9    V1    2.108972 S    
C51   H29   1.096215 S    
C16   H64   1.085287 S    
C21   C35   1.444881 A    
C69   C70   1.528272 S    
C20   C22   1.450775 A    
O3    C1    1.323651 A    
C54   H38   1.090391 S    
C76   H87   1.105304 S    
C8    C12   1.471355 S    
C60   H53   1.105398 S    
C64   H56   1.109839 S    
C10   C34   1.392351 A    
C12   C34   1.369398 A    
C75   C76   1.515516 S    
C53   H40   1.111673 S    
C5    C39   1.515009 S    
C57   H45   1.090344 S    
O7    C3    1.338128 A    
C72   C73   1.515575 S    
C44   H18   1.103463 S    
C45   H16   1.104404 S    
C59   H55   1.071451 S    
C24   C32   1.420210 A    
C43   H7    1.108242 S    
O13   V1    2.236085 S    
O5    C7    1.311992 A    
C41   H10   1.111901 S    
O7    V1    2.081953 S    
O6    C8    1.312014 A    
C53   C54   1.529391 S    
C24   C26   1.425679 A    
C60   C61   1.503901 S    
C37   C39   1.402232 D    
C61   H51   1.100601 S    
O3    V1    2.101997 S    
C42   C43   1.522632 S    
O14   V4    1.766004 S    
C73   H81   1.108112 S    
C68   H77   1.090941 S    
C55   H37   1.105035 S    
C40   C44   1.522922 S    
C17   C19   1.440795 A    
C71   H84   1.108742 S    
C2    O12   1.298419 A    
C67   H67   1.107316 S    
C9    C25   1.447468 A    
C13   C15   1.365296 A    
C69   H75   1.095964 S    
C14   C16   1.365329 A    
H2    C34   1.085028 S    
C30   C68   1.548247 S    
C54   C55   1.498854 S    
C46   H13   1.095671 S    
C16   C18   1.381863 A    
C62   H62   1.071422 S    
O11   V3    2.098975 S    
C18   C62   1.492223 S    
C18   C20   1.440781 A    
C3    C38   1.533177 S    
C25   C27   1.382503 A    
O17   V3    2.100360 S    
C11   C33   1.369409 A    
C26   C28   1.382492 A    
C22   C30   1.442739 A    
C52   H26   1.100478 S    
C63   H60   1.105391 S    
C48   H22   1.096215 S    
C32   H34   1.057951 S    
C19   C21   1.450753 A    
O8    C4    1.338112 A    
C7    C11   1.471303 S    
C49   H19   1.100471 S    
C43   H6    1.095666 S    
C59   H54   1.107674 S    
C58   H44   1.104989 S    
C19   C23   1.460033 A    
C1    O11   1.298426 A    
C60   H52   1.094051 S    
C47   H25   1.113133 S    
C29   C65   1.548203 S    
C47   H24   1.110771 S    
C53   H41   1.109222 S    
C39   C41   1.522932 S    
H3    C27   1.046398 S    
C74   C75   1.535175 S    
C66   H69   1.108028 S    
C45   H15   1.083889 S    
V4    O20   2.237488 S    
C9    C47   1.534373 S    
C49   H20   1.109910 S    
C73   H79   1.107582 S    
C20   C24   1.460067 A    
C11   C31   1.400233 A    
O10   V2    2.108934 S    
O1    V3    2.107334 S    
C10   C50   1.534354 S    
C56   C57   1.529297 S    
H4    C28   1.046399 S    
H1    C33   1.085008 S    
C48   H23   1.104324 S    
C68   H78   1.068862 S    
C15   C17   1.381855 A    
C66   C67   1.528277 S    
C9    C33   1.392339 A    
C70   H74   1.107313 S    
C71   H85   1.101884 S    
C17   C59   1.492228 S    
C52   H28   1.093068 S    
O15   C5    1.337736 A    
C42   H9    1.104384 S    
C61   H49   1.109832 S    
O16   C6    1.337741 A    
O1    C3    1.321097 A    
C13   C35   1.415158 A    
C48   C49   1.522596 S    
C59   C60   1.507008 S    
C72   H83   1.104489 S    
C67   H65   1.106654 S    
C46   H14   1.108271 S    
C15   H63   1.085287 S    
C55   H35   1.103234 S    
V2    O20   1.764669 S    
C64   H57   1.107741 S    
C75   H90   1.104305 S    
O16   V4    2.083000 S    
C37   C71   1.530150 S    
C75   H89   1.092534 S    
C51   H30   1.104324 S    
C63   H59   1.094061 S    
C56   H47   1.111672 S    
C45   C46   1.522621 S    
C76   H88   1.107981 S    
C74   H91   1.108749 S    
C21   C29   1.442689 A    
C10   C26   1.447458 A    
O5    V1    2.097534 S    
O17   C7    1.321500 A    
C50   H31   1.110734 S    
O10   C6    1.310021 A    
O18   C8    1.321518 A    
C52   H27   1.109929 S    
C65   H71   1.068879 S    
O2    V4    2.107371 S    
C27   C29   1.391902 A    
C57   C58   1.498851 S    
C66   H68   1.095971 S    
V3    O19   2.237497 S    
O13   V3    1.766010 S    
C49   H21   1.093053 S    
C54   H39   1.070121 S    
C76   H86   1.107183 S    
C55   H36   1.099883 S    
O8    V2    2.081977 S    
O6    V2    2.097564 S    
O9    C5    1.310019 A    
C51   C52   1.522636 S    
C31   H33   1.057945 S    
C4    C37   1.533155 S    
C28   C30   1.391915 A    
O14   V2    2.236095 S    
C57   H46   1.070122 S    
C41   C42   1.559441 S    
O2    C4    1.321127 A    
C1    C36   1.452760 S    
C58   H43   1.099911 S    
C6    C40   1.514934 S    
C2    C35   1.452729 S    
C44   C45   1.559349 S    
O4    V2    2.101967 S    
C43   H5    1.110626 S    
C23   C31   1.420165 A    
C70   H73   1.108573 S    
C13   C53   1.520173 S    
C65   H70   1.090914 S    
C42   H8    1.083970 S    
C61   H50   1.107737 S    
C63   C64   1.503926 S    
C23   C25   1.425690 A    
C47   C48   1.524326 S    
C62   C63   1.506999 S    
O12   V4    2.098946 S    
C72   H82   1.092692 S    
C14   C56   1.520319 S    
C65   C66   1.522924 S    
O18   V4    2.100393 S    
