data_mof_unit_20552.cif
_audit_creation_date              2012-12-11T14:49:38-0500
_audit_creation_method            fapswitch 2.2
_symmetry_space_group_name_H-M    P1
_symmetry_Int_Tables_number       1
_space_group_crystal_system       triclinic
_cell_length_a                    16.79324
_cell_length_b                    7.113771
_cell_length_c                    17.174109
_cell_angle_alpha                 90.942879
_cell_angle_beta                  100.275783
_cell_angle_gamma                 88.966468
_cell_volume                      2018.25614541

loop_
_atom_site_label
_atom_site_type_symbol
_atom_type_description
_atom_site_fract_x
_atom_site_fract_y
_atom_site_fract_z
_atom_type_partial_charge
O1    O     O_R   0.579510 0.506290 0.439030 -0.548479
O2    O     O_R   0.420490 0.006290 0.560970 -0.565466
O3    O     O_R   0.412540 0.170090 0.405290 -0.513030
O4    O     O_R   0.587460 0.670090 0.594710 -0.543424
C1    C     C_R   0.384040 0.346295 0.382969 0.808682
C2    C     C_R   0.617225 0.845092 0.616288 0.773610
O5    O     O_R   0.578390 0.176230 0.429330 -0.531737
O6    O     O_R   0.421610 0.676230 0.570670 -0.518219
O7    O     O_R   0.587530 0.011250 0.585190 -0.555079
O8    O     O_R   0.412470 0.511250 0.414810 -0.551133
C3    C     C_R   0.601300 0.343600 0.410104 0.769552
C4    C     C_R   0.397056 0.846009 0.588168 0.773733
O9    O     O_3   0.502800 0.340940 0.551110 -0.400720
O10   O     O_3   0.497200 0.840940 0.448890 -0.382368
V1    V     V_3+5 0.499480 0.064020 0.490520 1.430218
V2    V     V_3+5 0.500520 0.564020 0.509480 1.426974
C5    C     C_R   0.166552 0.903125 0.860874 -0.303298
C6    C     C_R   0.835817 0.414422 0.141403 -0.303401
C7    C     C_R   0.330915 0.856626 0.636400 -0.323675
C8    C     C_R   0.667878 0.348325 0.362459 -0.313560
C9    C     C_R   0.191865 0.938682 0.648872 0.396944
C10   C     C_R   0.810106 0.299536 0.350499 0.375721
C11   C     C_R   0.250327 0.901248 0.601390 0.295066
C12   C     C_R   0.748505 0.299433 0.396587 0.330595
C13   C     C_R   0.343929 0.791694 0.714809 0.422764
C14   C     C_R   0.650458 0.392016 0.281468 0.375669
C15   C     C_R   0.286499 0.834267 0.764820 -0.233926
C16   C     C_R   0.713237 0.409253 0.236349 -0.228921
C17   C     C_R   0.211576 0.921323 0.732399 -0.164242
C18   C     C_R   0.794272 0.363769 0.270782 -0.166009
C19   C     C_R   0.155789 0.975008 0.782579 0.265164
C20   C     C_R   0.856661 0.382841 0.224498 0.293116
C21   C     C_R   0.237568 0.798714 0.889323 0.295464
C22   C     C_R   0.754120 0.431099 0.107497 0.299514
C23   C     C_R   0.300591 0.783078 0.845316 0.412925
C24   C     C_R   0.695489 0.459121 0.155404 0.435115
C25   C     C_3   0.744205 0.764289 0.833333 0.699016
C26   C     C_3   0.240563 0.211236 0.179796 0.576510
C27   C     C_3   0.687327 0.705207 0.752483 0.609677
C28   C     C_3   0.303884 0.179386 0.260134 0.620471
C29   C     C_3   0.844860 0.837355 0.739520 0.459765
C30   C     C_3   0.156105 0.410406 0.266083 0.460006
C31   C     C_3   0.764266 0.096727 0.792819 -0.395083
C32   C     C_3   0.250773 0.561906 0.189897 -0.450804
C33   C     C_3   0.810330 0.906755 0.814666 -0.175463
C34   C     C_3   0.189720 0.400362 0.186290 -0.127620
H1    H     H_    0.803770 0.194099 0.767514 0.223298
H2    H     H_    0.219211 0.690010 0.204478 0.169150
H3    H     H_    0.750171 0.169211 0.846434 0.204446
H4    H     H_    0.268786 0.584874 0.131641 0.227854
C35   C     C_3   0.689664 0.862518 0.688277 -0.230265
C36   C     C_3   0.312125 0.365187 0.311381 -0.139312
C37   C     C_3   0.776456 0.859649 0.662026 0.628732
C38   C     C_3   0.229313 0.420945 0.340197 0.540725
C39   C     C_3   0.684628 0.060748 0.731522 0.148568
C40   C     C_3   0.326501 0.529120 0.255632 0.117120
H5    H     H_    0.679106 0.176149 0.688094 0.148842
H6    H     H_    0.335577 0.659566 0.291869 0.134894
O11   O     O_R   0.087500 0.266000 0.085220 -0.517144
O12   O     O_R   0.912500 0.766000 0.914780 -0.498598
O13   O     O_R   0.921600 0.589950 0.070670 -0.537952
O14   O     O_R   0.078400 0.089950 0.929330 -0.569955
C41   C     C_R   0.897077 0.422506 0.088072 0.785642
C42   C     C_R   0.102892 0.919511 0.911791 0.715652
O15   O     O_R   0.087460 0.596020 0.094710 -0.528105
O16   O     O_R   0.912540 0.096020 0.905290 -0.541676
O17   O     O_R   0.079520 0.760970 0.939020 -0.525076
O18   O     O_R   0.920480 0.260970 0.060980 -0.537955
C43   C     C_R   0.118320 0.424798 0.115389 0.791031
C44   C     C_R   0.881116 0.926974 0.885658 0.752935
O19   O     O_3   0.997180 0.425140 0.948910 -0.375191
O20   O     O_3   0.002820 0.925140 0.051090 -0.362996
V3    V     V_3+5 0.000520 0.702080 0.009480 1.546152
V4    V     V_3+5 0.999480 0.202080 0.990520 1.490395
O21   O     O_3   0.092013 0.093812 0.752219 -0.625706
H7    H     H_    0.061461 0.133893 0.793620 0.311591
O22   O     O_3   0.936366 0.372327 0.261818 -0.615038
H8    H     H_    0.971808 0.390022 0.222647 0.322135
O23   O     O_3   0.716965 0.532370 0.725825 -0.656767
H9    H     H_    0.682686 0.494255 0.675566 0.291998
O24   O     O_3   0.280995 0.040612 0.309354 -0.680722
H10   H     H_    0.260356 0.928873 0.278770 0.277944
O25   O     O_3   0.868721 0.646151 0.749763 -0.603606
H11   H     H_    0.905495 0.613239 0.712243 0.314509
O26   O     O_3   0.105827 0.254830 0.270355 -0.624587
H12   H     H_    0.139199 0.142667 0.288076 0.342336
O27   O     O_3   0.782367 0.709331 0.607652 -0.574727
C45   C     C_3   0.843710 0.737505 0.561537 -0.241781
H13   H     H_    0.901194 0.789077 0.596928 0.162961
H14   H     H_    0.821224 0.834537 0.512126 0.208998
H15   H     H_    0.859801 0.603067 0.534578 0.160241
O28   O     O_3   0.217714 0.296482 0.400656 -0.584376
C46   C     C_3   0.161844 0.361372 0.448359 -0.213522
H16   H     H_    0.103856 0.411170 0.413233 0.176307
H17   H     H_    0.189463 0.470829 0.491115 0.187441
H18   H     H_    0.146634 0.242926 0.483893 0.196880
O29   O     O_3   0.616972 0.073354 0.769397 -0.606807
H19   H     H_    0.568206 0.087403 0.727704 0.292820
O30   O     O_3   0.395086 0.497113 0.220858 -0.584326
H20   H     H_    0.442090 0.539291 0.260227 0.319819
O31   O     O_3   0.913137 0.945444 0.732721 -0.675284
H21   H     H_    0.961092 0.890797 0.767736 0.286679
O32   O     O_3   0.107367 0.575125 0.263277 -0.648204
H22   H     H_    0.071109 0.565380 0.302540 0.318946
O33   O     O_3   0.781868 0.033142 0.624433 -0.670180
H23   H     H_    0.838426 0.061505 0.620525 0.336254
O34   O     O_3   0.239031 0.605833 0.371497 -0.666874
H24   H     H_    0.186891 0.657229 0.381988 0.314741
O35   O     O_3   0.246113 0.713570 0.962025 -0.563522
C47   C     C_3   0.232903 0.519454 0.948895 -0.132984
H25   H     H_    0.180543 0.488359 0.900831 0.111466
H26   H     H_    0.218135 0.460045 0.003345 0.143175
H27   H     H_    0.288379 0.448008 0.935677 0.160583
O36   O     O_3   0.731317 0.424940 0.026398 -0.569937
C48   C     C_3   0.699891 0.245757 0.004020 -0.233401
H28   H     H_    0.651523 0.205471 0.036993 0.140962
H29   H     H_    0.749357 0.137955 0.011740 0.143148
H30   H     H_    0.671608 0.248405 0.940686 0.179483
O37   O     O_3   0.113631 0.971160 0.610105 -0.594376
H31   H     H_    0.076925 0.898376 0.637019 0.327845
O38   O     O_3   0.884731 0.229004 0.385196 -0.588395
H32   H     H_    0.902832 0.140035 0.346646 0.333498
O39   O     O_3   0.373053 0.699475 0.879778 -0.529312
C49   C     C_3   0.424924 0.840972 0.916594 -0.117066
H33   H     H_    0.436385 0.947732 0.873326 0.135827
H34   H     H_    0.484036 0.774976 0.941899 0.156702
H35   H     H_    0.400360 0.909645 0.966143 0.107630
O40   O     O_3   0.619229 0.520615 0.119793 -0.517206
C50   C     C_3   0.612137 0.714693 0.136249 -0.157718
H36   H     H_    0.662373 0.795669 0.119225 0.073604
H37   H     H_    0.609900 0.740985 0.199832 0.142853
H38   H     H_    0.554583 0.768841 0.101250 0.139324
O41   O     O_3   0.220586 0.848723 0.523982 -0.563173
C51   C     C_3   0.256802 0.948782 0.470653 -0.088644
H39   H     H_    0.305895 0.863952 0.451393 0.184498
H40   H     H_    0.281311 0.086048 0.494850 0.156174
H41   H     H_    0.209555 0.970581 0.417854 0.221176
O42   O     O_3   0.768001 0.225852 0.472135 -0.537444
C52   C     C_3   0.743668 0.348325 0.529330 -0.097177
H42   H     H_    0.692001 0.287708 0.551898 0.155513
H43   H     H_    0.725977 0.491574 0.507252 0.134475
H44   H     H_    0.794172 0.361306 0.580099 0.201757
O43   O     O_3   0.406246 0.663901 0.737885 -0.521420
C53   C     C_3   0.374288 0.481013 0.722440 -0.122655
H45   H     H_    0.351108 0.457410 0.658248 0.123796
H46   H     H_    0.325429 0.453570 0.756667 0.128717
H47   H     H_    0.422441 0.374309 0.740812 0.112747
O44   O     O_3   0.570763 0.400497 0.244506 -0.541763
C54   C     C_3   0.550860 0.223367 0.208933 -0.071946
H48   H     H_    0.546160 0.118819 0.255169 0.114689
H49   H     H_    0.595071 0.170029 0.172285 0.074000
H50   H     H_    0.492283 0.237726 0.167914 0.232529
O45   O     O_3   0.784077 0.603975 0.871208 -0.614942
H51   H     H_    0.744712 0.504886 0.874513 0.293621
O46   O     O_3   0.186100 0.059936 0.165376 -0.653892
H52   H     H_    0.214386 0.947521 0.149873 0.261345
O47   O     O_3   0.696604 0.865981 0.882084 -0.555608
C55   C     C_3   0.682203 0.773923 0.949587 -0.141615
H53   H     H_    0.739761 0.754685 0.992059 0.171815
H54   H     H_    0.648718 0.642122 0.933534 0.184621
H55   H     H_    0.642073 0.865445 0.978911 0.115546
O48   O     O_3   0.286644 0.237694 0.117596 -0.535078
C56   C     C_3   0.272720 0.111887 0.052471 -0.212978
H56   H     H_    0.207671 0.103893 0.027174 0.162796
H57   H     H_    0.299726 0.971560 0.068319 0.163415
H58   H     H_    0.304094 0.163969 0.005803 0.128353
O49   O     O_3   0.605685 0.693019 0.765270 -0.533620
C57   C     C_3   0.581753 0.510318 0.781023 -0.113259
H59   H     H_    0.630433 0.421744 0.813948 0.121799
H60   H     H_    0.555893 0.438985 0.724493 0.150196
H61   H     H_    0.535047 0.522596 0.818977 0.190303
O50   O     O_3   0.382410 0.139066 0.242162 -0.527828
C58   C     C_3   0.397359 0.948384 0.225900 -0.144288
H62   H     H_    0.343695 0.875932 0.194121 0.108953
H63   H     H_    0.424447 0.878605 0.281820 0.154454
H64   H     H_    0.441945 0.937191 0.185702 0.115946

loop_
_geom_bond_atom_site_label_1
_geom_bond_atom_site_label_2
_ccdc_geom_bond_type
C27   C35   S    
O27   C45   S    
O47   C55   S    
C15   C17   A    
C56   H56   S    
O1    C3    A    
O2    C4    A    
O40   C50   S    
C51   H41   S    
O36   C48   S    
O39   C49   S    
C13   O43   S    
C58   H62   S    
O5    C3    A    
O31   H21   S    
C38   O34   S    
C56   H57   S    
O48   C56   S    
C54   H49   S    
C5    C42   S    
C52   H44   S    
C6    C41   S    
O18   V4    S    
O43   C53   S    
O16   V4    S    
O12   V3    S    
O15   V3    S    
C30   C34   S    
C25   O47   S    
O13   C41   A    
C47   H25   S    
C34   C43   S    
O14   C42   A    
O32   H22   S    
C55   H55   S    
C46   H16   S    
C20   O22   S    
C57   H61   S    
C8    C12   A    
C36   C38   S    
C16   C18   A    
C48   H29   S    
O34   H24   S    
C1    C36   S    
O17   V3    S    
C2    C35   S    
C18   C20   A    
C22   C24   A    
O22   H8    S    
C50   H38   S    
O6    V2    S    
C57   H60   S    
C46   H17   S    
C30   O32   S    
C55   H54   S    
C24   O40   S    
C5    C21   A    
C26   O46   S    
C2    O7    A    
C53   H47   S    
C32   C34   S    
O29   H19   S    
C58   H63   S    
C3    C8    S    
C11   O41   S    
C36   C40   S    
C42   O17   A    
C25   O45   S    
C56   H58   S    
O44   C54   S    
C53   H46   S    
C54   H50   S    
C30   O26   S    
O49   C57   S    
O19   V3    S    
C31   H3    S    
C51   H40   S    
C12   O42   S    
O26   H12   S    
C40   H6    S    
C9    C17   A    
O24   H10   S    
C35   C37   S    
C27   O23   S    
O4    V2    S    
C7    C11   A    
O21   H7    S    
C38   O28   S    
C6    C22   A    
C32   C40   S    
C19   O21   S    
O25   H11   S    
O11   V4    S    
C45   H15   S    
O12   C44   A    
O6    C4    A    
C48   H30   S    
C15   C23   A    
C39   O29   S    
C23   O39   S    
C37   O27   S    
O1    V2    S    
O37   H31   S    
C14   O44   S    
O2    V1    S    
C31   C33   S    
C47   H27   S    
C29   C37   S    
O38   H32   S    
O11   C43   A    
C49   H35   S    
O20   V4    S    
C57   H59   S    
C45   H14   S    
C46   H18   S    
C9    C11   A    
C55   H53   S    
C5    C19   A    
C10   C12   A    
O4    C2    A    
C6    C20   A    
C25   C33   S    
C28   O50   S    
O3    V1    S    
O50   C58   S    
C10   O38   S    
C49   H34   S    
C50   H36   S    
C58   H64   S    
C32   H4    S    
C41   O18   A    
C10   C18   A    
C33   C44   S    
C17   C19   A    
C28   O24   S    
O20   V3    S    
O3    C1    A    
O19   V4    S    
C52   H42   S    
C51   H39   S    
C31   C39   S    
C22   O36   S    
O33   H23   S    
O16   C44   A    
C14   C16   A    
O30   H20   S    
C53   H45   S    
O13   V3    S    
C39   H5    S    
O7    V1    S    
C1    O8    A    
C25   C27   S    
C32   H2    S    
C28   C36   S    
C54   H48   S    
C30   C38   S    
C26   C28   S    
C52   H43   S    
O41   C51   S    
C8    C14   A    
O15   C43   A    
C4    C7    S    
O5    V1    S    
O28   C46   S    
C21   C23   A    
C29   O31   S    
C35   C39   S    
C27   O49   S    
C7    C13   A    
C47   H26   S    
C26   C34   S    
O42   C52   S    
O23   H9    S    
C37   O33   S    
C26   O48   S    
C21   O35   S    
C45   H13   S    
C16   C24   A    
C9    O37   S    
O9    V2    S    
O46   H52   S    
C29   C33   S    
O10   V1    S    
O14   V4    S    
O8    V2    S    
C40   O30   S    
O45   H51   S    
O35   C47   S    
C31   H1    S    
C48   H28   S    
C49   H33   S    
C50   H37   S    
C13   C15   A    
C29   O25   S    
