data_mof_unit_20540.cif
_audit_creation_date              2012-10-26T19:59:11-0400
_audit_creation_method            fapswitch 2.2
_symmetry_space_group_name_H-M    P1
_symmetry_Int_Tables_number       1
_space_group_crystal_system       triclinic
_cell_length_a                    7.421294
_cell_length_b                    8.664353
_cell_length_c                    15.788991
_cell_angle_alpha                 93.108128
_cell_angle_beta                  74.318919
_cell_angle_gamma                 103.116284
_cell_volume                      951.929273289

loop_
_atom_site_label
_atom_site_type_symbol
_atom_type_description
_atom_site_fract_x
_atom_site_fract_y
_atom_site_fract_z
_atom_type_partial_charge
C1    C     C_R   0.546035 0.800146 0.501118 0.536569
C2    C     C_R   0.618213 0.516342 0.333403 0.534443
C3    C     C_R   0.306827 0.459315 0.762766 -0.022602
C4    C     C_R   0.693173 0.540686 0.237234 -0.022601
C5    C     C_R   0.074495 0.332907 0.893163 -0.128869
C6    C     C_R   0.925507 0.667092 0.106837 -0.128870
C7    C     C_R   0.126321 0.361208 0.802463 -0.031915
C8    C     C_R   0.873681 0.638792 0.197536 -0.031915
C9    C     C_R   0.431105 0.524080 0.814972 -0.161078
C10   C     C_R   0.568895 0.475923 0.185028 -0.161077
C11   C     C_R   0.388685 0.482759 0.904515 0.019596
C12   C     C_R   0.453965 0.199854 0.498882 0.536572
C13   C     C_R   0.611316 0.517242 0.095485 0.019594
C14   C     C_R   0.205494 0.387280 0.943229 0.036617
C15   C     C_R   0.794507 0.612720 0.056771 0.036617
C16   C     C_R   0.524895 0.527430 0.955550 0.028507
C17   C     C_R   0.475107 0.472570 0.044449 0.028504
C18   C     C_R   0.000014 0.734049 0.248274 0.046616
C19   C     C_R   0.942586 0.860861 0.299561 -0.064404
C20   C     C_R   0.074183 0.969719 0.334136 -0.106793
C21   C     C_R   0.263491 0.952888 0.317344 -0.104443
C22   C     C_R   0.319950 0.824250 0.268909 -0.093159
C23   C     C_R   0.289388 0.378055 0.079821 -0.147345
C24   C     C_R   0.188953 0.715636 0.234082 -0.085875
C25   C     C_R   0.999991 0.265948 0.751726 0.046616
C26   C     C_R   0.811060 0.284372 0.765907 -0.085867
C27   C     C_R   0.680063 0.175758 0.731080 -0.093155
C28   C     C_R   0.736515 0.047109 0.682655 -0.104447
C29   C     C_R   0.925816 0.030268 0.665873 -0.106795
C30   C     C_R   0.057413 0.139127 0.700448 -0.064414
C31   C     C_R   0.710615 0.621944 0.920179 -0.147343
C32   C     C_R   0.157090 0.338906 0.030561 -0.129308
C33   C     C_R   0.842913 0.661093 0.969438 -0.129307
C34   C     C_2   0.573659 0.968084 0.498890 -0.180214
C35   C     C_2   0.426340 0.031916 0.501111 -0.180211
C36   C     C_R   0.381787 0.483659 0.666597 0.534444
Cu1   Cu    Cu3+1 0.322120 0.483240 0.490330 0.945235
Cu2   Cu    Cu3+1 0.677880 0.516760 0.509670 0.945232
H1    H     H_    0.016749 0.265911 0.060632 0.112842
H2    H     H_    0.283999 0.960425 0.503860 0.131441
H3    H     H_    0.003597 0.613664 0.568622 0.234398
H4    H     H_    0.996403 0.386336 0.431378 0.234399
H5    H     H_    0.798764 0.879231 0.309431 0.089346
H6    H     H_    0.031106 0.069697 0.371675 0.105288
H7    H     H_    0.367496 0.041033 0.340370 0.116367
H8    H     H_    0.466584 0.811321 0.256169 0.113264
H9    H     H_    0.236193 0.620572 0.193624 0.115107
H10   H     H_    0.763826 0.379446 0.806357 0.115103
H11   H     H_    0.533435 0.188695 0.743812 0.113267
H12   H     H_    0.983254 0.734086 0.939367 0.112842
H13   H     H_    0.632509 0.958964 0.659629 0.116367
H14   H     H_    0.968888 0.930282 0.628341 0.105286
H15   H     H_    0.201228 0.120749 0.690585 0.089343
H16   H     H_    0.435079 0.399231 0.217760 0.118385
H17   H     H_    0.564919 0.600775 0.782240 0.118383
H18   H     H_    0.936533 0.256404 0.923536 0.114687
H19   H     H_    0.063470 0.743594 0.076463 0.114685
H20   H     H_    0.239625 0.331566 0.145876 0.101612
H21   H     H_    0.760380 0.668432 0.854123 0.101609
H22   H     H_    0.716000 0.039575 0.496141 0.131439
N1    N     N_2   0.945180 0.542040 0.524240 -0.247752
N2    N     N_2   0.054820 0.457960 0.475760 -0.247751
O1    O     O_R   0.384450 0.714270 0.493720 -0.500308
O2    O     O_R   0.615550 0.285730 0.506280 -0.500309
O3    O     O_R   0.684880 0.742590 0.510050 -0.500108
O4    O     O_R   0.315120 0.257410 0.489950 -0.500107
O5    O     O_R   0.265540 0.477900 0.617090 -0.490287
O6    O     O_R   0.734460 0.522100 0.382910 -0.490287
O7    O     O_R   0.565970 0.506210 0.633420 -0.505856
O8    O     O_R   0.434030 0.493790 0.366580 -0.505853

loop_
_geom_bond_atom_site_label_1
_geom_bond_atom_site_label_2
_ccdc_geom_bond_type
C10   C13   A    
C23   H20   S    
C2    C4    S    
C31   C33   A    
C12   O2    A    
Cu1   Cu2   S    
C3    C9    A    
C34   C35   D    
H3    N1    S    
C26   H10   S    
C5    C14   A    
C11   C16   A    
H4    N2    S    
C5    H18   S    
C1    O3    A    
C19   C20   A    
C7    C25   S    
Cu2   O3    S    
C13   C17   A    
Cu1   O1    S    
C4    C8    A    
Cu2   N1    S    
C23   C32   A    
C24   H9    S    
C35   H2    S    
C6    C15   A    
C36   O5    A    
C30   H15   S    
C11   C14   A    
C17   C23   A    
Cu1   O8    S    
C36   O7    A    
C12   C35   S    
C34   H22   S    
C9    C11   A    
C6    H19   S    
C26   C27   A    
C29   C30   A    
C2    O8    A    
C3    C36   S    
C9    H17   S    
C18   C24   A    
Cu1   O5    S    
C28   C29   A    
C22   H8    S    
C19   H5    S    
C1    C34   S    
Cu1   N2    S    
C3    C7    A    
C21   H7    S    
C13   C15   A    
Cu1   O4    S    
N1    N2    D    
C10   H16   S    
C28   H13   S    
C22   C24   A    
Cu2   O7    S    
C4    C10   A    
C1    O1    A    
C27   C28   A    
C14   C32   A    
C20   C21   A    
C18   C19   A    
C32   H1    S    
C31   H21   S    
C25   C30   A    
C5    C7    A    
Cu2   O2    S    
C6    C8    A    
C33   H12   S    
C20   H6    S    
C25   C26   A    
C21   C22   A    
C2    O6    A    
C12   O4    A    
C15   C33   A    
C8    C18   S    
C27   H11   S    
Cu2   O6    S    
C16   C17   A    
C16   C31   A    
C29   H14   S    
