data_mof_unit_51723.cif
_audit_creation_date              2013-03-05T15:50:32-0500
_audit_creation_method            fapswitch 2.2
_symmetry_space_group_name_H-M    P1
_symmetry_Int_Tables_number       1
_space_group_crystal_system       triclinic
_cell_length_a                    19.04829
_cell_length_b                    7.167835
_cell_length_c                    17.831196
_cell_angle_alpha                 89.998568
_cell_angle_beta                  108.979147
_cell_angle_gamma                 90.001058
_cell_volume                      2302.23115207

loop_
_atom_site_label
_atom_site_type_symbol
_atom_site_description
_atom_site_fract_x
_atom_site_fract_y
_atom_site_fract_z
_atom_type_partial_charge
O1    O     O_R   0.562310 0.505770 0.439670 -0.590550
O2    O     O_R   0.437690 0.005770 0.560330 -0.590558
O3    O     O_R   0.411650 0.169150 0.405330 -0.564952
O4    O     O_R   0.588350 0.669150 0.594670 -0.564958
C1    C     C_R   0.385289 0.345930 0.382297 0.823590
C2    C     C_R   0.614712 0.845929 0.617702 0.823541
O5    O     O_R   0.560140 0.175610 0.430010 -0.599048
O6    O     O_R   0.439860 0.675610 0.569990 -0.599053
O7    O     O_R   0.587240 0.012100 0.585200 -0.545836
O8    O     O_R   0.412760 0.512100 0.414800 -0.545828
C3    C     C_R   0.581185 0.344504 0.415206 0.941636
C4    C     C_R   0.418815 0.844500 0.584793 0.941636
O9    O     O_3   0.508720 0.341420 0.550890 -0.239741
O10   O     O_3   0.491280 0.841420 0.449110 -0.239713
V1    V     V_3+5 0.498380 0.063930 0.490560 1.236114
V2    V     V_3+5 0.501620 0.563930 0.509440 1.236118
C5    C     C_R   0.182917 0.060711 0.868473 0.556623
C6    C     C_R   0.817043 0.560651 0.131470 0.556622
C7    C     C_R   0.131245 0.916587 0.865827 -0.321890
C8    C     C_R   0.868749 0.416577 0.134163 -0.321879
C9    C     C_R   0.129284 0.759276 0.817808 -0.298010
C10   C     C_R   0.870735 0.259298 0.182215 -0.298032
C11   C     C_R   0.176508 0.745889 0.771679 0.156183
C12   C     C_R   0.823504 0.245900 0.228336 0.156217
C13   C     C_R   0.225550 0.893545 0.771873 -0.032581
C14   C     C_R   0.774450 0.393546 0.228122 -0.032603
C15   C     C_R   0.227947 0.052745 0.819248 -0.040153
C16   C     C_R   0.772032 0.552717 0.180715 -0.040202
C17   C     C_R   0.175571 0.587058 0.725226 -0.182556
C18   C     C_R   0.824443 0.087069 0.274797 -0.182575
C19   C     C_R   0.223321 0.573587 0.680045 -0.232618
C20   C     C_R   0.776686 0.073593 0.319971 -0.232561
C21   C     C_R   0.272654 0.719110 0.680067 0.146591
C22   C     C_R   0.727352 0.219120 0.319941 0.146595
C23   C     C_R   0.273268 0.880640 0.725567 0.074718
C24   C     C_R   0.726733 0.380645 0.274429 0.074691
C25   C     C_R   0.321889 0.028914 0.725204 0.139368
C26   C     C_R   0.678103 0.528911 0.274776 0.139349
C27   C     C_R   0.322990 0.187679 0.771377 -0.223336
C28   C     C_R   0.676988 0.687657 0.228579 -0.223334
C29   C     C_R   0.276852 0.199221 0.818131 -0.160133
C30   C     C_R   0.723113 0.699177 0.181810 -0.159989
C31   C     C_R   0.321246 0.706255 0.635365 -0.254873
C32   C     C_R   0.678760 0.206271 0.364644 -0.254859
C33   C     C_R   0.369287 0.854857 0.634056 -0.142882
C34   C     C_R   0.630714 0.354867 0.365942 -0.142889
C35   C     C_R   0.368794 0.016025 0.678914 -0.228300
C36   C     C_R   0.631200 0.516026 0.321070 -0.228256
H1    H     H_    0.090888 0.646605 0.816378 0.173341
H2    H     H_    0.909150 0.146652 0.183671 0.173257
H3    H     H_    0.138328 0.472201 0.724383 0.137213
H4    H     H_    0.861691 0.972215 0.275652 0.137158
H5    H     H_    0.221793 0.448847 0.645221 0.140663
H6    H     H_    0.778213 0.948851 0.354799 0.140637
H7    H     H_    0.320651 0.582090 0.600435 0.135606
H8    H     H_    0.679359 0.082114 0.399583 0.135597
H9    H     H_    0.405717 0.130968 0.678652 0.178633
H10   H     H_    0.594271 0.630961 0.321321 0.178657
H11   H     H_    0.359841 0.303056 0.771622 0.153256
H12   H     H_    0.640127 0.803026 0.228319 0.153258
H13   H     H_    0.279521 0.323875 0.853279 0.179690
H14   H     H_    0.720426 0.823803 0.146634 0.179688
C37   C     C_3   0.788090 0.703099 0.797302 -0.349632
C38   C     C_3   0.211953 0.203126 0.202646 -0.349759
H15   H     H_    0.833287 0.618341 0.787452 0.170348
H16   H     H_    0.166760 0.118207 0.212423 0.170411
H17   H     H_    0.778141 0.646895 0.851018 0.154777
H18   H     H_    0.221961 0.147119 0.148932 0.154701
C39   C     C_3   0.716948 0.676905 0.725231 -0.378792
C40   C     C_3   0.283063 0.176913 0.274754 -0.378762
H19   H     H_    0.674574 0.604565 0.745215 0.213741
H20   H     H_    0.325454 0.104565 0.254800 0.213748
H21   H     H_    0.729459 0.588026 0.679969 0.202415
H22   H     H_    0.270518 0.088031 0.319996 0.202392
H23   H     H_    0.867339 0.905325 0.720518 0.137274
H24   H     H_    0.132689 0.404860 0.279502 0.137391
H25   H     H_    0.759455 0.873577 0.615841 0.123219
H26   H     H_    0.240587 0.373603 0.384207 0.123229
C41   C     C_3   0.822072 0.984267 0.733005 -0.383553
C42   C     C_3   0.177900 0.484051 0.267016 -0.383692
C43   C     C_3   0.748279 0.026462 0.824417 -0.470464
C44   C     C_3   0.251700 0.526654 0.175632 -0.470423
C45   C     C_3   0.812467 0.912794 0.810993 0.078734
C46   C     C_3   0.187531 0.412797 0.189010 0.078788
H27   H     H_    0.761464 0.177913 0.825158 0.191362
H28   H     H_    0.238505 0.678078 0.175005 0.191451
H29   H     H_    0.743573 0.995365 0.883387 0.124002
H30   H     H_    0.256396 0.495846 0.116636 0.123914
C47   C     C_3   0.686069 0.867407 0.688969 -0.054450
C48   C     C_3   0.313933 0.367411 0.311030 -0.054421
C49   C     C_3   0.748462 0.960892 0.662423 -0.302560
C50   C     C_3   0.251536 0.460854 0.337581 -0.302663
C51   C     C_3   0.673049 0.982944 0.758607 0.288185
C52   C     C_3   0.326943 0.483000 0.241397 0.288031
H31   H     H_    0.640045 0.893835 0.786094 0.044142
H32   H     H_    0.359901 0.393876 0.213863 0.044262
H33   H     H_    0.838666 0.133811 0.739123 0.161557
H34   H     H_    0.161214 0.633525 0.260924 0.161437
H35   H     H_    0.730386 0.098820 0.634641 0.193174
H36   H     H_    0.269592 0.598851 0.365303 0.193194
O11   O     O_R   0.087220 0.271820 0.085230 -0.594516
O12   O     O_R   0.912780 0.771820 0.914770 -0.594499
O13   O     O_R   0.939860 0.595540 0.069990 -0.551207
O14   O     O_R   0.060140 0.095540 0.930010 -0.551136
C53   C     C_R   0.918758 0.426533 0.084926 0.971156
C54   C     C_R   0.081240 0.926537 0.915071 0.971133
O15   O     O_R   0.088340 0.601930 0.094680 -0.595601
O16   O     O_R   0.911660 0.101930 0.905320 -0.595615
O17   O     O_R   0.062310 0.765410 0.939660 -0.591044
O18   O     O_R   0.937690 0.265410 0.060340 -0.591043
C55   C     C_R   0.115738 0.431752 0.118170 0.876221
C56   C     C_R   0.884261 0.931752 0.881831 0.876290
O19   O     O_3   0.991270 0.429630 0.949130 -0.283137
O20   O     O_3   0.008730 0.929630 0.050870 -0.283166
V3    V     V_3+5 0.001620 0.707150 0.009440 1.171738
V4    V     V_3+5 0.998380 0.207150 0.990560 1.171746
O21   O     O_3   0.192230 0.205199 0.922136 -0.612597
C57   C     C_3   0.247428 0.150624 0.993019 -0.238333
H37   H     H_    0.300480 0.112675 0.983208 0.138444
H38   H     H_    0.227937 0.032767 0.021760 0.121787
H39   H     H_    0.259702 0.269725 0.034344 0.158936
O22   O     O_3   0.807640 0.704975 0.077707 -0.612617
C58   C     C_3   0.752478 0.650024 0.006856 -0.238244
H40   H     H_    0.699481 0.611638 0.016698 0.138426
H41   H     H_    0.772094 0.532335 0.978141 0.121818
H42   H     H_    0.740035 0.769050 0.965484 0.158889
N1    N     N_R   0.630872 0.155060 0.731990 0.241124
O23   O     O_R   0.655548 0.283948 0.695870 -0.439943
O24   O     O_R   0.567851 0.180094 0.744312 -0.432198
N2    N     N_R   0.369169 0.655042 0.268020 0.241110
O25   O     O_R   0.344532 0.783984 0.304154 -0.439891
O26   O     O_R   0.432181 0.679987 0.255671 -0.432233

loop_
_geom_bond_atom_site_label_1
_geom_bond_atom_site_label_2
_geom_bond_distance
_ccdc_geom_bond_type
C41   C45   1.547644 S    
C53   O18   1.326239 A    
C37   H15   1.113349 S    
O4    V2    1.993661 S    
C28   H12   1.083857 S    
O12   C56   1.321619 A    
O1    C3    1.325814 A    
C29   H13   1.083057 S    
C42   C46   1.547641 S    
O2    C4    1.325805 A    
C2    O7    1.353193 A    
N1    O24   1.301203 A    
O20   V3    1.744169 S    
C58   H40   1.113921 S    
C27   C29   1.396718 A    
O5    C3    1.328440 A    
C52   N2    1.464463 S    
C44   C52   1.560132 S    
C11   C17   1.404625 A    
C23   C25   1.411095 A    
C12   C14   1.410971 A    
C38   H18   1.110682 S    
C58   H41   1.112602 S    
C6    C8    1.417076 A    
C39   H19   1.111042 S    
C15   C29   1.408026 A    
C57   H37   1.113915 S    
C38   C46   1.568644 S    
O12   V3    2.017444 S    
C5    C7    1.417026 A    
O14   V4    2.003981 S    
C37   C39   1.546092 S    
C40   H22   1.113171 S    
C19   C21   1.403851 A    
C39   H21   1.113175 S    
C38   C40   1.546092 S    
C25   C35   1.402794 A    
C30   H14   1.083099 S    
C26   C36   1.402813 A    
C1    C48   1.537062 S    
C5    O21   1.381784 S    
C10   H2    1.084316 S    
O19   V4    1.744140 S    
O5    V1    2.004143 S    
O6    V2    2.004176 S    
C28   C30   1.396730 A    
C40   C48   1.543136 S    
O15   C55   1.339235 A    
C39   C47   1.543119 S    
C20   H6    1.083611 S    
C43   C45   1.551273 S    
C32   C34   1.409402 A    
C48   C52   1.577854 S    
C34   C36   1.406924 A    
C33   C35   1.406895 A    
C37   H17   1.110704 S    
C46   C55   1.536424 S    
C5    C15   1.413907 A    
C6    C16   1.413900 A    
O4    C2    1.375601 A    
C58   H42   1.102053 S    
H26   C50   1.112923 S    
C20   C22   1.403885 A    
C44   H28   1.113343 S    
O16   C56   1.339238 A    
C37   C45   1.568649 S    
C57   H39   1.101999 S    
C21   C31   1.407285 A    
C42   C50   1.558938 S    
N2    O26   1.301172 A    
C51   N1    1.464475 S    
O13   V3    2.003938 S    
C18   C20   1.400813 A    
C35   H9    1.084246 S    
C43   C51   1.560156 S    
C32   H8    1.084264 S    
C48   C50   1.565722 S    
O6    C4    1.328434 A    
C27   H11   1.083830 S    
C22   C32   1.407285 A    
O13   C53   1.330266 A    
O1    V2    1.998374 S    
C19   H5    1.083577 S    
C52   H32   1.115259 S    
O2    V1    1.998346 S    
C31   C33   1.409383 A    
O15   V3    1.993632 S    
C43   H29   1.106656 S    
C13   C23   1.415865 A    
C9    H1    1.084275 S    
C57   H38   1.112591 S    
C14   C24   1.415863 A    
C6    O22   1.381868 S    
C44   C46   1.551315 S    
C9    C11   1.405771 A    
C10   C12   1.405766 A    
C47   C49   1.565716 S    
N1    O23   1.298506 A    
O18   V4    1.998664 S    
O3    V1    1.993654 S    
C50   H36   1.109261 S    
C8    C53   1.492407 S    
C17   H3    1.083661 S    
C31   H7    1.084245 S    
C18   H4    1.083692 S    
H25   C49   1.112928 S    
C42   H34   1.112785 S    
C45   C56   1.536421 S    
C41   C49   1.558919 S    
C41   H33   1.112809 S    
H24   C42   1.112718 S    
C8    C10   1.409037 A    
C4    C33   1.485329 S    
O3    C1    1.375602 A    
C36   H10   1.084259 S    
O14   C54   1.330271 A    
C13   C15   1.411665 A    
C2    C47   1.537066 S    
C14   C16   1.411732 A    
O16   V4    1.993638 S    
C24   C26   1.411130 A    
N2    O25   1.298568 A    
O7    V1    1.998220 S    
C1    O8    1.353194 A    
C25   C27   1.400769 A    
O8    V2    1.998224 S    
O21   C57   1.411244 S    
C26   C28   1.400822 A    
C51   H31   1.115255 S    
C44   H30   1.106635 S    
O11   C55   1.321631 A    
C16   C30   1.408047 A    
C21   C23   1.411668 A    
C22   C24   1.411708 A    
C11   C13   1.410929 A    
C47   C51   1.577848 S    
C12   C18   1.404675 A    
O17   V3    1.998645 S    
C7    C54   1.492448 S    
C17   C19   1.400816 A    
O9    V2    1.744490 S    
O11   V4    2.017450 S    
O10   V1    1.744520 S    
C3    C34   1.485354 S    
C40   H20   1.111040 S    
C49   H35   1.109247 S    
O22   C58   1.411317 S    
H23   C41   1.112718 S    
C43   H27   1.113350 S    
C38   H16   1.113348 S    
C7    C9    1.408981 A    
C54   O17   1.326245 A    
