data_mof_unit_41118.cif
_audit_creation_date              2012-12-10T16:50:08-0500
_audit_creation_method            fapswitch 2.2
_symmetry_space_group_name_H-M    P1
_symmetry_Int_Tables_number       1
_space_group_crystal_system       triclinic
_cell_length_a                    23.458181
_cell_length_b                    8.736855
_cell_length_c                    7.443764
_cell_angle_alpha                 103.660281
_cell_angle_beta                  94.471057
_cell_angle_gamma                 92.674533
_cell_volume                      1474.60081837

loop_
_atom_site_label
_atom_site_type_symbol
_atom_type_description
_atom_site_fract_x
_atom_site_fract_y
_atom_site_fract_z
_atom_type_partial_charge
C1    C     C_R   0.497391 0.199941 0.453252 0.795276
C2    C     C_R   0.502614 0.800059 0.546747 0.795281
C3    C     C_R   0.234608 0.510405 0.347648 -0.115172
C4    C     C_R   0.765391 0.489576 0.652348 -0.115169
C5    C     C_R   0.293923 0.511669 0.346132 -0.225107
C6    C     C_R   0.706076 0.488317 0.653864 -0.225106
C7    C     C_R   0.328444 0.501536 0.505494 -0.032591
C8    C     C_R   0.671556 0.498460 0.494506 -0.032585
C9    C     C_R   0.302637 0.491228 0.666708 -0.233476
C10   C     C_R   0.697363 0.508771 0.333295 -0.233476
C11   C     C_R   0.243199 0.488940 0.667441 -0.111220
C12   C     C_R   0.756801 0.511053 0.332563 -0.111227
C13   C     C_R   0.209040 0.497842 0.507709 0.352552
C14   C     C_R   0.790960 0.502143 0.492291 0.352553
C15   C     C_2   0.492190 0.032148 0.428151 0.125121
C16   C     C_2   0.507821 0.967851 0.571844 0.125111
C17   C     C_R   0.390958 0.500516 0.502008 0.773761
C18   C     C_R   0.609042 0.499483 0.497991 0.773748
C19   C     C_R   0.885309 0.631158 0.596544 0.494231
C20   C     C_R   0.114690 0.368825 0.403459 0.494230
C21   C     C_R   0.875827 0.375849 0.389340 0.510952
C22   C     C_R   0.124172 0.624134 0.610663 0.510951
C23   C     C_R   0.935367 0.367769 0.402478 -0.016587
C24   C     C_R   0.064633 0.632214 0.597526 -0.016586
C25   C     C_R   0.970076 0.502929 0.495659 -0.033524
C26   C     C_R   0.029924 0.497054 0.504344 -0.033524
C27   C     C_R   0.944827 0.643349 0.580272 -0.064781
C28   C     C_R   0.055172 0.356634 0.419732 -0.064781
C29   C     C_R   0.960112 0.224871 0.334952 -0.200992
C30   C     C_R   0.039887 0.775112 0.665052 -0.200992
C31   C     C_R   0.019806 0.213572 0.350436 0.004240
C32   C     C_R   0.980194 0.786412 0.649568 0.004240
Cu1   Cu    Cu3+1 0.506340 0.517380 0.684380 0.958501
Cu2   Cu    Cu3+1 0.493660 0.482620 0.315620 0.958514
H1    H     H_    0.931964 0.119927 0.281122 0.181691
H2    H     H_    0.068036 0.880056 0.718882 0.181691
H3    H     H_    0.208452 0.519081 0.224438 0.136668
H4    H     H_    0.791546 0.480895 0.775556 0.136666
H5    H     H_    0.312698 0.521127 0.220433 0.153900
H6    H     H_    0.687301 0.478856 0.779559 0.153890
H7    H     H_    0.328244 0.483352 0.791330 0.149962
H8    H     H_    0.671757 0.516654 0.208676 0.149967
H9    H     H_    0.223593 0.479741 0.791814 0.138154
H10   H     H_    0.776408 0.520257 0.208194 0.138154
H11   H     H_    0.454775 0.378457 0.947948 0.235852
H12   H     H_    0.545225 0.621543 0.052052 0.235857
N1    N     N_R   0.852008 0.503971 0.491119 -0.464465
N2    N     N_R   0.147992 0.496013 0.508883 -0.464465
N3    N     N_2   0.484110 0.456420 0.038520 -0.211102
N4    N     N_2   0.515890 0.543580 0.961480 -0.211126
O1    O     O_R   0.504120 0.286130 0.619770 -0.552696
O2    O     O_R   0.495880 0.713870 0.380230 -0.552698
O3    O     O_R   0.493410 0.256770 0.308360 -0.555480
O4    O     O_R   0.506590 0.743230 0.691640 -0.555456
O5    O     O_R   0.423230 0.514630 0.655730 -0.597198
O6    O     O_R   0.576770 0.485370 0.344270 -0.597190
O7    O     O_R   0.412530 0.485280 0.344320 -0.592713
O8    O     O_R   0.587470 0.514720 0.655680 -0.592737
O9    O     O_2   0.861155 0.741459 0.720932 -0.543784
O10   O     O_2   0.138845 0.258524 0.279070 -0.543785
O11   O     O_2   0.841908 0.254192 0.281903 -0.558730
O12   O     O_2   0.158091 0.745791 0.718101 -0.558731
C33   C     C_R   0.042785 0.051373 0.309267 0.141014
C34   C     C_R   0.092840 0.020379 0.408905 -0.054964
C35   C     C_R   0.118267 0.877262 0.353985 -0.100019
C36   C     C_R   0.090827 0.755604 0.213511 -0.099215
C37   C     C_R   0.037869 0.777141 0.128063 -0.110436
C38   C     C_R   0.013999 0.923358 0.174924 -0.196565
H13   H     H_    0.113638 0.108661 0.525674 0.131802
H14   H     H_    0.158952 0.859967 0.422663 0.166848
H15   H     H_    0.109957 0.643606 0.173884 0.127333
H16   H     H_    0.015705 0.681301 0.022687 0.141614
H17   H     H_    0.973642 0.935191 0.101227 0.152827
C39   C     C_R   0.957215 0.948610 0.690737 0.141015
C40   C     C_R   0.986001 0.076625 0.825080 -0.196566
C41   C     C_R   0.962131 0.222842 0.871942 -0.110436
C42   C     C_R   0.909173 0.244380 0.786493 -0.099215
C43   C     C_R   0.881733 0.122722 0.646019 -0.100020
C44   C     C_R   0.907160 0.979604 0.591099 -0.054964
H18   H     H_    0.026358 0.064791 0.898777 0.152828
H19   H     H_    0.984295 0.318682 0.977318 0.141614
H20   H     H_    0.890043 0.356378 0.826120 0.127334
H21   H     H_    0.841049 0.140017 0.577342 0.166848
H22   H     H_    0.886362 0.891323 0.474330 0.131802
O13   O     O_3   0.473989 0.940807 0.251606 -0.556178
C45   C     C_3   0.413551 0.936268 0.226018 0.095283
H23   H     H_    0.398828 0.055290 0.224297 0.140829
H24   H     H_    0.393640 0.892814 0.337536 0.116589
C46   C     C_3   0.392906 0.823721 0.040677 -0.692564
H25   H     H_    0.405523 0.702755 0.040219 0.251331
H26   H     H_    0.345482 0.820861 0.017684 0.184638
H27   H     H_    0.411971 0.863236 0.925885 0.258599
O14   O     O_3   0.526024 0.059193 0.748386 -0.556190
C47   C     C_3   0.586461 0.063752 0.773961 0.095291
H28   H     H_    0.606367 0.107119 0.662377 0.116552
H29   H     H_    0.601187 0.944756 0.775797 0.140862
C48   C     C_3   0.607106 0.176425 0.959217 -0.692538
H30   H     H_    0.588012 0.137077 0.074081 0.258667
H31   H     H_    0.654528 0.179213 0.982265 0.184634
H32   H     H_    0.594521 0.297392 0.959488 0.251257

loop_
_geom_bond_atom_site_label_1
_geom_bond_atom_site_label_2
_ccdc_geom_bond_type
Cu1   O5    S    
C22   N2    A    
Cu2   O6    S    
O14   C47   S    
C10   H8    S    
C48   H30   S    
C42   C43   A    
C16   O14   S    
Cu1   O8    S    
C23   C29   A    
C24   C26   A    
C32   C39   S    
C44   H22   S    
C45   H24   S    
C20   O10   S    
C15   C16   D    
C37   H16   S    
C1    O3    A    
Cu1   N4    S    
C43   H21   S    
C18   O8    A    
C7    C17   S    
Cu2   O7    S    
C11   H9    S    
C1    C15   S    
C46   H26   S    
C2    C16   S    
C40   H18   S    
C17   O5    A    
C21   O11   S    
C3    C13   A    
C18   O6    A    
C15   O13   S    
C36   C37   A    
C10   C12   A    
C26   C28   A    
C48   H31   S    
C39   C40   A    
C37   C38   A    
C31   C33   S    
C41   C42   A    
C4    C6    A    
C2    O4    A    
C5    C7    A    
C45   H23   S    
C6    C8    A    
C20   C28   A    
C47   C48   S    
C19   O9    S    
C25   C26   A    
O13   C45   S    
C8    C18   S    
C40   C41   A    
C22   O12   S    
C1    O1    A    
C36   H15   S    
H11   N3    S    
Cu1   Cu2   S    
C34   H13   S    
C46   H27   S    
C47   H29   S    
C9    C11   A    
C20   N2    A    
C2    O2    A    
C8    C10   A    
C4    H4    S    
C35   C36   A    
C39   C44   A    
C21   C23   A    
C22   C24   A    
Cu1   O1    S    
C48   H32   S    
C19   C27   A    
Cu1   O4    S    
C7    C9    A    
C29   H1    S    
C33   C38   A    
Cu2   N3    S    
C27   C32   A    
C43   C44   A    
C9    H7    S    
C28   C31   A    
C12   C14   A    
C3    C5    A    
C45   C46   S    
C41   H19   S    
C13   N2    S    
C14   N1    S    
C25   C27   A    
H12   N4    S    
Cu2   O2    S    
C30   H2    S    
C34   C35   A    
C5    H5    S    
C38   H17   S    
C29   C31   A    
C30   C32   A    
C11   C13   A    
C42   H20   S    
C6    H6    S    
C23   C25   A    
C4    C14   A    
C47   H28   S    
C24   C30   A    
C33   C34   A    
C3    H3    S    
Cu2   O3    S    
C12   H10   S    
N3    N4    D    
C19   N1    A    
C46   H25   S    
C35   H14   S    
C17   O7    A    
C21   N1    A    
