data_mof_unit_5804.cif
_audit_creation_date              2012-12-11T15:39:25-0500
_audit_creation_method            fapswitch 2.2
_symmetry_space_group_name_H-M    P1
_symmetry_Int_Tables_number       1
_space_group_crystal_system       triclinic
_cell_length_a                    6.962547
_cell_length_b                    15.121112
_cell_length_c                    16.649031
_cell_angle_alpha                 95.324804
_cell_angle_beta                  91.036012
_cell_angle_gamma                 90.75273
_cell_volume                      1744.79148074

loop_
_atom_site_label
_atom_site_type_symbol
_atom_type_description
_atom_site_fract_x
_atom_site_fract_y
_atom_site_fract_z
_atom_type_partial_charge
O1    O     O_R   0.633330 0.174290 0.828230 -0.544482
O2    O     O_R   0.366670 0.825710 0.171770 -0.535472
O3    O     O_R   0.301450 0.154140 0.662030 -0.549494
O4    O     O_R   0.698550 0.845860 0.337970 -0.550788
O5    O     O_R   0.133140 0.325730 0.671770 -0.524034
O6    O     O_R   0.866860 0.674270 0.328230 -0.529922
C1    C     C_R   0.469250 0.131313 0.633704 0.711816
C2    C     C_R   0.530746 0.868717 0.366272 0.707038
O7    O     O_R   0.303490 0.163670 0.827000 -0.545722
O8    O     O_R   0.696510 0.836330 0.173000 -0.535093
O9    O     O_R   0.135190 0.335320 0.837920 -0.519602
O10   O     O_R   0.864810 0.664680 0.162080 -0.520775
C3    C     C_R   0.472767 0.143149 0.853870 0.668044
C4    C     C_R   0.527234 0.856609 0.145928 0.726649
O11   O     O_R   0.631280 0.164690 0.662080 -0.537768
O12   O     O_R   0.368720 0.835310 0.337920 -0.538577
O13   O     O_3   0.467420 0.306310 0.753380 -0.349944
O14   O     O_3   0.532580 0.693690 0.246620 -0.375607
V1    V     V_3+5 0.191790 0.239560 0.749370 1.464534
V2    V     V_3+5 0.808210 0.760440 0.250630 1.479297
O15   O     O_R   0.805590 0.345870 0.837970 -0.532947
O16   O     O_R   0.194410 0.654130 0.162030 -0.546233
C5    C     C_R   0.976666 0.363967 0.869170 0.797490
C6    C     C_R   0.022557 0.627903 0.136908 0.830967
O17   O     O_R   0.803560 0.336340 0.672990 -0.535432
O18   O     O_R   0.196440 0.663660 0.327010 -0.542543
C7    C     C_R   0.972030 0.356668 0.645969 0.756083
C8    C     C_R   0.027975 0.643339 0.354038 0.746105
V3    V     V_3+5 0.692030 0.260450 0.750630 1.469797
V4    V     V_3+5 0.307970 0.739550 0.249370 1.459915
O19   O     O_3   0.966260 0.193700 0.746610 -0.386278
O20   O     O_3   0.033740 0.806300 0.253390 -0.380623
C9    C     C_1   0.981990 0.418679 0.583504 -0.144002
C10   C     C_1   0.018005 0.581266 0.416444 -0.128579
C11   C     C_1   0.992990 0.469897 0.530962 0.050113
C12   C     C_1   0.006994 0.530011 0.468952 0.051513
C13   C     C_3   0.895321 0.557002 0.991050 0.359379
C14   C     C_3   0.100620 0.417457 0.026499 0.372320
C15   C     C_3   0.073971 0.522986 0.944794 -0.193331
C16   C     C_3   0.927540 0.454666 0.075464 -0.232420
C17   C     C_3   0.994316 0.426569 0.944642 -0.291819
C18   C     C_3   0.005375 0.551384 0.071961 -0.274898
C19   C     C_3   0.818489 0.460521 0.993933 0.350158
C20   C     C_3   0.179794 0.513320 0.025913 0.380334
C21   C     C_3   0.674728 0.033555 0.523367 -0.280295
C22   C     C_3   0.325264 0.966515 0.476577 -0.279926
C23   C     C_3   0.612322 0.934076 0.520112 -0.100861
C24   C     C_3   0.387671 0.065996 0.479833 -0.102387
H1    H     H_    0.819788 0.060471 0.541613 0.141855
H2    H     H_    0.180203 0.939599 0.458333 0.141667
C25   C     C_3   0.519260 0.939385 0.436151 -0.227708
C26   C     C_3   0.480734 0.060681 0.563795 -0.229562
C27   C     C_3   0.577883 0.038331 0.439456 0.540343
C28   C     C_3   0.422111 0.961739 0.560485 0.539001
C29   C     C_1   0.483494 0.081422 0.916501 -0.209863
C30   C     C_1   0.516434 0.918785 0.083637 -0.190990
C31   C     C_1   0.493678 0.030304 0.969150 -0.001827
C32   C     C_1   0.506195 0.970153 0.031180 0.005949
C33   C     C_2   0.163845 0.566458 0.877137 0.418223
H3    H     H_    0.213769 0.634888 0.887223 0.053866
O21   O     O_2   0.181207 0.525849 0.810936 -0.531596
C34   C     C_2   0.858857 0.418841 0.151214 0.377514
H4    H     H_    0.805869 0.351152 0.150173 0.048868
O22   O     O_2   0.862917 0.465622 0.215009 -0.544045
O23   O     O_3   0.788011 0.632777 0.976760 -0.548900
C35   C     C_3   0.689474 0.618503 0.901956 -0.123541
H5    H     H_    0.576757 0.566212 0.903156 0.203594
H6    H     H_    0.788495 0.601723 0.851429 0.124948
H7    H     H_    0.616375 0.680781 0.889898 0.141558
O24   O     O_3   0.217984 0.348123 0.048872 -0.558871
C36   C     C_3   0.124483 0.265186 0.032238 -0.282367
H8    H     H_    0.982346 0.263053 0.060876 0.118431
H9    H     H_    0.213909 0.214004 0.057692 0.168769
H10   H     H_    0.111153 0.246505 0.966442 0.133623
O25   O     O_3   0.629348 0.429704 0.974576 -0.530385
C37   C     C_3   0.609938 0.337804 0.984521 -0.053625
H11   H     H_    0.738042 0.297848 0.968678 0.046238
H12   H     H_    0.489729 0.310276 0.945028 0.175918
H13   H     H_    0.576243 0.326008 0.047145 0.112142
O26   O     O_3   0.370931 0.541579 0.044216 -0.537949
C38   C     C_3   0.431498 0.513183 0.119341 0.057212
H14   H     H_    0.317154 0.510811 0.164786 0.089721
H15   H     H_    0.548843 0.557819 0.144737 0.161341
H16   H     H_    0.488589 0.446081 0.111963 0.142336
C39   C     C_2   0.744009 0.861528 0.540546 0.417233
H17   H     H_    0.880644 0.853738 0.510630 0.042616
O27   O     O_2   0.698417 0.810662 0.589893 -0.508380
C40   C     C_2   0.255985 0.138548 0.459403 0.419083
H18   H     H_    0.119343 0.146330 0.489315 0.042490
O28   O     O_2   0.301584 0.189425 0.410067 -0.506054
O29   O     O_3   0.669521 0.083920 0.380152 -0.539681
C41   C     C_3   0.579873 0.062828 0.304052 -0.140024
H19   H     H_    0.421286 0.053379 0.306950 0.127477
H20   H     H_    0.645332 0.002689 0.273357 0.102594
H21   H     H_    0.606609 0.118323 0.266370 0.168541
O30   O     O_3   0.330494 0.916153 0.619794 -0.540949
C42   C     C_3   0.420114 0.937283 0.695894 -0.135145
H22   H     H_    0.354467 0.997366 0.726603 0.108529
H23   H     H_    0.578677 0.946840 0.693000 0.127943
H24   H     H_    0.393575 0.881758 0.733560 0.170142

loop_
_geom_bond_atom_site_label_1
_geom_bond_atom_site_label_2
_ccdc_geom_bond_type
C35   H6    S    
C14   O24   S    
C6    C18   S    
C4    C30   S    
C11   C12   S    
C37   H13   S    
O4    C2    A    
V1    O19   S    
C42   H24   S    
C38   H14   S    
C16   C34   S    
C15   C17   S    
C39   H17   S    
C7    C9    S    
O9    V1    S    
C23   C39   S    
C14   C16   S    
C37   H12   S    
C1    C26   S    
O3    C1    A    
C9    C11   T    
C35   H7    S    
O12   V4    S    
C42   H22   S    
O13   V3    S    
C13   C18   S    
O7    C3    A    
C34   O22   D    
C38   H15   S    
O5    C7    A    
O7    V1    S    
C16   C19   S    
O6    C8    A    
O8    V2    S    
C13   O23   S    
C27   O29   S    
C24   C40   S    
O3    V1    S    
O24   C36   S    
O14   V4    S    
C28   O30   S    
C39   O27   D    
C35   H5    S    
C8    C10   S    
C33   H3    S    
C2    O12   A    
C19   O25   S    
C17   C19   S    
C22   C28   S    
C18   C20   S    
O1    V3    S    
C42   H23   S    
C26   C28   S    
O11   V3    S    
C21   C23   S    
O17   V3    S    
C24   C27   S    
C22   C24   S    
C33   O21   D    
C20   O26   S    
C37   H11   S    
C14   C17   S    
O8    C4    A    
O29   C41   S    
C36   H9    S    
O26   C38   S    
C23   C25   S    
C1    O11   A    
C21   C26   S    
O15   V3    S    
C22   C25   S    
C41   H21   S    
C25   C27   S    
C13   C19   S    
O25   C37   S    
C14   C20   S    
C34   H4    S    
C21   H1    S    
C15   C33   S    
O30   C42   S    
O10   V2    S    
C41   H20   S    
C2    C25   S    
C23   C28   S    
C40   O28   D    
O18   V4    S    
C29   C31   T    
O16   C6    A    
O1    C3    A    
C38   H16   S    
V2    O20   S    
C22   H2    S    
O16   V4    S    
C16   C18   S    
C36   H10   S    
C15   C20   S    
O5    V1    S    
O17   C7    A    
O6    V2    S    
O10   C6    A    
O18   C8    A    
C5    C17   S    
O2    V4    S    
O15   C5    A    
C36   H8    S    
V3    O19   S    
V4    O20   S    
C31   C32   S    
O9    C5    A    
C41   H19   S    
O13   V1    S    
C10   C12   T    
C30   C32   T    
O14   V2    S    
O2    C4    A    
C21   C27   S    
O4    V2    S    
C24   C26   S    
C40   H18   S    
C13   C15   S    
O23   C35   S    
C3    C29   S    
