data_mof_unit_24231.cif
_audit_creation_date              2012-12-11T17:14:03-0500
_audit_creation_method            fapswitch 2.2
_symmetry_space_group_name_H-M    P1
_symmetry_Int_Tables_number       1
_space_group_crystal_system       monoclinic
_cell_length_a                    18.209712
_cell_length_b                    7.091854
_cell_length_c                    13.002866
_cell_angle_alpha                 90.0
_cell_angle_beta                  72.273816
_cell_angle_gamma                 90.0
_cell_volume                      1599.47393031

loop_
_atom_site_label
_atom_site_type_symbol
_atom_type_description
_atom_site_fract_x
_atom_site_fract_y
_atom_site_fract_z
_atom_type_partial_charge
O1    O     O_R   0.453880 0.506200 0.150010 -0.536161
O2    O     O_R   0.546120 0.006200 0.849990 -0.536161
O3    O     O_R   0.604080 0.177770 0.007280 -0.532517
O4    O     O_R   0.395920 0.677770 0.992720 -0.532518
C1    C     C_R   0.635955 0.344498 0.001882 0.740542
C2    C     C_R   0.364045 0.844498 0.998118 0.740541
O5    O     O_R   0.458010 0.176640 0.159130 -0.546446
O6    O     O_R   0.541990 0.676640 0.840870 -0.546446
O7    O     O_R   0.399010 0.004010 0.002930 -0.536669
O8    O     O_R   0.600990 0.504010 0.997070 -0.536669
C3    C     C_R   0.443791 0.345502 0.201714 0.702960
C4    C     C_R   0.556209 0.845502 0.798286 0.702960
O9    O     O_3   0.480810 0.338440 0.948570 -0.375239
O10   O     O_3   0.519190 0.838440 0.051430 -0.375239
V1    V     V_3+5 0.503560 0.064490 0.009540 1.494631
V2    V     V_3+5 0.496440 0.564490 0.990460 1.494631
C5    C     C_R   0.576659 0.914397 0.503732 -0.159185
C6    C     C_R   0.423341 0.414399 0.496268 -0.159185
H1    H     H_    0.651646 0.922493 0.296833 0.165121
H2    H     H_    0.348354 0.422495 0.703167 0.165121
H3    H     H_    0.540478 0.936663 0.452127 0.123409
H4    H     H_    0.459522 0.436666 0.547872 0.123409
C7    C     C_R   0.588839 0.857495 0.680926 -0.085815
C8    C     C_R   0.411160 0.357495 0.319074 -0.085815
C9    C     C_R   0.948567 0.859069 0.383507 -0.205002
C10   C     C_R   0.051433 0.359068 0.616493 -0.205003
C11   C     C_R   0.918237 0.886584 0.493537 -0.143837
C12   C     C_R   0.081762 0.386582 0.506463 -0.143837
C13   C     C_R   0.839157 0.909798 0.541124 -0.008739
C14   C     C_R   0.160843 0.409796 0.458876 -0.008739
C15   C     C_R   0.787278 0.886759 0.478420 -0.007375
C16   C     C_R   0.212722 0.386759 0.521580 -0.007375
C17   C     C_R   0.819217 0.877376 0.362877 -0.019546
C18   C     C_R   0.180783 0.377376 0.637123 -0.019546
C19   C     C_R   0.705147 0.880346 0.525378 0.063503
C20   C     C_R   0.294853 0.380346 0.474622 0.063503
C21   C     C_R   0.657124 0.903344 0.458731 0.065517
C22   C     C_R   0.342876 0.403345 0.541269 0.065517
C23   C     C_R   0.689093 0.909247 0.347343 -0.164158
C24   C     C_R   0.310907 0.409248 0.652657 -0.164159
C25   C     C_R   0.767914 0.887641 0.298691 0.317843
C26   C     C_R   0.232086 0.387642 0.701309 0.317843
C27   C     C_R   0.668723 0.842266 0.635741 -0.186473
C28   C     C_R   0.331277 0.342265 0.364259 -0.186474
C29   C     C_R   0.542431 0.896776 0.614884 -0.054164
C30   C     C_R   0.457569 0.396777 0.385116 -0.054164
C31   C     C_R   0.901042 0.862689 0.317272 -0.065088
C32   C     C_R   0.098958 0.362689 0.682728 -0.065088
H5    H     H_    0.700867 0.794924 0.688141 0.123373
H6    H     H_    0.299133 0.294923 0.311859 0.123373
H7    H     H_    0.010613 0.847866 0.348679 0.115398
H8    H     H_    0.989387 0.347866 0.651321 0.115399
H9    H     H_    0.957556 0.899822 0.541246 0.130255
H10   H     H_    0.042444 0.399820 0.458754 0.130256
C33   C     C_1   0.216330 0.858773 0.000177 -0.073091
C34   C     C_1   0.783670 0.358773 0.999822 -0.073091
C35   C     C_1   0.283636 0.852549 0.998959 -0.103356
C36   C     C_1   0.716364 0.352548 0.001040 -0.103356
O11   O     O_R   0.899030 0.205490 0.002790 -0.516297
O12   O     O_R   0.100970 0.705490 0.997210 -0.516297
O13   O     O_R   0.042000 0.536370 0.840840 -0.540795
O14   O     O_R   0.958000 0.036370 0.159160 -0.540795
C37   C     C_R   0.059393 0.368565 0.798673 0.770714
C38   C     C_R   0.940607 0.868565 0.201326 0.770715
O15   O     O_R   0.895930 0.535070 0.992690 -0.524346
O16   O     O_R   0.104070 0.035070 0.007310 -0.524346
O17   O     O_R   0.953870 0.707520 0.150040 -0.532817
O18   O     O_R   0.046130 0.207520 0.849960 -0.532817
C39   C     C_R   0.864124 0.366764 0.998748 0.739941
C40   C     C_R   0.135876 0.866764 0.001252 0.739941
O19   O     O_3   0.019200 0.374340 0.051340 -0.367419
O20   O     O_3   0.980800 0.874340 0.948660 -0.367420
V3    V     V_3+5 0.996440 0.648350 0.990470 1.573393
V4    V     V_3+5 0.003560 0.148350 0.009530 1.573392
C41   C     C_1   0.459697 0.913925 0.659086 0.262402
N1    N     N_1   0.393420 0.927658 0.694453 -0.342413
C42   C     C_1   0.540303 0.413927 0.340914 0.262402
N2    N     N_1   0.606580 0.427662 0.305546 -0.342413
C43   C     C_1   0.816408 0.986280 0.649390 0.261189
N3    N     N_1   0.798710 0.048267 0.735858 -0.367509
C44   C     C_1   0.183592 0.486277 0.350610 0.261189
N4    N     N_1   0.201289 0.548263 0.264142 -0.367509
Cl1   Cl    Cl    0.794627 0.875134 0.156424 -0.655732
Cl2   Cl    Cl    0.205373 0.375135 0.843576 -0.655732

loop_
_geom_bond_atom_site_label_1
_geom_bond_atom_site_label_2
_ccdc_geom_bond_type
C22   C24   A    
C7    C29   A    
C11   C13   A    
C3    C8    S    
O1    C3    A    
O2    C4    A    
C2    O7    A    
C44   N4    T    
O15   V3    S    
C23   C25   A    
C42   N2    T    
O5    C3    A    
C4    C7    S    
C1    C36   S    
C16   C20   A    
C19   C21   A    
C5    C29   A    
H2    C24   S    
O15   C39   A    
O18   V4    S    
C25   Cl1   S    
O12   V3    S    
C7    C27   A    
O13   C37   A    
O14   C38   A    
C18   C26   A    
C15   C17   A    
O17   V3    S    
C19   C27   A    
C9    C31   A    
C10   C32   A    
C24   C26   A    
O6    V2    S    
C2    C35   S    
C6    C30   A    
C38   O17   A    
C26   Cl2   S    
O20   V4    S    
C31   C38   S    
O19   V3    S    
C12   H10   S    
C27   H5    S    
C32   C37   S    
O13   V3    S    
C5    H3    S    
C16   C18   A    
O4    V2    S    
C41   N1    T    
C9    H7    S    
C10   H8    S    
O19   V4    S    
C13   C43   S    
O12   C40   A    
O6    C4    A    
O1    V2    S    
C5    C21   A    
O2    V1    S    
O11   V4    S    
H1    C23   S    
O11   C39   A    
O4    C2    A    
C33   C35   T    
C17   C31   A    
C15   C19   A    
C20   C28   A    
C18   C32   A    
C20   C22   A    
O3    V1    S    
C28   H6    S    
C37   O18   A    
C6    H4    S    
O20   V3    S    
O3    C1    A    
C30   C42   S    
C11   H9    S    
C9    C11   A    
C10   C12   A    
C29   C41   S    
C17   C25   A    
C14   C44   S    
C12   C14   A    
C6    C22   A    
C8    C30   A    
C1    O8    A    
C21   C23   A    
O8    V2    S    
C14   C16   A    
O16   C40   A    
C8    C28   A    
O5    V1    S    
C34   C36   T    
O7    V1    S    
C33   C40   S    
C43   N3    T    
C13   C15   A    
C34   C39   S    
O9    V2    S    
O10   V1    S    
O14   V4    S    
O16   V4    S    
