data_mof_unit_60060.cif
_audit_creation_date              2013-03-05T16:08:54-0500
_audit_creation_method            fapswitch 2.2
_symmetry_space_group_name_H-M    P1
_symmetry_Int_Tables_number       1
_space_group_crystal_system       triclinic
_cell_length_a                    17.299618
_cell_length_b                    6.882957
_cell_length_c                    14.35277
_cell_angle_alpha                 89.999987
_cell_angle_beta                  110.263281
_cell_angle_gamma                 90.000012
_cell_volume                      1603.25115503

loop_
_atom_site_label
_atom_site_type_symbol
_atom_site_description
_atom_site_fract_x
_atom_site_fract_y
_atom_site_fract_z
_atom_type_partial_charge
O1    O     O_R   0.314130 0.635770 0.168990 -0.594190
O2    O     O_R   0.685870 0.364230 0.831010 -0.594191
O3    O     O_R   0.185870 0.135770 0.331010 -0.594192
O4    O     O_R   0.814130 0.864230 0.668990 -0.594190
O5    O     O_R   0.146800 0.302460 0.139760 -0.593611
O6    O     O_R   0.853200 0.697540 0.860240 -0.593611
O7    O     O_R   0.353200 0.802460 0.360240 -0.593611
O8    O     O_R   0.646800 0.197540 0.639760 -0.593611
C1    C     C_R   0.113985 0.475814 0.112812 0.971478
C2    C     C_R   0.886015 0.524186 0.887188 0.971468
C3    C     C_R   0.386015 0.975814 0.387188 0.971472
C4    C     C_R   0.613985 0.024186 0.612812 0.971472
O9    O     O_R   0.311100 0.305780 0.157130 -0.598381
O10   O     O_R   0.688900 0.694220 0.842870 -0.598382
O11   O     O_R   0.188900 0.805780 0.342870 -0.598379
O12   O     O_R   0.811100 0.194220 0.657130 -0.598383
O13   O     O_R   0.351340 0.139640 0.348510 -0.593247
O14   O     O_R   0.648660 0.860360 0.651490 -0.593246
O15   O     O_R   0.148660 0.639640 0.151490 -0.593251
O16   O     O_R   0.851340 0.360360 0.848510 -0.593244
C5    C     C_R   0.334217 0.473618 0.137607 0.978559
C6    C     C_R   0.665783 0.526382 0.862393 0.978558
C7    C     C_R   0.165784 0.973618 0.362394 0.978562
C8    C     C_R   0.834217 0.026382 0.637607 0.978557
C9    C     C_1   0.533563 0.008939 0.533061 -0.229562
C10   C     C_1   0.466437 0.991061 0.466939 -0.229562
C11   C     C_1   0.966437 0.508939 0.966939 -0.229561
C12   C     C_1   0.033563 0.491061 0.033061 -0.229562
O17   O     O_3   0.263010 0.470920 0.312770 -0.267959
O18   O     O_3   0.736990 0.529080 0.687230 -0.267960
O19   O     O_3   0.236990 0.970920 0.187230 -0.267963
O20   O     O_3   0.763010 0.029080 0.812770 -0.267958
V1    V     V_3+5 0.247590 0.194450 0.238360 1.185035
V2    V     V_3+5 0.752410 0.805550 0.761640 1.185040
V3    V     V_3+5 0.252410 0.694450 0.261640 1.185036
V4    V     V_3+5 0.747590 0.305550 0.738360 1.185040
C13   C     C_R   0.112488 0.973534 0.423681 -0.202456
C14   C     C_R   0.887512 0.026465 0.576319 -0.202485
C15   C     C_R   0.387512 0.473535 0.076319 -0.202473
C16   C     C_R   0.612488 0.526465 0.923681 -0.202476
C17   C     C_R   0.918864 0.186963 0.442424 0.392437
C18   C     C_R   0.081137 0.813037 0.557577 0.392439
C19   C     C_R   0.581137 0.686962 0.057577 0.392437
C20   C     C_R   0.418863 0.313038 0.942422 0.392438
C21   C     C_R   0.865493 0.150990 0.494364 -0.247519
C22   C     C_R   0.134507 0.849010 0.505636 -0.247535
C23   C     C_R   0.634507 0.650989 0.005636 -0.247525
C24   C     C_R   0.365492 0.349011 0.994363 -0.247528
C25   C     C_R   0.966667 0.940126 0.608972 0.208714
C26   C     C_R   0.033333 0.059872 0.391027 0.208680
C27   C     C_R   0.533333 0.440128 0.891027 0.208702
C28   C     C_R   0.466667 0.559872 0.108973 0.208700
C29   C     C_R   0.011970 0.936448 0.542258 -0.054658
C30   C     C_R   0.988030 0.063550 0.457742 -0.054671
C31   C     C_R   0.488030 0.436449 0.957741 -0.054664
C32   C     C_R   0.511970 0.563551 0.042258 -0.054665
H1    H     H_    0.190189 0.762994 0.522558 0.178928
H2    H     H_    0.809812 0.237007 0.477443 0.178928
H3    H     H_    0.309811 0.262996 0.977441 0.178927
H4    H     H_    0.690189 0.737004 0.022558 0.178928
C33   C     C_3   0.993069 0.111210 0.280777 -0.351934
C34   C     C_3   0.977178 0.930374 0.214551 -0.849014
H5    H     H_    0.035202 0.863367 0.214160 0.252945
H6    H     H_    0.941555 0.821250 0.240095 0.294490
H7    H     H_    0.940754 0.971360 0.136825 0.251876
H8    H     H_    0.931720 0.177731 0.262878 0.231273
H9    H     H_    0.031642 0.216800 0.257974 0.207338
C35   C     C_3   0.006932 0.888803 0.719224 -0.351989
C36   C     C_3   0.022842 0.069658 0.785438 -0.848977
H10   H     H_    0.058512 0.178696 0.759916 0.294491
H11   H     H_    0.964826 0.136772 0.785783 0.252949
H12   H     H_    0.059227 0.028666 0.863175 0.251867
H13   H     H_    0.968351 0.783252 0.742037 0.207331
H14   H     H_    0.068273 0.822242 0.737125 0.231284
C37   C     C_3   0.506932 0.611200 0.219224 -0.351968
C38   C     C_3   0.522835 0.430352 0.285442 -0.848985
H15   H     H_    0.464815 0.363279 0.285805 0.252947
H16   H     H_    0.558486 0.321280 0.259911 0.294490
H17   H     H_    0.559235 0.471341 0.363175 0.251869
H18   H     H_    0.568276 0.677746 0.237124 0.231280
H19   H     H_    0.468354 0.716766 0.242033 0.207333
C39   C     C_3   0.493068 0.388801 0.780775 -0.351972
C40   C     C_3   0.477164 0.569651 0.714559 -0.848985
H20   H     H_    0.441510 0.678718 0.740089 0.294491
H21   H     H_    0.535183 0.636730 0.714198 0.252947
H22   H     H_    0.440766 0.528662 0.636825 0.251869
H23   H     H_    0.531647 0.283238 0.757966 0.207332
H24   H     H_    0.431724 0.322253 0.762876 0.231281
N1    N     N_R   0.908003 0.364538 0.386188 0.227154
O21   O     O_R   0.971771 0.467236 0.388245 -0.406730
O22   O     O_R   0.834674 0.436511 0.342974 -0.390909
N2    N     N_R   0.091998 0.635463 0.613813 0.227154
O23   O     O_R   0.028230 0.532763 0.611756 -0.406720
O24   O     O_R   0.165328 0.563493 0.657029 -0.390914
N3    N     N_R   0.591998 0.864536 0.113813 0.227153
O25   O     O_R   0.528230 0.967236 0.111756 -0.406724
O26   O     O_R   0.665328 0.936506 0.157029 -0.390910
N4    N     N_R   0.408001 0.135464 0.886186 0.227153
O27   O     O_R   0.471769 0.032764 0.888243 -0.406723
O28   O     O_R   0.334671 0.063496 0.842970 -0.390913

loop_
_geom_bond_atom_site_label_1
_geom_bond_atom_site_label_2
_geom_bond_distance
_ccdc_geom_bond_type
C2    C11   1.467571 S    
C16   C23   1.397493 A    
C17   N1    1.440695 S    
C31   C32   1.435396 A    
O1    C5    1.295260 A    
C25   C35   1.533151 S    
O3    C7    1.295259 A    
N3    O25   1.301898 A    
C38   H17   1.110960 S    
C28   C37   1.533154 S    
C14   C25   1.415409 A    
C29   C30   1.435396 A    
O7    C3    1.320406 A    
C26   C30   1.432320 A    
O20   V4    2.153038 S    
C38   H16   1.111226 S    
C18   C29   1.421062 A    
O8    V4    1.971413 S    
O4    C8    1.295260 A    
C25   C29   1.432317 A    
O3    V1    2.013702 S    
C35   H14   1.101432 S    
C39   H23   1.109899 S    
O17   V1    2.153037 S    
C18   C22   1.395097 A    
C36   H11   1.106443 S    
C14   C21   1.397492 A    
C34   H6    1.111233 S    
C23   H4    1.084125 S    
C20   N4    1.440695 S    
C33   H8    1.101438 S    
C1    O15   1.307232 A    
C2    O16   1.307232 A    
C35   C36   1.532088 S    
O5    V1    1.971414 S    
O2    C6    1.295260 A    
C8    C14   1.478391 S    
O19   V1    1.687036 S    
N1    O22   1.301685 A    
C37   H18   1.101436 S    
C27   C31   1.432317 A    
C13   C22   1.397494 A    
O11   C7    1.284759 A    
C15   C28   1.415408 A    
O12   C8    1.284760 A    
O9    V1    2.010190 S    
C36   H10   1.111216 S    
O13   V1    1.974259 S    
O11   V3    2.010190 S    
O4    V2    2.013702 S    
C21   H2    1.084126 S    
O18   V2    2.153038 S    
C38   H15   1.106457 S    
C37   H19   1.109900 S    
C3    C10   1.467571 S    
C35   H13   1.109897 S    
C7    C13   1.478386 S    
O6    V2    1.971413 S    
O20   V2    1.687034 S    
C36   H12   1.110953 S    
C37   C38   1.532091 S    
O5    C1    1.320405 A    
C34   H5    1.106460 S    
C33   H9    1.109901 S    
C19   N3    1.440694 S    
C40   H20   1.111226 S    
C5    C15   1.478390 S    
O8    C4    1.320406 A    
C6    C16   1.478391 S    
N2    O24   1.301686 A    
O9    C5    1.284759 A    
O14   V2    1.974258 S    
C27   C39   1.533154 S    
C40   H21   1.106451 S    
C39   C40   1.532091 S    
N4    O28   1.301686 A    
C22   H1    1.084126 S    
O19   V3    2.153037 S    
O1    V3    2.013701 S    
C24   H3    1.084126 S    
O2    V4    2.013702 S    
C3    O13   1.307232 A    
C34   H7    1.110964 S    
O7    V3    1.971413 S    
O10   V2    2.010189 S    
N3    O26   1.301686 A    
C16   C27   1.415409 A    
O17   V3    1.687035 S    
O18   V4    1.687034 S    
C4    C9    1.467571 S    
O10   C6    1.284759 A    
C9    C10   1.225138 T    
O15   V3    1.974257 S    
O12   V4    2.010188 S    
C13   C26   1.415408 A    
C20   C31   1.421064 A    
C39   H24   1.101434 S    
N2    O23   1.301899 A    
C18   N2    1.440693 S    
C33   C34   1.532094 S    
C17   C30   1.421063 A    
O6    C2    1.320405 A    
O16   V4    1.974258 S    
C28   C32   1.432317 A    
C19   C32   1.421063 A    
C40   H22   1.110959 S    
N4    O27   1.301899 A    
C4    O14   1.307233 A    
C11   C12   1.225138 T    
C26   C33   1.533157 S    
C17   C21   1.395097 A    
N1    O21   1.301897 A    
C19   C23   1.395098 A    
C20   C24   1.395098 A    
C1    C12   1.467571 S    
C15   C24   1.397494 A    
