data_mof_unit_31842.cif
_audit_creation_date              2012-12-10T17:41:46-0500
_audit_creation_method            fapswitch 2.2
_symmetry_space_group_name_H-M    P1
_symmetry_Int_Tables_number       1
_space_group_crystal_system       triclinic
_cell_length_a                    13.753193
_cell_length_b                    13.892281
_cell_length_c                    15.012562
_cell_angle_alpha                 89.090364
_cell_angle_beta                  89.716767
_cell_angle_gamma                 85.15932
_cell_volume                      2857.73874547

loop_
_atom_site_label
_atom_site_type_symbol
_atom_type_description
_atom_site_fract_x
_atom_site_fract_y
_atom_site_fract_z
_atom_type_partial_charge
C1    C     C_R   0.500097 0.502420 0.328952 0.857256
C2    C     C_R   0.500032 0.498230 0.671018 0.842572
C3    C     C_R   0.504888 0.500475 0.953040 -0.041022
C4    C     C_R   0.505179 0.501984 0.046722 -0.038837
C5    C     C_R   0.526012 0.412076 0.908553 -0.028637
C6    C     C_R   0.485212 0.590563 0.091210 -0.032285
C7    C     C_R   0.467159 0.675774 0.948468 0.462804
C8    C     C_R   0.548890 0.327539 0.051125 0.461045
C9    C     C_R   0.467508 0.676584 0.041365 -0.258204
C10   C     C_R   0.547959 0.326679 0.958244 -0.249068
C11   C     C_R   0.788070 0.561535 0.443416 0.334570
C12   C     C_R   0.211797 0.437979 0.556129 0.357409
C13   C     C_R   0.798084 0.438281 0.555398 -0.019930
C14   C     C_R   0.201649 0.561382 0.444412 -0.014835
C15   C     C_R   0.901160 0.435482 0.555898 -0.111567
C16   C     C_R   0.098821 0.561984 0.441905 -0.089794
C17   C     C_R   0.948173 0.498788 0.498842 0.013909
C18   C     C_R   0.051803 0.498797 0.499067 0.007124
C19   C     C_R   0.891556 0.562425 0.441855 -0.085977
C20   C     C_R   0.108331 0.436091 0.556884 -0.094566
C21   C     C_R   0.958271 0.370957 0.612004 0.491875
C22   C     C_R   0.041951 0.623854 0.383452 0.457856
C23   C     C_R   0.515563 0.317142 0.499545 0.830083
C24   C     C_R   0.484439 0.682872 0.500552 0.840500
C25   C     C_R   0.060195 0.373327 0.613583 -0.276541
C26   C     C_R   0.939654 0.624835 0.384942 -0.294884
C27   C     C_1   0.475150 0.785617 0.502946 -0.188766
C28   C     C_1   0.524802 0.214393 0.498289 -0.182523
C29   C     C_2   0.459099 0.975772 0.506284 0.161795
C30   C     C_2   0.539818 0.023919 0.497130 0.118389
C31   C     C_1   0.532409 0.127794 0.497485 -0.076098
C32   C     C_1   0.467187 0.872205 0.504823 0.073268
C33   C     C_R   0.524563 0.410673 0.815012 0.408938
C34   C     C_R   0.483196 0.591356 0.184882 0.398903
C35   C     C_R   0.500136 0.497029 0.767316 -0.153316
C36   C     C_R   0.500895 0.503910 0.232576 -0.153904
C37   C     C_R   0.478878 0.584027 0.811085 -0.298654
C38   C     C_R   0.521662 0.416879 0.188771 -0.306039
C39   C     C_R   0.483246 0.587298 0.903881 0.019240
C40   C     C_R   0.525304 0.414896 0.095864 0.020033
Cu1   Cu    Cu3+1 0.597420 0.500010 0.499990 0.979104
Cu2   Cu    Cu3+1 0.402580 0.499990 0.500010 0.959290
H1    H     H_    0.461139 0.649392 0.771976 0.177046
H2    H     H_    0.535580 0.350903 0.227887 0.175547
H3    H     H_    0.452723 0.745185 0.074052 0.199441
H4    H     H_    0.563668 0.258284 0.925429 0.199937
H5    H     H_    0.760495 0.391025 0.599180 0.178073
H6    H     H_    0.238577 0.610036 0.401926 0.156097
H7    H     H_    0.100909 0.324777 0.659542 0.159885
H8    H     H_    0.898852 0.674913 0.340338 0.158574
N1    N     N_R   0.743820 0.499960 0.499930 -0.187186
N2    N     N_R   0.256180 0.500040 0.500070 -0.183769
O1    O     O_R   0.582280 0.500030 0.370250 -0.553004
O2    O     O_R   0.417720 0.499970 0.629750 -0.568612
O3    O     O_R   0.417740 0.500020 0.370270 -0.607658
O4    O     O_R   0.582260 0.499980 0.629730 -0.569324
O5    O     O_R   0.593900 0.362160 0.500010 -0.586934
O6    O     O_R   0.406100 0.637840 0.499990 -0.584118
O7    O     O_R   0.429360 0.362150 0.500030 -0.559700
O8    O     O_R   0.570640 0.637850 0.499970 -0.547355
N3    N     N_3   0.634148 0.972543 0.486974 -0.591180
H9    H     H_    0.678543 0.992976 0.538528 0.217359
H10   H     H_    0.664224 0.995328 0.426932 0.223519
N4    N     N_3   0.363579 0.024879 0.516530 -0.592975
H11   H     H_    0.363475 0.068144 0.572906 0.214857
H12   H     H_    0.348954 0.069811 0.460811 0.224944
O9    O     O_3   0.554808 0.326773 0.770467 -0.590254
C41   C     C_3   0.472950 0.275705 0.751585 0.023248
H13   H     H_    0.438332 0.304751 0.689110 0.177881
H14   H     H_    0.417329 0.279637 0.806143 0.139394
C42   C     C_3   0.506677 0.169750 0.738299 -0.783976
H15   H     H_    0.536173 0.137155 0.801651 0.241774
H16   H     H_    0.444286 0.129969 0.716958 0.201961
H17   H     H_    0.564696 0.162716 0.686598 0.255652
O10   O     O_3   0.473916 0.678068 0.229649 -0.592011
C43   C     C_3   0.374032 0.705536 0.244337 0.028639
H18   H     H_    0.346974 0.663192 0.300948 0.168455
H19   H     H_    0.328389 0.694947 0.184669 0.139087
C44   C     C_3   0.361826 0.812008 0.267675 -0.751836
H20   H     H_    0.381513 0.856701 0.209387 0.239175
H21   H     H_    0.284973 0.832883 0.286850 0.217540
H22   H     H_    0.409819 0.826205 0.324257 0.256756
O11   O     O_3   0.444743 0.761607 0.902046 -0.587822
C45   C     C_3   0.531792 0.802165 0.875933 0.056976
H23   H     H_    0.519058 0.837546 0.809667 0.171125
H24   H     H_    0.595897 0.748013 0.867772 0.132468
C46   C     C_3   0.556508 0.879250 0.941365 -0.809915
H25   H     H_    0.576711 0.845687 0.006986 0.241333
H26   H     H_    0.619227 0.916860 0.915579 0.207612
H27   H     H_    0.492902 0.933144 0.949876 0.262268
O12   O     O_3   0.566556 0.241031 0.097583 -0.590265
C47   C     C_3   0.666667 0.226673 0.120030 0.056458
H28   H     H_    0.672217 0.187884 0.185299 0.168944
H29   H     H_    0.702607 0.295079 0.128672 0.131465
C48   C     C_3   0.722393 0.163698 0.051263 -0.812782
H30   H     H_    0.725993 0.203354 0.986748 0.243978
H31   H     H_    0.798014 0.144259 0.074826 0.211068
H32   H     H_    0.685856 0.096374 0.041351 0.258088
N5    N     N_3   0.728184 0.624527 0.385925 -0.507697
H33   H     H_    0.747840 0.609968 0.319832 0.197214
H34   H     H_    0.740348 0.696024 0.399808 0.206596
N6    N     N_3   0.271459 0.375235 0.613864 -0.550119
H35   H     H_    0.251337 0.389705 0.679864 0.189350
H36   H     H_    0.259743 0.303648 0.599870 0.186049
O13   O     O_3   0.915015 0.309064 0.670260 -0.587456
C49   C     C_3   0.895632 0.223787 0.625500 0.053073
H37   H     H_    0.879083 0.235319 0.553179 0.121591
H38   H     H_    0.829486 0.196400 0.656210 0.179848
C50   C     C_3   0.979972 0.146090 0.637220 -0.811403
H39   H     H_    0.997222 0.135017 0.709033 0.260288
H40   H     H_    0.959445 0.076989 0.609576 0.213732
H41   H     H_    0.045711 0.167447 0.601296 0.234822
O14   O     O_3   0.084994 0.687588 0.327055 -0.585863
C51   C     C_3   0.098241 0.645315 0.242316 0.033391
H42   H     H_    0.037474 0.601344 0.223202 0.141046
H43   H     H_    0.167822 0.598308 0.241490 0.136376
C52   C     C_3   0.103476 0.724816 0.172033 -0.778957
H44   H     H_    0.161226 0.772454 0.188909 0.248586
H45   H     H_    0.120157 0.692402 0.105982 0.204336
H46   H     H_    0.032408 0.769005 0.168319 0.248733

loop_
_geom_bond_atom_site_label_1
_geom_bond_atom_site_label_2
_ccdc_geom_bond_type
C2    C35   S    
C7    O11   S    
C46   H25   S    
C9    H3    S    
Cu1   Cu2   S    
C48   H30   S    
C45   C46   S    
Cu2   O6    S    
C6    C9    A    
C51   H42   S    
C48   H32   S    
C23   O7    A    
C11   C19   A    
O11   C45   S    
C49   H37   S    
C35   C37   A    
C43   H19   S    
C29   C32   S    
C52   H45   S    
C30   C31   S    
C20   C25   A    
C11   N5    S    
N3    H10   S    
C19   C26   A    
C1    O1    A    
C50   H40   S    
C33   C35   A    
C13   N1    A    
C13   H5    S    
C22   O14   S    
C14   N2    A    
C4    C40   A    
C41   H13   S    
C5    C33   A    
C10   H4    S    
C24   C27   S    
C18   C20   A    
C46   H27   S    
C34   O10   S    
C41   H14   S    
C29   N4    S    
C3    C39   A    
N3    H9    S    
C12   N2    A    
C38   H2    S    
O9    C41   S    
C43   H18   S    
C4    C6    A    
C2    O2    A    
C52   H46   S    
O12   C47   S    
C44   H21   S    
C14   H6    S    
C47   C48   S    
C6    C34   A    
N4    H12   S    
C37   H1    S    
O10   C43   S    
Cu1   O4    S    
C12   N6    S    
C29   C30   D    
Cu2   O3    S    
C42   H17   S    
N5    H33   S    
C24   O8    A    
C12   C20   A    
C47   H29   S    
C17   C18   A    
C8    O12   S    
C23   C28   S    
C45   H23   S    
N6    H36   S    
Cu1   O1    S    
C24   O6    A    
N5    H34   S    
C13   C15   A    
C14   C16   A    
C50   H41   S    
C3    C4    A    
C33   O9    S    
C42   H16   S    
O14   C51   S    
C23   O5    A    
C21   C25   A    
C16   C22   A    
C27   C32   T    
C28   C31   T    
Cu1   O8    S    
C45   H24   S    
C3    C5    A    
C16   C18   A    
Cu2   O7    S    
C44   H22   S    
C51   H43   S    
C48   H31   S    
C15   C17   A    
O13   C49   S    
N4    H11   S    
C26   H8    S    
C1    O3    A    
Cu1   O5    S    
C5    C10   A    
C37   C39   A    
C2    O4    A    
C52   H44   S    
Cu2   O2    S    
C38   C40   A    
C49   H38   S    
C41   C42   S    
C36   C38   A    
C47   H28   S    
C17   C19   A    
C34   C36   A    
N6    H35   S    
C25   H7    S    
C51   C52   S    
C11   N1    A    
C44   H20   S    
C7    C9    A    
C15   C21   A    
C43   C44   S    
C42   H15   S    
C8    C10   A    
C22   C26   A    
C30   N3    S    
C46   H26   S    
C7    C39   A    
C8    C40   A    
C50   H39   S    
Cu1   N1    S    
C21   O13   S    
C1    C36   S    
Cu2   N2    S    
C49   C50   S    
