data_mof_unit_52244.cif
_audit_creation_date              2012-12-11T15:13:38-0500
_audit_creation_method            fapswitch 2.2
_symmetry_space_group_name_H-M    P1
_symmetry_Int_Tables_number       1
_space_group_crystal_system       triclinic
_cell_length_a                    6.975444
_cell_length_b                    13.774326
_cell_length_c                    20.091664
_cell_angle_alpha                 104.635221
_cell_angle_beta                  89.41975
_cell_angle_gamma                 90.397038
_cell_volume                      1867.69796572

loop_
_atom_site_label
_atom_site_type_symbol
_atom_type_description
_atom_site_fract_x
_atom_site_fract_y
_atom_site_fract_z
_atom_type_partial_charge
O1    O     O_R   0.506780 0.600060 0.449950 -0.539893
O2    O     O_R   0.179840 0.597110 0.589410 -0.559343
O3    O     O_R   0.004570 0.399940 0.550050 -0.543015
C1    C     C_R   0.347803 0.619992 0.616326 0.652705
O4    O     O_R   0.177380 0.612160 0.452890 -0.553326
O5    O     O_R   0.002100 0.415100 0.412560 -0.520948
C2    C     C_R   0.347062 0.637952 0.436759 0.782179
O6    O     O_R   0.509250 0.584900 0.587440 -0.555545
O7    O     O_3   0.337570 0.435330 0.486930 -0.332902
V1    V     V_3+5 0.064650 0.512000 0.502430 1.507285
O8    O     O_R   0.672090 0.402890 0.410590 -0.497497
C3    C     C_R   0.842153 0.382569 0.382607 0.789569
O9    O     O_R   0.674540 0.387840 0.547110 -0.532727
C4    C     C_R   0.842936 0.362697 0.564151 0.711772
V2    V     V_3+5 0.564040 0.488000 0.497570 1.592486
O10   O     O_3   0.840990 0.564670 0.513070 -0.402784
C5    C     C_R   0.949468 0.119347 0.605280 -0.091642
H1    H     H_    0.974330 0.177043 0.516356 0.182143
H2    H     H_    0.954837 0.988792 0.679979 0.126588
H3    H     H_    0.999678 0.045746 0.577603 0.144698
C6    C     C_R   0.854386 0.286381 0.603010 -0.111794
C7    C     C_R   0.845931 0.310042 0.931345 -0.210327
C8    C     C_R   0.845455 0.386393 0.897779 -0.004178
C9    C     C_R   0.855795 0.363312 0.826174 -0.089404
C10   C     C_R   0.852664 0.262536 0.786125 0.086262
C11   C     C_R   0.866185 0.183734 0.820670 0.013649
C12   C     C_R   0.851261 0.238489 0.712448 0.076803
C13   C     C_R   0.908722 0.140887 0.675856 0.103987
C14   C     C_R   0.922862 0.064666 0.709506 -0.196663
C15   C     C_R   0.890220 0.083222 0.779993 -0.081375
C16   C     C_R   0.799034 0.307248 0.673078 -0.083549
C17   C     C_R   0.932620 0.193428 0.570139 -0.079819
C18   C     C_R   0.860659 0.209967 0.894225 -0.085454
H4    H     H_    0.839200 0.328724 0.987162 0.120990
H5    H     H_    0.872240 0.425291 0.802668 0.119784
C19   C     C_3   0.676013 0.216734 0.231877 -0.138618
C20   C     C_3   0.796808 0.201323 0.292662 0.019808
H6    H     H_    0.531088 0.186508 0.216403 0.095065
C21   C     C_3   0.855946 0.312910 0.311452 -0.031137
C22   C     C_3   0.737281 0.329461 0.250552 -0.127729
C23   C     C_3   0.916479 0.304077 0.202759 -0.251513
C24   C     C_3   0.032883 0.286435 0.263460 -0.053359
C25   C     C_3   0.971308 0.175942 0.244611 -0.062109
C26   C     C_3   0.855091 0.193332 0.184879 -0.083028
H7    H     H_    0.644667 0.394264 0.251339 0.162888
H8    H     H_    0.963780 0.346070 0.165164 0.183791
C27   C     C_3   0.492437 0.780250 0.709881 -0.117076
C28   C     C_3   0.322827 0.846490 0.745423 -0.131486
H9    H     H_    0.295572 0.924728 0.742769 0.127108
H10   H     H_    0.605147 0.803129 0.677426 0.137123
C29   C     C_3   0.358831 0.812787 0.811850 -0.039040
C30   C     C_3   0.528431 0.747260 0.776978 -0.111238
C31   C     C_3   0.389373 0.657164 0.752619 -0.184705
C32   C     C_3   0.221818 0.723947 0.787229 0.004876
C33   C     C_3   0.183291 0.756519 0.720745 -0.154316
C34   C     C_3   0.353469 0.690998 0.686411 -0.030109
H11   H     H_    0.670709 0.743624 0.800054 0.165234
H12   H     H_    0.415219 0.579169 0.755878 0.163335
H13   H     H_    0.040336 0.760073 0.697646 0.117544
C35   C     C_R   0.420013 0.890466 0.401844 -0.045737
C36   C     C_R   0.360457 0.716255 0.399604 -0.150926
C37   C     C_R   0.315495 0.690796 0.072331 -0.116493
C38   C     C_R   0.266441 0.619638 0.108998 0.010613
C39   C     C_R   0.270182 0.647929 0.181010 -0.176497
C40   C     C_R   0.345232 0.741494 0.217849 0.042283
C41   C     C_R   0.379232 0.815366 0.181241 0.093341
C42   C     C_R   0.375644 0.765031 0.290889 -0.004936
C43   C     C_R   0.400064 0.866908 0.328483 0.029296
C44   C     C_R   0.406344 0.941525 0.291146 -0.058204
C45   C     C_R   0.422061 0.913509 0.218978 -0.171898
C46   C     C_R   0.385353 0.689844 0.327536 -0.046288
C47   C     C_R   0.380377 0.816337 0.437383 -0.103504
C48   C     C_R   0.357650 0.790477 0.108165 -0.106780
H14   H     H_    0.210749 0.595994 0.208014 0.169442
H15   H     H_    0.449370 0.970982 0.192069 0.075913
O11   O     O_R   0.203580 0.914920 0.912610 -0.528814
O12   O     O_R   0.535710 0.887810 0.047120 -0.539047
O13   O     O_R   0.710730 0.084950 0.087430 -0.550806
C49   C     C_R   0.367631 0.867752 0.068643 0.703264
O14   O     O_R   0.533010 0.902850 0.910600 -0.528999
O15   O     O_R   0.708010 0.100090 0.949930 -0.542549
C50   C     C_R   0.365171 0.881701 0.882948 0.717962
O16   O     O_R   0.206300 0.899780 0.050100 -0.533072
O17   O     O_3   0.375170 0.064580 0.013100 -0.388356
V3    V     V_3+5 0.648200 0.988020 0.997570 1.515056
O18   O     O_R   0.038030 0.112330 0.952840 -0.544436
C51   C     C_R   0.869754 0.136236 0.934977 0.711201
O19   O     O_R   0.040730 0.097300 0.089360 -0.553293
C52   C     C_R   0.869744 0.122606 0.114898 0.705037
V4    V     V_3+5 0.148780 0.012220 0.002360 1.495162
O20   O     O_3   0.871930 0.935430 0.986900 -0.350584
C53   C     C_2   0.235722 0.317156 0.277748 0.422754
H16   H     H_    0.318198 0.341497 0.238944 0.075708
O21   O     O_2   0.311469 0.309613 0.330657 -0.492963
C54   C     C_2   0.086920 0.083067 0.228492 0.404109
H17   H     H_    0.225699 0.085036 0.204628 -0.007196
O22   O     O_2   0.018123 0.003916 0.234410 -0.539832
C55   C     C_1   0.070097 0.692831 0.828373 0.329477
N1    N     N_1   0.949978 0.668407 0.860821 -0.331355
C56   C     C_2   0.378132 0.838982 0.514151 0.407332
H18   H     H_    0.267767 0.806056 0.540159 0.009175
O23   O     O_2   0.504641 0.888813 0.548487 -0.524954
C57   C     C_2   0.364747 0.048422 0.323695 0.421845
H19   H     H_    0.421736 0.106021 0.301287 0.027184
O24   O     O_2   0.247207 0.072666 0.370343 -0.490041
C58   C     C_2   0.504735 0.987057 0.440656 0.576381
H20   H     H_    0.641224 0.010994 0.424303 0.024900
O25   O     O_2   0.421718 0.040551 0.490192 -0.480581
C59   C     C_2   0.455739 0.587996 0.292514 0.278387
H21   H     H_    0.553657 0.578071 0.248985 0.070425
O26   O     O_2   0.401333 0.514379 0.310489 -0.546141
C60   C     C_1   0.325060 0.661754 0.997799 0.316632
N2    N     N_1   0.334718 0.638204 0.938377 -0.342316
C61   C     C_2   0.210194 0.515375 0.072774 0.356855
H22   H     H_    0.195121 0.493609 0.017318 0.073114
O27   O     O_2   0.182123 0.451708 0.104459 -0.560458
C62   C     C_2   0.666188 0.392410 0.700149 0.354050
H23   H     H_    0.679011 0.461061 0.683291 0.021572
O28   O     O_2   0.535936 0.384848 0.739641 -0.523906
C63   C     C_1   0.833449 0.489025 0.937649 0.336991
N3    N     N_1   0.822905 0.571091 0.970317 -0.322139
C64   C     C_1   0.884317 0.995317 0.806667 0.255798
N4    N     N_1   0.878731 0.923903 0.826954 -0.346778
C65   C     C_2   0.760221 0.143091 0.344991 0.389297
H24   H     H_    0.758843 0.061912 0.329057 0.064182
O29   O     O_2   0.735476 0.185799 0.405458 -0.534882

loop_
_geom_bond_atom_site_label_1
_geom_bond_atom_site_label_2
_ccdc_geom_bond_type
C28   C33   S    
C33   C34   S    
C33   H13   S    
C23   C24   S    
C54   H17   S    
C1    O6    A    
C61   H22   S    
V3    O20   S    
C31   C32   S    
C63   N3    T    
C6    C16   A    
C13   C14   A    
C37   C38   A    
C4    C6    S    
C19   C20   S    
C62   O28   D    
O5    C3    A    
C58   H20   S    
C35   C47   A    
V2    O10   S    
C55   N1    T    
C5    H3    S    
O16   V4    S    
C16   C62   S    
C38   C61   S    
O8    V2    S    
C28   C29   S    
C2    C36   S    
C15   C64   S    
C43   C44   A    
C40   C42   A    
C25   C54   S    
C23   H8    S    
C37   C48   A    
O1    V2    S    
C21   C24   S    
C14   C15   A    
O7    V1    S    
C24   C53   S    
C36   C46   A    
O12   C49   A    
O12   V3    S    
O9    C4    A    
C1    C34   S    
O17   V4    S    
C56   O23   D    
C60   N2    T    
C27   H10   S    
C44   C57   S    
O13   C52   A    
C22   H7    S    
C7    H4    S    
C6    C17   A    
C65   H24   S    
C9    H5    S    
C12   C16   A    
C29   C30   S    
C19   C22   S    
C9    C10   A    
O14   C50   A    
O18   V4    S    
O11   C50   A    
C21   C22   S    
O4    C2    A    
O18   C51   A    
C10   C11   A    
C41   C48   A    
C42   C43   A    
C20   C25   S    
O2    C1    A    
C25   C26   S    
O14   V3    S    
C20   C65   S    
C11   C18   A    
C27   C28   S    
C8    C9    A    
C53   O21   D    
C48   C49   S    
C57   O24   D    
O17   V3    S    
C29   C50   S    
O15   C51   A    
O3    C4    A    
C36   C47   A    
C28   H9    S    
O19   V4    S    
C11   C15   A    
O6    V2    S    
O9    V2    S    
C23   C26   S    
C19   C26   S    
H1    C17   S    
C24   C25   S    
O2    V1    S    
C8    C63   S    
C35   C58   S    
C30   C31   S    
O13   V3    S    
C65   O29   D    
C47   C56   S    
C31   C34   S    
C7    C18   A    
C32   C33   S    
C22   C23   S    
O1    C2    A    
C5    C13   A    
O5    V1    S    
C61   O27   D    
C31   H12   S    
C54   O22   D    
C27   C30   S    
C10   C12   A    
C29   C32   S    
C39   C40   A    
C3    C21   S    
C59   O26   D    
O7    V2    S    
O4    V1    S    
C20   C21   S    
O3    V1    S    
V1    O10   S    
C59   H21   S    
C49   O16   A    
V4    O20   S    
C41   C45   A    
C58   O25   D    
C46   C59   S    
C19   H6    S    
C53   H16   S    
C42   C46   A    
C18   C51   S    
C44   C45   A    
C30   H11   S    
C38   C39   A    
C37   C60   S    
O19   C52   A    
C35   C43   A    
C40   C41   A    
C57   H19   S    
C5    C17   A    
C39   H14   S    
C7    C8    A    
C32   C55   S    
C45   H15   S    
C56   H18   S    
C64   N4    T    
C62   H23   S    
O15   V3    S    
C26   C52   S    
O8    C3    A    
O11   V4    S    
C27   C34   S    
C12   C13   A    
H2    C14   S    
