data_mof_unit_56656.cif
_audit_creation_date              2012-12-11T15:17:52-0500
_audit_creation_method            fapswitch 2.2
_symmetry_space_group_name_H-M    P1
_symmetry_Int_Tables_number       1
_space_group_crystal_system       triclinic
_cell_length_a                    15.687332
_cell_length_b                    15.739375
_cell_length_c                    34.361546
_cell_angle_alpha                 90.04586
_cell_angle_beta                  90.470808
_cell_angle_gamma                 119.860388
_cell_volume                      7357.45449434

loop_
_atom_site_label
_atom_site_type_symbol
_atom_type_description
_atom_site_fract_x
_atom_site_fract_y
_atom_site_fract_z
_atom_type_partial_charge
C1    C     C_R   0.577835 0.441999 0.554777 0.587292
C2    C     C_R   0.558081 0.134674 0.554360 0.573923
C3    C     C_R   0.864372 0.422315 0.555070 0.602987
C4    C     C_R   0.443232 0.577672 0.054404 0.604171
C5    C     C_R   0.134718 0.557831 0.054437 0.591936
C6    C     C_R   0.422960 0.864464 0.054872 0.608009
C7    C     C_R   0.967537 0.505352 0.714305 0.356733
C8    C     C_R   0.480016 0.521919 0.703444 0.341267
C9    C     C_R   0.474076 0.925125 0.697262 0.345538
C10   C     C_R   0.500205 0.992050 0.212054 0.374877
C11   C     C_R   0.463233 0.497999 0.213111 0.354349
C12   C     C_R   0.019995 0.525540 0.211942 0.357758
C13   C     C_R   0.027942 0.448533 0.847356 0.247872
C14   C     C_R   0.545999 0.605909 0.844781 0.240564
C15   C     C_R   0.346521 0.817670 0.832132 0.237371
C16   C     C_R   0.429812 0.014448 0.351892 0.241313
C17   C     C_R   0.567531 0.556972 0.350612 0.241998
C18   C     C_R   0.968666 0.416911 0.348075 0.241274
C19   C     C_R   0.059247 0.453133 0.885935 0.236481
C20   C     C_R   0.544467 0.612119 0.885596 0.243455
C21   C     C_R   0.332422 0.808345 0.872522 0.210981
C22   C     C_R   0.439266 0.041758 0.391156 0.240442
C23   C     C_R   0.589992 0.549876 0.389795 0.236817
C24   C     C_R   0.945304 0.397118 0.387667 0.237051
C25   C     C_R   0.021383 0.582416 0.899941 0.218560
C26   C     C_R   0.383393 0.464038 0.886563 0.215685
C27   C     C_R   0.509385 0.907691 0.883376 0.185808
C28   C     C_R   0.590858 0.036107 0.396320 0.180994
C29   C     C_R   0.445367 0.386182 0.393000 0.202018
C30   C     C_R   0.951738 0.554162 0.395129 0.187039
C31   C     C_R   0.985887 0.574933 0.861560 0.203898
C32   C     C_R   0.387639 0.454425 0.846049 0.228963
C33   C     C_R   0.522956 0.921804 0.842950 0.188473
C34   C     C_R   0.580849 0.006710 0.357078 0.206354
C35   C     C_R   0.420455 0.395602 0.354654 0.223349
C36   C     C_R   0.979671 0.576264 0.356070 0.204231
C37   C     C_R   0.994794 0.512199 0.834717 -0.023458
C38   C     C_R   0.466884 0.527375 0.824802 -0.044190
C39   C     C_R   0.441903 0.874139 0.817197 -0.043767
C40   C     C_R   0.504752 0.004107 0.333841 -0.044175
C41   C     C_R   0.483540 0.478574 0.332917 -0.040761
C42   C     C_R   0.984348 0.506191 0.332064 -0.033567
C43   C     C_R   0.068080 0.529092 0.910924 -0.031549
C44   C     C_R   0.458823 0.546811 0.906208 -0.042444
C45   C     C_R   0.414065 0.846557 0.898263 -0.051523
C46   C     C_R   0.527380 0.066413 0.411767 -0.064494
C47   C     C_R   0.534439 0.460820 0.409901 -0.052981
C48   C     C_R   0.925693 0.460712 0.410017 -0.034547
C49   C     C_R   0.576393 0.442126 0.445644 0.591307
C50   C     C_R   0.555547 0.132591 0.446232 0.572956
C51   C     C_R   0.866221 0.422892 0.445930 0.592144
C52   C     C_R   0.442108 0.577967 0.945031 0.594056
C53   C     C_R   0.133250 0.556046 0.945895 0.608336
C54   C     C_R   0.395465 0.816832 0.939697 0.600138
C55   C     C_R   0.920830 0.458543 0.592265 -0.002292
C56   C     C_R   0.537561 0.466367 0.589288 -0.013131
C57   C     C_R   0.532977 0.063808 0.586750 -0.034919
C58   C     C_R   0.461231 0.922250 0.091388 -0.009594
C59   C     C_R   0.466033 0.544237 0.091268 0.011853
C60   C     C_R   0.076625 0.537227 0.090664 0.013403
C61   C     C_R   0.947371 0.399052 0.614353 0.220792
C62   C     C_R   0.573453 0.564878 0.601176 0.193482
C63   C     C_R   0.434224 0.000012 0.597563 0.183466
C64   C     C_R   0.417854 0.974461 0.107249 0.176962
C65   C     C_R   0.547891 0.609773 0.114318 0.217402
C66   C     C_R   0.042477 0.447503 0.110492 0.186005
C67   C     C_R   0.970916 0.419007 0.653964 0.279726
C68   C     C_R   0.548128 0.585396 0.637733 0.281625
C69   C     C_R   0.413522 0.945562 0.632025 0.279423
C70   C     C_R   0.431347 0.000027 0.147082 0.289653
C71   C     C_R   0.545810 0.596720 0.154727 0.283811
C72   C     C_R   0.024144 0.442860 0.150664 0.289105
C73   C     C_R   0.968081 0.498188 0.671728 -0.061522
C74   C     C_R   0.484172 0.507750 0.661741 -0.052369
C75   C     C_R   0.491361 0.956724 0.656394 -0.072225
C76   C     C_R   0.496587 0.982780 0.169581 -0.021688
C77   C     C_R   0.469716 0.510669 0.170977 -0.033136
C78   C     C_R   0.027387 0.523703 0.169541 -0.026867
C79   C     C_R   0.959252 0.566323 0.648711 -0.178619
C80   C     C_R   0.438441 0.411917 0.647888 -0.151573
C81   C     C_R   0.587847 0.009676 0.643168 -0.161983
C82   C     C_R   0.551690 0.946345 0.152043 -0.164351
C83   C     C_R   0.400061 0.436611 0.146949 -0.163306
C84   C     C_R   0.041337 0.604671 0.148058 -0.159229
C85   C     C_R   0.934423 0.546947 0.609025 0.209849
C86   C     C_R   0.467375 0.389822 0.612783 0.220173
C87   C     C_R   0.609105 0.060959 0.608167 0.204340
C88   C     C_R   0.535402 0.916700 0.113161 0.196563
C89   C     C_R   0.395886 0.453480 0.107031 0.224549
C90   C     C_R   0.068133 0.613478 0.108748 0.231131
C91   C     C_R   0.973244 0.512718 0.793024 0.425892
C92   C     C_R   0.469982 0.521266 0.782015 0.376438
C93   C     C_R   0.453505 0.890116 0.774809 0.413633
C94   C     C_R   0.503847 0.994390 0.290942 0.410674
C95   C     C_R   0.465295 0.481475 0.291230 0.380581
C96   C     C_R   0.005473 0.524488 0.290333 0.383092
Cr1   Cr    Cr6+3 0.522350 0.263930 0.500020 1.170016
Cr2   Cr    Cr6+3 0.736070 0.258420 0.500020 1.118600
Cr3   Cr    Cr6+3 0.741580 0.477650 0.500020 1.127972
Cr4   Cr    Cr6+3 0.263930 0.522350 0.000020 1.127755
Cr5   Cr    Cr6+3 0.258420 0.736070 0.000020 1.125545
Cr6   Cr    Cr6+3 0.477650 0.741580 0.000020 1.114011
H1    H     H_    0.966412 0.631820 0.662125 0.161257
H2    H     H_    0.387227 0.352615 0.666214 0.169985
H3    H     H_    0.648180 0.016631 0.661091 0.187530
H4    H     H_    0.603163 0.934683 0.169224 0.140676
H5    H     H_    0.346772 0.367613 0.159653 0.151303
H6    H     H_    0.035378 0.662632 0.162461 0.151812
N1    N     N_R   0.918628 0.426435 0.774035 -0.185531
N2    N     N_R   0.556203 0.546940 0.764127 -0.140885
N3    N     N_R   0.391390 0.911134 0.754960 -0.201074
N4    N     N_R   0.417372 0.949719 0.270994 -0.180811
N5    N     N_R   0.474019 0.563762 0.274963 -0.148242
N6    N     N_R   0.067684 0.499793 0.273170 -0.148717
N7    N     N_R   0.915625 0.422828 0.735434 -0.144120
N8    N     N_R   0.561102 0.547178 0.725555 -0.171239
N9    N     N_R   0.401350 0.928259 0.717002 -0.149804
N10   N     N_R   0.415519 0.948379 0.232361 -0.212955
N11   N     N_R   0.472881 0.571734 0.236518 -0.209323
N12   N     N_R   0.074885 0.500464 0.234680 -0.209815
N13   N     N_R   0.018882 0.592627 0.733151 -0.227925
N14   N     N_R   0.393269 0.494833 0.721111 -0.234627
N15   N     N_R   0.536737 0.904196 0.717040 -0.237072
N16   N     N_R   0.587161 0.035235 0.231754 -0.203936
N17   N     N_R   0.451100 0.414336 0.229325 -0.188699
N18   N     N_R   0.960281 0.553692 0.229021 -0.200504
N19   N     N_R   0.022391 0.596049 0.771927 -0.179768
N20   N     N_R   0.388750 0.496125 0.759771 -0.159924
N21   N     N_R   0.526169 0.886222 0.755113 -0.182275
N22   N     N_R   0.588869 0.037517 0.270521 -0.168132
N23   N     N_R   0.452894 0.406576 0.267804 -0.165049
N24   N     N_R   0.952373 0.552150 0.267601 -0.181539
O1    O     O_R   0.498680 0.159540 0.541860 -0.461416
O2    O     O_R   0.840460 0.339140 0.541860 -0.443516
O3    O     O_R   0.660860 0.501320 0.541860 -0.482203
O4    O     O_R   0.159540 0.498680 0.041860 -0.486433
O5    O     O_R   0.339140 0.840460 0.041860 -0.477587
O6    O     O_R   0.501320 0.660860 0.041860 -0.443802
O7    O     O_R   0.532760 0.358060 0.540030 -0.450999
O8    O     O_R   0.641940 0.174700 0.540030 -0.463424
O9    O     O_R   0.825300 0.467240 0.540030 -0.466941
O10   O     O_R   0.358060 0.532760 0.040030 -0.474327
O11   O     O_R   0.174700 0.641940 0.040030 -0.462527
O12   O     O_R   0.467240 0.825300 0.040030 -0.452730
O13   O     O_R   0.498590 0.161190 0.456930 -0.449355
O14   O     O_R   0.838810 0.337400 0.456930 -0.483117
O15   O     O_R   0.662600 0.501410 0.456930 -0.476438
O16   O     O_R   0.161190 0.498590 0.956930 -0.466375
O17   O     O_R   0.337400 0.838810 0.956930 -0.474319
O18   O     O_R   0.501410 0.662600 0.956930 -0.502118
O19   O     O_R   0.532680 0.359580 0.461300 -0.453979
O20   O     O_R   0.640420 0.173100 0.461300 -0.477836
O21   O     O_R   0.826900 0.467320 0.461300 -0.464770
O22   O     O_R   0.359580 0.532680 0.961300 -0.447012
O23   O     O_R   0.173100 0.640420 0.961300 -0.459329
O24   O     O_R   0.467320 0.826900 0.961300 -0.459169
O25   O     O_3   0.666667 0.333333 0.499990 -0.317935
O26   O     O_3   0.333333 0.666667 0.999990 -0.335416
Cl1   Cl    Cl    0.952075 0.298321 0.594028 -0.489711
Cl2   Cl    Cl    0.648966 0.664876 0.571025 -0.541293
Cl3   Cl    Cl    0.333825 0.985046 0.568674 -0.501705
Cl4   Cl    Cl    0.353672 0.015132 0.077150 -0.528488
Cl5   Cl    Cl    0.656278 0.704375 0.093357 -0.491500
Cl6   Cl    Cl    0.013027 0.338542 0.085067 -0.582738
O27   O     O_3   0.927677 0.615366 0.585684 -0.527187
C97   C     C_3   0.857479 0.637849 0.600450 -0.020274
H7    H     H_    0.788982 0.571261 0.609883 0.118074
H8    H     H_    0.836973 0.672385 0.576842 0.216977
H9    H     H_    0.889186 0.692135 0.624551 0.140003
O28   O     O_3   0.427496 0.292623 0.601945 -0.504066
C98   C     C_3   0.472752 0.250467 0.624251 -0.049506
H10   H     H_    0.552116 0.284155 0.617134 0.100426
H11   H     H_    0.436672 0.171555 0.617055 0.194365
H12   H     H_    0.463499 0.255660 0.656072 0.119502
O29   O     O_3   0.706180 0.116084 0.597144 -0.506802
C99   C     C_3   0.733711 0.052898 0.579105 -0.014131
H13   H     H_    0.734410 0.999766 0.600272 0.133899
H14   H     H_    0.809276 0.097287 0.567766 0.207986
H15   H     H_    0.684794 0.013379 0.553850 0.130555
O30   O     O_3   0.585644 0.873176 0.097940 -0.541169
C100  C     C_3   0.677986 0.947881 0.085194 -0.038240
H16   H     H_    0.724427 0.992804 0.110095 0.133228
H17   H     H_    0.716770 0.913537 0.071081 0.195211
H18   H     H_    0.670088 0.995390 0.063124 0.145025
O31   O     O_3   0.329134 0.380561 0.082192 -0.513139
C101  C     C_3   0.232369 0.341696 0.095841 -0.044018
H19   H     H_    0.181007 0.305060 0.071105 0.207628
H20   H     H_    0.218029 0.399782 0.107116 0.116279
H21   H     H_    0.216165 0.285016 0.118261 0.118176
O32   O     O_3   0.078395 0.691623 0.086523 -0.505984
C102  C     C_3   0.146114 0.781772 0.103938 -0.058313
H22   H     H_    0.169408 0.839349 0.081484 0.213511
H23   H     H_    0.213329 0.782109 0.114939 0.092684
H24   H     H_    0.110843 0.801484 0.127424 0.107166
O33   O     O_3   0.090340 0.388670 0.897385 -0.473276
C103  C     C_3   0.014881 0.313205 0.919416 -0.037216
H25   H     H_    0.002730 0.341281 0.947294 0.147505
H26   H     H_    0.037070 0.258200 0.926580 0.192579
H27   H     H_    0.944146 0.274937 0.902974 0.100039
O34   O     O_3   0.629384 0.675709 0.906171 -0.485734
C104  C     C_3   0.653190 0.774079 0.900946 0.025717
H28   H     H_    0.687933 0.815165 0.928178 0.182115
H29   H     H_    0.587903 0.782458 0.895026 0.104675
H30   H     H_    0.708256 0.808438 0.877600 0.185439
O35   O     O_3   0.237619 0.759379 0.886667 -0.557311
C105  C     C_3   0.205797 0.827944 0.894182 -0.036706
H31   H     H_    0.257234 0.904754 0.884877 0.105128
H32   H     H_    0.192093 0.829061 0.925694 0.209676
H33   H     H_    0.134470 0.803607 0.879266 0.180071
O36   O     O_3   0.365480 0.053604 0.407532 -0.474795
C106  C     C_3   0.312942 0.976215 0.433909 -0.029553
H34   H     H_    0.247975 0.980058 0.444022 0.200182
H35   H     H_    0.358155 0.982484 0.459980 0.152489
H36   H     H_    0.285695 0.903135 0.420014 0.103683
O37   O     O_3   0.658069 0.632514 0.410170 -0.494024
C107  C     C_3   0.754760 0.660209 0.399006 0.027792
H37   H     H_    0.764041 0.597160 0.390084 0.114949
H38   H     H_    0.803941 0.695824 0.424404 0.210292
H39   H     H_    0.779481 0.715965 0.375718 0.184509
O38   O     O_3   0.956269 0.324972 0.406342 -0.500762
C108  C     C_3   0.880080 0.230797 0.395783 0.024927
H40   H     H_    0.808289 0.227492 0.390381 0.109867
H41   H     H_    0.870027 0.181060 0.420280 0.212208
H42   H     H_    0.901595 0.202517 0.370375 0.190240
O39   O     O_3   0.989196 0.355853 0.675829 -0.494287
C109  C     C_3   0.091717 0.398566 0.681162 -0.040962
H43   H     H_    0.122514 0.467497 0.698505 0.125685
H44   H     H_    0.130107 0.412534 0.652781 0.141309
H45   H     H_    0.106601 0.346649 0.697618 0.187854
O40   O     O_3   0.593264 0.681102 0.651159 -0.503798
C110  C     C_3   0.526474 0.716069 0.647336 -0.071540
H46   H     H_    0.463067 0.677054 0.667226 0.114481
H47   H     H_    0.500117 0.710299 0.616727 0.140125
H48   H     H_    0.564941 0.794764 0.655517 0.162188
O41   O     O_3   0.316730 0.888032 0.643246 -0.488258
C111  C     C_3   0.286919 0.789271 0.634922 -0.055387
H49   H     H_    0.208447 0.743368 0.642824 0.166689
H50   H     H_    0.329596 0.763414 0.652371 0.087865
H51   H     H_    0.293178 0.777957 0.603310 0.148741
O42   O     O_3   0.387315 0.048506 0.163783 -0.493017
C112  C     C_3   0.286574 0.981876 0.169873 -0.053018
H52   H     H_    0.260996 0.010118 0.194035 0.176560
H53   H     H_    0.271223 0.907164 0.178295 0.091256
H54   H     H_    0.242760 0.977294 0.143671 0.158865
O43   O     O_3   0.622207 0.663214 0.178282 -0.511973
C113  C     C_3   0.612890 0.747197 0.183846 -0.047990
H55   H     H_    0.656278 0.786936 0.210051 0.170037
H56   H     H_    0.535557 0.729265 0.188837 0.115899
H57   H     H_    0.643684 0.797729 0.158859 0.189216
O44   O     O_3   0.994072 0.356941 0.171176 -0.507682
C114  C     C_3   0.075302 0.343238 0.178186 -0.059175
H58   H     H_    0.061795 0.300595 0.205370 0.175075
H59   H     H_    0.146310 0.413028 0.182245 0.100136
H60   H     H_    0.081809 0.299376 0.154372 0.151195
O45   O     O_3   0.045426 0.393636 0.820296 -0.500109
C115  C     C_3   0.970933 0.294309 0.821890 -0.007645
H61   H     H_    0.898492 0.283105 0.831813 0.124956
H62   H     H_    0.995351 0.252873 0.840584 0.179245
H63   H     H_    0.959473 0.262659 0.792164 0.185517
O46   O     O_3   0.627110 0.676058 0.824903 -0.505184
C116  C     C_3   0.604103 0.744127 0.807775 -0.064537
H64   H     H_    0.673633 0.813507 0.802689 0.200155
H65   H     H_    0.557413 0.761830 0.826519 0.081176
H66   H     H_    0.567396 0.717550 0.779073 0.162457
O47   O     O_3   0.268594 0.761641 0.807018 -0.526482
C117  C     C_3   0.209930 0.805633 0.801225 -0.020859
H67   H     H_    0.245157 0.884019 0.810456 0.109235
H68   H     H_    0.139207 0.762314 0.816372 0.182544
H69   H     H_    0.192322 0.802358 0.769733 0.188849
O48   O     O_3   0.354365 0.012318 0.329885 -0.495540
C118  C     C_3   0.268354 0.920276 0.333944 0.000989
H70   H     H_    0.225071 0.921525 0.359055 0.186072
H71   H     H_    0.283126 0.858103 0.336611 0.119490
H72   H     H_    0.221909 0.906168 0.307545 0.189006
O49   O     O_3   0.626537 0.642380 0.330359 -0.502961
C119  C     C_3   0.692293 0.628767 0.306662 -0.072957
H73   H     H_    0.721713 0.585003 0.320952 0.092259
H74   H     H_    0.755967 0.701717 0.300014 0.185337
H75   H     H_    0.657361 0.594058 0.278478 0.165984
O50   O     O_3   0.980041 0.349983 0.325715 -0.511192
C120  C     C_3   0.893204 0.292869 0.303574 -0.080477
H76   H     H_    0.825083 0.267293 0.320897 0.090956
H77   H     H_    0.893881 0.226771 0.292781 0.186933
H78   H     H_    0.889925 0.333323 0.277718 0.158486
Cl7   Cl    Cl    0.000972 0.652995 0.934720 -0.477743
Cl8   Cl    Cl    0.284436 0.369087 0.912215 -0.416794
Cl9   Cl    Cl    0.611710 0.974402 0.914787 -0.507189
Cl10  Cl    Cl    0.677559 0.027397 0.426634 -0.530671
Cl11  Cl    Cl    0.361482 0.280254 0.418998 -0.389502
Cl12  Cl    Cl    0.958938 0.647558 0.425957 -0.532947
Cl13  Cl    Cl    0.930560 0.644127 0.847126 -0.469822
Cl14  Cl    Cl    0.293686 0.348817 0.822357 -0.424614
Cl15  Cl    Cl    0.641851 0.002455 0.825001 -0.512378
Cl16  Cl    Cl    0.663550 0.972555 0.337613 -0.471368
Cl17  Cl    Cl    0.308834 0.302775 0.333841 -0.399392
Cl18  Cl    Cl    0.011012 0.693098 0.337633 -0.562062

loop_
_geom_bond_atom_site_label_1
_geom_bond_atom_site_label_2
_ccdc_geom_bond_type
C25   C31   A    
C118  H72   S    
C97   H8    S    
C98   H10   S    
Cr5   O23   S    
C26   C32   A    
O32   C102  S    
C38   C92   S    
C5    O4    A    
C9    N9    A    
C104  H28   S    
C6    C58   S    
C36   C42   A    
O49   C119  S    
C3    O9    A    
C107  H39   S    
Cr1   O1    S    
C79   H1    S    
Cr6   O26   S    
C2    C57   S    
C26   C44   A    
C114  H58   S    
C47   C49   S    
C9    N15   A    
C23   O37   S    
C100  H16   S    
C27   C33   A    
C120  H78   S    
C19   O33   S    
C98   H11   S    
C28   C46   A    
O27   C97   S    
C91   N19   A    
C29   C47   A    
C18   C24   A    
C30   C48   A    
C11   N17   A    
C1    C56   S    
C107  H38   S    
N13   N19   A    
C108  H42   S    
C10   N16   A    
C18   C42   A    
O36   C106  S    
C54   O24   A    
C116  H64   S    
C31   Cl13  S    
C5    O11   A    
C12   N18   A    
O28   C98   S    
C67   O39   S    
C68   C74   A    
C118  H70   S    
C13   O45   S    
C115  H63   S    
Cr3   O21   S    
C103  H25   S    
C111  H49   S    
C49   O15   A    
C63   Cl3   S    
C112  H52   S    
Cr6   O6    S    
C55   C61   A    
C7    N7    A    
N17   N23   A    
C20   O34   S    
C72   C78   A    
C11   C77   S    
C17   O49   S    
C91   N1    A    
C12   N12   A    
C10   C76   S    
C43   C53   S    
C99   H15   S    
C66   C72   A    
C63   C69   A    
C83   H5    S    
O34   C104  S    
C115  H62   S    
C80   C86   A    
O41   C111  S    
Cr2   O25   S    
C88   O30   S    
C67   C73   A    
C32   C38   A    
Cr1   O19   S    
O47   C117  S    
Cr6   O24   S    
C13   C37   A    
C1    O7    A    
C96   N24   A    
C109  H44   S    
C27   C45   A    
Cr4   O16   S    
C99   H14   S    
C101  H19   S    
C28   C34   A    
C108  H41   S    
N5    N11   A    
O43   C113  S    
N15   N21   A    
C95   N23   A    
C104  H29   S    
C96   N6    A    
C70   O42   S    
C7    N13   A    
C103  H27   S    
C39   C93   S    
C92   N20   A    
C6    O12   A    
O38   C108  S    
C20   C44   A    
C19   C43   A    
C46   C50   S    
C57   C63   A    
C54   O17   A    
C113  H56   S    
C65   Cl5   S    
C100  H17   S    
C31   C37   A    
C58   C64   A    
C83   C89   A    
C98   H12   S    
C81   H3    S    
C48   C51   S    
C2    O1    A    
C23   C47   A    
C49   O19   A    
Cr5   O17   S    
N16   N22   A    
C102  H22   S    
C24   C48   A    
C14   C20   A    
C107  H37   S    
C64   Cl4   S    
C11   N11   A    
C60   C90   A    
C76   C82   A    
C116  H65   S    
Cr5   O5    S    
C105  H31   S    
C75   C81   A    
C114  H60   S    
Cr2   O20   S    
Cr2   O14   S    
C51   O14   A    
C120  H76   S    
C65   C71   A    
C27   Cl9   S    
C53   O16   A    
C57   C87   A    
C12   C78   S    
C59   C89   A    
C112  H53   S    
Cr1   O25   S    
C36   Cl18  S    
C55   C85   A    
C30   Cl12  S    
O37   C107  S    
C102  H23   S    
C108  H40   S    
C10   N10   A    
Cr4   O26   S    
C14   C38   A    
C61   C67   A    
C56   C86   A    
C106  H34   S    
C17   C23   A    
C119  H75   S    
N18   N24   A    
C4    O10   A    
C93   N21   A    
C115  H61   S    
C7    C73   S    
C8    C74   S    
O39   C109  S    
C73   C79   A    
C24   O38   S    
C66   Cl6   S    
Cr6   O18   S    
C33   C39   A    
O50   C120  S    
C15   C39   A    
C81   C87   A    
C117  H68   S    
C16   C40   A    
C60   C66   A    
C18   O50   S    
C32   Cl14  S    
O35   C105  S    
C103  H26   S    
C99   H13   S    
C106  H35   S    
C119  H74   S    
C45   C54   S    
C53   O23   A    
C64   C70   A    
Cr3   O25   S    
C70   C76   A    
C97   H7    S    
C34   Cl16  S    
C104  H30   S    
C42   C96   S    
C71   O43   S    
C101  H20   S    
O45   C115  S    
C94   N22   A    
N2    N8    A    
C71   C77   A    
C110  H46   S    
Cr1   O7    S    
O30   C100  S    
C50   O13   A    
C110  H47   S    
C35   Cl17  S    
C90   O32   S    
C29   Cl11  S    
Cr4   O22   S    
C118  H71   S    
Cr3   O15   S    
C113  H55   S    
C51   O21   A    
C16   C22   A    
C100  H18   S    
C5    C60   S    
C22   C46   A    
C86   O28   S    
Cr1   O13   S    
C56   C62   A    
C25   Cl7   S    
C40   C94   S    
O46   C116  S    
C15   O47   S    
C117  H69   S    
C58   C88   A    
Cr5   O26   S    
C116  H66   S    
C16   O48   S    
Cr3   O9    S    
C26   Cl8   S    
C25   C43   A    
C120  H77   S    
C109  H45   S    
C87   O29   S    
C29   C35   A    
Cr2   O2    S    
C8    N8    A    
C3    C55   S    
Cr3   O3    S    
C111  H51   S    
C30   C36   A    
N3    N9    A    
C3    O2    A    
C89   O31   S    
C112  H54   S    
C6    O5    A    
C61   Cl1   S    
C69   O41   S    
C102  H24   S    
C85   O27   S    
C92   N2    A    
O29   C99   S    
Cr4   O10   S    
C59   C65   A    
N4    N10   A    
Cr5   O11   S    
C105  H33   S    
C44   C52   S    
O31   C101  S    
C41   C95   S    
C15   C21   A    
C95   N5    A    
C82   C88   A    
C22   O36   S    
C4    C59   S    
C94   N4    A    
O42   C112  S    
C84   H6    S    
C79   C85   A    
C111  H50   S    
C69   C75   A    
C110  H48   S    
C62   Cl2   S    
C62   C68   A    
C82   H4    S    
C8    N14   A    
N14   N20   A    
O40   C110  S    
C35   C41   A    
C17   C41   A    
C78   C84   A    
O44   C114  S    
C114  H59   S    
C117  H67   S    
N1    N7    A    
C84   C90   A    
C4    O6    A    
O33   C103  S    
C50   O20   A    
C28   Cl10  S    
C106  H36   S    
N6    N12   A    
C119  H73   S    
C101  H21   S    
C97   H9    S    
C52   O18   A    
C109  H43   S    
C74   C80   A    
Cr2   O8    S    
Cr6   O12   S    
C13   C19   A    
C77   C83   A    
O48   C118  S    
C34   C40   A    
C80   H2    S    
C14   O46   S    
C2    O8    A    
C9    C75   S    
C72   O44   S    
C21   O35   S    
C1    O3    A    
C105  H32   S    
C52   O22   A    
C93   N3    A    
C33   Cl15  S    
Cr4   O4    S    
C37   C91   S    
C68   O40   S    
C113  H57   S    
C21   C45   A    
