data_mof_unit_22746.cif
_audit_creation_date              2013-03-05T15:49:33-0500
_audit_creation_method            fapswitch 2.2
_symmetry_space_group_name_H-M    P1
_symmetry_Int_Tables_number       1
_space_group_crystal_system       triclinic
_cell_length_a                    19.379432
_cell_length_b                    13.034601
_cell_length_c                    11.664793
_cell_angle_alpha                 99.712463
_cell_angle_beta                  93.701706
_cell_angle_gamma                 90.959133
_cell_volume                      2897.12681787

loop_
_atom_site_label
_atom_site_type_symbol
_atom_site_description
_atom_site_fract_x
_atom_site_fract_y
_atom_site_fract_z
_atom_type_partial_charge
O1    O     O_R   0.503640 0.354460 0.582000 -0.603911
O2    O     O_R   0.496360 0.645540 0.418000 -0.562914
O3    O     O_R   0.494980 0.341410 0.386200 -0.561856
O4    O     O_R   0.505020 0.658590 0.613800 -0.564106
C1    C     C_R   0.501447 0.299310 0.478892 0.908115
C2    C     C_R   0.498214 0.700446 0.521161 0.910668
O5    O     O_R   0.404470 0.506520 0.597930 -0.554388
O6    O     O_R   0.595530 0.493480 0.402070 -0.560520
O7    O     O_R   0.395820 0.493460 0.402130 -0.565203
O8    O     O_R   0.604180 0.506540 0.597870 -0.570605
C3    C     C_R   0.367610 0.498784 0.500239 0.903488
C4    C     C_R   0.632534 0.499494 0.499585 0.898550
Cu1   Cu    Cu3+1 0.505120 0.507730 0.615930 1.052400
Cu2   Cu    Cu3+1 0.494880 0.492270 0.384070 1.065774
C5    C     C_R   0.258327 0.569996 0.579624 0.322140
C6    C     C_R   0.740450 0.425564 0.414972 0.334682
C7    C     C_R   0.186215 0.566235 0.579677 -0.164271
C8    C     C_R   0.812710 0.424898 0.415106 -0.155891
H1    H     H_    0.161156 0.623596 0.640293 0.203413
H2    H     H_    0.836538 0.369765 0.350366 0.203449
C9    C     C_R   0.146413 0.492423 0.500139 -0.038769
C10   C     C_R   0.854095 0.491823 0.499694 -0.039390
C11   C     C_R   0.179600 0.419959 0.421000 -0.144503
C12   C     C_R   0.822522 0.561117 0.584212 -0.143211
H3    H     H_    0.149197 0.361457 0.360660 0.204772
H4    H     H_    0.854062 0.614220 0.649067 0.204494
C13   C     C_R   0.251808 0.419193 0.421534 -0.060634
C14   C     C_R   0.750612 0.566323 0.583856 -0.055675
C15   C     C_R   0.291794 0.495833 0.500458 -0.209178
C16   C     C_R   0.708612 0.497558 0.499107 -0.205487
N1    N     N_R   0.030778 0.424208 0.419209 -0.202206
N2    N     N_R   0.969780 0.557451 0.580713 -0.203957
N3    N     N_R   0.962099 0.423955 0.419078 -0.200710
N4    N     N_R   0.038347 0.557747 0.580806 -0.203463
C17   C     C_R   0.930226 0.490686 0.499872 0.459883
C18   C     C_R   0.070272 0.491243 0.500038 0.457010
C19   C     C_R   0.502708 0.813200 0.532708 -0.172129
C20   C     C_R   0.503695 0.185860 0.466656 -0.160719
C21   C     C_R   0.461479 0.019921 0.357005 0.359380
C22   C     C_R   0.567699 0.970345 0.619812 0.360488
C23   C     C_R   0.470159 0.126937 0.367158 -0.149047
C24   C     C_R   0.551758 0.865696 0.615234 -0.169939
C25   C     C_R   0.537219 0.136303 0.552959 -0.064943
C26   C     C_R   0.464972 0.866902 0.455584 -0.062101
C27   C     C_R   0.531389 0.026423 0.541650 -0.049103
C28   C     C_R   0.485546 0.970498 0.450664 -0.045685
H5    H     H_    0.580321 0.823875 0.674446 0.225564
H6    H     H_    0.449134 0.164752 0.297185 0.211855
N5    N     N_R   0.512830 0.519350 0.790130 -0.227133
N6    N     N_R   0.487170 0.480650 0.209870 -0.224386
C29   C     C_R   0.437162 0.396093 0.022157 0.252319
C30   C     C_R   0.563025 0.603609 0.977815 0.258402
C31   C     C_R   0.444272 0.406469 0.144577 0.052203
C32   C     C_R   0.555783 0.593440 0.855434 0.056795
C33   C     C_R   0.525420 0.546237 0.157615 0.140229
C34   C     C_R   0.474719 0.453563 0.842345 0.101413
C35   C     C_R   0.522769 0.537755 0.034381 -0.098116
C36   C     C_R   0.477415 0.461949 0.965573 -0.103574
H7    H     H_    0.442551 0.394451 0.786850 0.189633
H8    H     H_    0.557659 0.605284 0.213078 0.184542
H9    H     H_    0.585996 0.643729 0.811794 0.171759
H10   H     H_    0.413993 0.356271 0.188261 0.170007
N7    N     N_R   0.296348 0.651808 0.657728 0.140776
O9    O     O_R   0.344570 0.705411 0.619830 -0.355188
O10   O     O_R   0.275866 0.683375 0.761579 -0.279130
N8    N     N_R   0.700561 0.349849 0.331837 0.140430
O11   O     O_R   0.652007 0.294269 0.366058 -0.327897
O12   O     O_R   0.719998 0.324354 0.226314 -0.289132
N9    N     N_R   0.388325 0.319970 0.958289 0.125707
O13   O     O_R   0.381244 0.229691 0.990372 -0.288431
O14   O     O_R   0.342248 0.347104 0.883723 -0.314422
N10   N     N_R   0.611956 0.679579 0.041689 0.124035
O15   O     O_R   0.618966 0.770011 0.009944 -0.281570
O16   O     O_R   0.658117 0.652219 0.115971 -0.320678
C37   C     C_2   0.283150 0.334156 0.341897 0.875661
O17   O     O_2   0.335911 0.293714 0.373580 -0.614352
O18   O     O_R   0.250657 0.297633 0.231612 -0.709073
H11   H     H_    0.276581 0.239293 0.185630 0.378676
C38   C     C_2   0.721946 0.648699 0.669762 0.884340
O19   O     O_2   0.672647 0.697852 0.640797 -0.622571
O20   O     O_R   0.753227 0.673075 0.782783 -0.707907
H12   H     H_    0.729313 0.731175 0.832966 0.379068
C39   C     C_2   0.396047 0.825062 0.400939 0.955283
O21   O     O_2   0.388504 0.735800 0.348479 -0.542303
O22   O     O_R   0.339265 0.890100 0.409721 -0.704206
H13   H     H_    0.295243 0.854225 0.369445 0.363664
C40   C     C_2   0.572897 0.200289 0.658259 0.949944
O23   O     O_2   0.622235 0.257213 0.648446 -0.525537
O24   O     O_R   0.549054 0.196386 0.768087 -0.709834
H14   H     H_    0.576823 0.244331 0.832857 0.355367
N11   N     N_R   0.433194 0.961888 0.247617 0.135785
O25   O     O_R   0.384934 0.001101 0.186669 -0.272680
O26   O     O_R   0.462929 0.877835 0.200369 -0.295535
N12   N     N_R   0.627029 0.013135 0.693407 0.128991
O27   O     O_R   0.634399 0.996302 0.800306 -0.260456
O28   O     O_R   0.680038 0.047745 0.646807 -0.282525

loop_
_geom_bond_atom_site_label_1
_geom_bond_atom_site_label_2
_geom_bond_distance
_ccdc_geom_bond_type
N8    O12   1.301335 A    
C40   O23   1.223471 D    
N7    O10   1.301422 A    
C13   C15   1.420431 A    
C37   O17   1.222671 D    
C26   C39   1.495409 S    
O20   H12   1.013998 S    
C21   C23   1.386343 A    
C9    C18   1.475299 S    
O18   H11   1.014061 S    
O5    C3    1.293324 A    
C10   C17   1.475577 S    
O1    C1    1.290649 A    
C12   H4    1.083734 S    
N9    O13   1.301320 A    
C6    C16   1.418204 A    
N5    C32   1.359703 A    
C19   C24   1.391511 A    
O4    Cu1   1.970774 S    
N9    O14   1.301183 A    
C14   C38   1.481381 S    
N3    C17   1.357526 A    
C30   C32   1.408835 A    
N1    N3    1.330806 A    
C11   C13   1.399170 A    
N4    C18   1.356288 A    
C22   C24   1.384958 A    
N8    O11   1.301091 A    
C33   H8    1.079345 S    
O2    C2    1.290169 A    
C13   C37   1.486080 S    
C21   N11   1.439073 S    
C26   C28   1.413063 A    
C5    C15   1.415988 A    
C22   C27   1.421260 A    
N6    C31   1.359773 A    
N2    C17   1.357053 A    
C1    C20   1.463155 S    
C20   C23   1.394425 A    
N10   O16   1.301185 A    
N11   O25   1.301580 A    
C38   O20   1.398415 S    
O22   H13   1.013887 S    
C7    C9    1.401061 A    
N7    O9    1.301013 A    
C29   C31   1.408998 A    
N2    N4    1.328660 A    
O7    Cu2   1.944757 S    
C30   N10   1.436419 S    
N11   O26   1.301758 A    
C25   C27   1.417883 A    
C31   H10   1.081836 S    
C39   O21   1.221510 D    
O6    C4    1.294990 A    
C2    C19   1.453671 S    
C29   C36   1.419955 A    
N12   O28   1.301385 A    
O7    C3    1.291759 A    
O3    Cu2   1.970774 S    
O8    C4    1.293171 A    
C21   C28   1.416992 A    
Cu1   N5    2.007612 S    
O4    C2    1.290622 A    
C39   O22   1.398775 S    
C33   C35   1.420530 A    
C10   C12   1.399312 A    
O1    Cu1   1.969405 S    
C5    C7    1.397576 A    
O6    Cu2   1.947796 S    
C4    C16   1.475333 S    
C8    C10   1.400630 A    
C12   C14   1.396129 A    
C22   N12   1.435131 S    
N10   O15   1.301310 A    
O3    C1    1.292633 A    
O8    Cu1   1.944760 S    
C32   H9    1.081605 S    
N5    C34   1.365603 A    
N6    C33   1.365579 A    
C34   H7    1.079296 S    
C25   C40   1.485856 S    
C19   C26   1.406692 A    
C9    C11   1.400291 A    
C20   C25   1.414844 A    
C35   C36   1.416098 A    
Cu2   N6    2.007614 S    
C14   C16   1.419829 A    
C7    H1    1.083025 S    
C23   H6    1.083842 S    
C34   C36   1.420556 A    
C8    H2    1.083050 S    
C24   H5    1.080919 S    
C11   H3    1.083678 S    
N12   O27   1.301452 A    
O2    Cu2   1.969404 S    
C30   C35   1.419851 A    
C38   O19   1.220342 D    
C27   C28   1.429196 A    
O5    Cu1   1.947796 S    
C6    N8    1.437601 S    
C3    C15   1.469319 S    
C6    C8    1.400441 A    
C37   O18   1.398869 S    
C40   O24   1.398218 S    
C5    N7    1.438511 S    
N1    C18   1.358200 A    
C29   N9    1.436458 S    
O24   H14   1.013860 S    
Cu1   Cu2   2.672137 S    
