data_mof_unit_43971.cif
_audit_creation_date              2012-10-26T18:49:57-0400
_audit_creation_method            fapswitch 2.2
_symmetry_space_group_name_H-M    P1
_symmetry_Int_Tables_number       1
_space_group_crystal_system       triclinic
_cell_length_a                    10.920313
_cell_length_b                    12.915639
_cell_length_c                    11.747691
_cell_angle_alpha                 97.763302
_cell_angle_beta                  92.569694
_cell_angle_gamma                 91.715147
_cell_volume                      1639.00583964

loop_
_atom_site_label
_atom_site_type_symbol
_atom_type_description
_atom_site_fract_x
_atom_site_fract_y
_atom_site_fract_z
_atom_type_partial_charge
C1    C     C_R   0.495935 0.299912 0.480248 0.547556
C2    C     C_R   0.436439 0.865215 0.461000 -0.142506
C3    C     C_R   0.547248 0.027470 0.535336 0.042459
C4    C     C_R   0.452742 0.972531 0.462928 0.044782
C5    C     C_R   0.405609 0.382963 0.028669 0.082405
C6    C     C_R   0.608135 0.608613 0.971284 0.075966
C7    C     C_R   0.413224 0.397898 0.149900 0.013128
C8    C     C_R   0.589920 0.600420 0.850406 0.002071
C9    C     C_R   0.531346 0.555473 0.153879 0.408110
C10   C     C_R   0.479890 0.439566 0.846397 0.430117
C11   C     C_R   0.537812 0.540355 0.031671 -0.070506
C12   C     C_R   0.503421 0.700137 0.519714 0.543777
C13   C     C_R   0.472912 0.453727 0.968516 -0.074456
C14   C     C_R   0.260792 0.494843 0.500317 0.543755
C15   C     C_R   0.734682 0.483280 0.498752 0.570398
C16   C     C_R   0.131309 0.447974 0.706658 0.312098
C17   C     C_R   0.864264 0.376802 0.294648 0.337411
C18   C     C_R   0.079773 0.479605 0.812301 0.168880
C19   C     C_R   0.920224 0.373160 0.188829 0.162258
C20   C     C_R   0.952839 0.473832 0.815067 -0.151151
C21   C     C_R   0.032047 0.426309 0.184161 -0.194220
C22   C     C_R   0.883044 0.450970 0.712692 -0.155843
C23   C     C_R   0.514324 0.812609 0.528881 0.017022
C24   C     C_R   0.093811 0.473925 0.284235 -0.150228
C25   C     C_R   0.936011 0.457892 0.605098 -0.046692
C26   C     C_R   0.049626 0.462700 0.393767 -0.044597
C27   C     C_R   0.065430 0.462213 0.603139 -0.029289
C28   C     C_R   0.924665 0.431648 0.396004 -0.022063
C29   C     C_R   0.865286 0.454090 0.499886 -0.021438
C30   C     C_R   0.123889 0.476780 0.499384 -0.035581
C31   C     C_3   0.284856 0.214662 0.024447 -0.336293
C32   C     C_3   0.769113 0.750505 0.971451 -0.334544
C33   C     C_3   0.191568 0.280739 0.653971 -0.090324
C34   C     C_R   0.484730 0.187557 0.470751 0.008441
C35   C     C_3   0.782832 0.222649 0.333973 -0.119027
C36   C     C_3   0.126846 0.599932 0.987649 -0.340105
C37   C     C_3   0.757204 0.363613 0.042956 -0.274128
C38   C     C_3   0.532807 0.270376 0.800738 -0.100592
C39   C     C_3   0.495740 0.727551 0.201905 -0.085482
C40   C     C_R   0.376790 0.025749 0.393193 -0.149411
C41   C     C_R   0.622693 0.974477 0.605674 -0.145166
C42   C     C_R   0.392863 0.133305 0.397133 -0.147378
C43   C     C_R   0.605773 0.867121 0.602836 -0.130489
C44   C     C_R   0.563841 0.134668 0.536989 -0.151410
Cu1   Cu    Cu3+1 0.509250 0.507730 0.615930 0.995174
Cu2   Cu    Cu3+1 0.490750 0.492270 0.384070 1.004746
H1    H     H_    0.072843 0.428925 0.102465 0.155925
H2    H     H_    0.694692 0.015810 0.662071 0.095486
H3    H     H_    0.635017 0.654702 0.802370 0.143642
H4    H     H_    0.365759 0.345055 0.198047 0.142802
H5    H     H_    0.266551 0.322295 0.907682 0.313655
H6    H     H_    0.242973 0.151747 0.959362 0.141303
H7    H     H_    0.213661 0.241979 0.085080 0.132801
H8    H     H_    0.362156 0.181389 0.070581 0.150692
H9    H     H_    0.752823 0.647604 0.092329 0.279955
H10   H     H_    0.830848 0.802108 0.033878 0.142808
H11   H     H_    0.706207 0.801055 0.928782 0.146506
H12   H     H_    0.908535 0.479255 0.895912 0.121943
H13   H     H_    0.826333 0.705779 0.907460 0.133764
H14   H     H_    0.106105 0.252355 0.690010 0.083842
H15   H     H_    0.179552 0.277688 0.559125 0.101617
H16   H     H_    0.264359 0.225911 0.670732 0.169864
H17   H     H_    0.817072 0.232185 0.425531 0.091353
H18   H     H_    0.850065 0.180364 0.277917 0.118690
H19   H     H_    0.697366 0.173153 0.326041 0.149401
H20   H     H_    0.247111 0.502512 0.901268 0.279182
H21   H     H_    0.191932 0.612241 0.064111 0.128870
H22   H     H_    0.032677 0.595294 0.018821 0.150890
H23   H     H_    0.789730 0.425250 0.721631 0.155167
H24   H     H_    0.136211 0.667953 0.939554 0.143834
H25   H     H_    0.925319 0.295552 0.023420 0.237167
H26   H     H_    0.734651 0.327379 0.953448 0.097395
H27   H     H_    0.774742 0.448668 0.042537 0.130979
H28   H     H_    0.678104 0.351049 0.096061 0.207327
H29   H     H_    0.544493 0.257556 0.891968 0.120797
H30   H     H_    0.622488 0.292590 0.767964 0.090426
H31   H     H_    0.500064 0.194045 0.753129 0.139189
H32   H     H_    0.532820 0.801066 0.253018 0.146200
H33   H     H_    0.403115 0.709476 0.231585 0.100878
H34   H     H_    0.173507 0.520769 0.271056 0.163919
H35   H     H_    0.486591 0.742828 0.111204 0.118702
H36   H     H_    0.363868 0.822435 0.406538 0.087522
H37   H     H_    0.637621 0.177198 0.590018 0.084248
H38   H     H_    0.665925 0.826130 0.655964 0.110200
H39   H     H_    0.332034 0.174581 0.344916 0.106165
H40   H     H_    0.304653 0.984531 0.336886 0.096670
N1    N     N_R   0.523180 0.519350 0.790130 -0.250753
N2    N     N_R   0.476820 0.480650 0.209870 -0.248938
N3    N     N_2   0.328816 0.299982 0.967131 -0.497031
N4    N     N_2   0.699941 0.679675 0.032016 -0.496587
N5    N     N_2   0.154957 0.504516 0.915205 -0.528557
N6    N     N_2   0.864489 0.316397 0.086628 -0.506874
O1    O     O_R   0.506570 0.354460 0.582000 -0.453906
O2    O     O_3   0.755511 0.320095 0.299345 -0.539340
O3    O     O_3   0.444181 0.344878 0.783454 -0.484696
O4    O     O_3   0.577491 0.647020 0.217523 -0.520648
O5    O     O_R   0.493430 0.645540 0.418000 -0.461603
O6    O     O_R   0.490940 0.341410 0.386200 -0.503089
O7    O     O_R   0.509060 0.658590 0.613800 -0.527462
O8    O     O_R   0.327470 0.506520 0.597900 -0.430340
O9    O     O_R   0.672530 0.493480 0.402100 -0.427815
O10   O     O_R   0.311840 0.493460 0.402100 -0.543866
O11   O     O_R   0.688160 0.506540 0.597900 -0.542811
O12   O     O_3   0.229006 0.382409 0.706764 -0.515098

loop_
_geom_bond_atom_site_label_1
_geom_bond_atom_site_label_2
_ccdc_geom_bond_type
C37   H28   S    
C33   O12   S    
C34   C42   A    
C31   H6    S    
C44   H37   S    
Cu1   O1    S    
C36   H21   S    
C38   H30   S    
Cu1   Cu2   S    
Cu2   O10   S    
C12   C23   S    
C18   N5    S    
C28   C29   A    
Cu1   N1    S    
C24   C26   A    
H9    N4    S    
C9    N2    A    
C14   O10   A    
C35   H19   S    
C23   C43   A    
C40   H40   S    
C12   O7    A    
C19   N6    S    
Cu1   O11   S    
C24   H34   S    
C32   N4    S    
H25   N6    S    
C4    C40   A    
C36   H24   S    
C33   H16   S    
C31   N3    S    
C22   C25   A    
C38   O3    S    
C35   H18   S    
C22   H23   S    
C5    C13   A    
C16   C27   A    
C40   C42   A    
Cu2   O6    S    
C27   C30   A    
C43   H38   S    
C41   C43   A    
C37   H26   S    
C32   H11   S    
C14   C30   S    
C16   O12   S    
C1    C34   S    
C15   C29   S    
Cu2   N2    S    
C38   H29   S    
C25   C29   A    
C3    C44   A    
Cu2   O9    S    
C10   N1    A    
C39   H32   S    
C34   C44   A    
C39   H35   S    
Cu1   O7    S    
C6    C11   A    
C5    C7    A    
C6    C8    A    
C6    N4    S    
C10   C13   A    
C1    O1    A    
C15   O9    A    
C39   H33   S    
C2    C4    A    
C7    N2    A    
C42   H39   S    
C31   H7    S    
C9    C11   A    
C9    O4    S    
C12   O5    A    
C36   N5    S    
C33   H15   S    
Cu2   O5    S    
C20   C22   A    
C26   C30   A    
C33   H14   S    
C2    H36   S    
C20   H12   S    
C3    C4    A    
C35   O2    S    
C37   H27   S    
C3    C41   A    
C37   N6    S    
C19   C21   A    
C17   C28   A    
C7    H4    S    
Cu1   O8    S    
C1    O6    A    
C36   H22   S    
C14   O8    A    
H20   N5    S    
C38   H31   S    
C25   C27   A    
C26   C28   A    
C8    N1    A    
H5    N3    S    
C11   C13   A    
C10   O3    S    
C17   C19   A    
C41   H2    S    
C18   C20   A    
C31   H8    S    
C39   O4    S    
C16   C18   A    
C21   C24   A    
C2    C23   A    
C35   H17   S    
C17   O2    S    
C32   H13   S    
C15   O11   A    
C8    H3    S    
C32   H10   S    
C5    N3    S    
C21   H1    S    
