data_mof_unit_12402.cif
_audit_creation_date              2012-12-10T16:50:03-0500
_audit_creation_method            fapswitch 2.2
_symmetry_space_group_name_H-M    P1
_symmetry_Int_Tables_number       1
_space_group_crystal_system       triclinic
_cell_length_a                    7.793113
_cell_length_b                    8.583945
_cell_length_c                    10.596328
_cell_angle_alpha                 90.659736
_cell_angle_beta                  85.843988
_cell_angle_gamma                 93.890513
_cell_volume                      705.339577506

loop_
_atom_site_label
_atom_site_type_symbol
_atom_type_description
_atom_site_fract_x
_atom_site_fract_y
_atom_site_fract_z
_atom_type_partial_charge
C1    C     C_R   0.545875 0.794682 0.496165 0.931230
C2    C     C_R   0.454086 0.205302 0.502678 0.974551
C3    C     C_R   0.498401 0.502277 0.260730 0.875197
C4    C     C_R   0.428782 0.787386 0.874199 -0.258402
C5    C     C_R   0.383774 0.919543 0.943014 -0.253500
C6    C     C_R   0.370972 0.916592 0.075265 0.532891
C7    C     C_R   0.411422 0.783268 0.138002 -0.269907
C8    C     C_R   0.455724 0.647906 0.069289 0.019247
C9    C     C_3   0.148271 0.062766 0.144097 0.058870
C10   C     C_3   0.117167 0.235774 0.137185 -0.343201
C11   C     C_3   0.925735 0.261565 0.140113 -0.942791
C12   C     C_R   0.463075 0.649581 0.936906 0.098751
C13   C     C_R   0.508443 0.513143 0.871093 -0.069045
C14   C     C_R   0.550804 0.380023 0.931786 -0.228328
C15   C     C_R   0.543989 0.378694 0.060913 -0.205044
C16   C     C_R   0.496256 0.510433 0.128482 -0.081258
C17   C     C_2   0.569720 0.958385 0.493360 -0.383255
C18   C     C_2   0.430140 0.041558 0.503527 -0.360996
C19   C     C_R   0.502563 0.502808 0.739151 0.859216
H1    H     H_    0.584599 0.276030 0.879129 0.150744
H2    H     H_    0.084949 0.013810 0.233816 0.159455
H3    H     H_    0.086060 0.001731 0.063662 0.136248
H4    H     H_    0.173267 0.297833 0.218342 0.241451
H5    H     H_    0.181737 0.285085 0.048099 0.239613
H6    H     H_    0.868630 0.202716 0.057576 0.262444
H7    H     H_    0.908497 0.388632 0.135229 0.286531
H8    H     H_    0.857780 0.214846 0.228932 0.268662
H9    H     H_    0.987026 0.618797 0.593260 0.194666
H10   H     H_    0.438018 0.794744 0.772115 0.165175
H11   H     H_    0.357924 0.024325 0.893730 0.152157
H12   H     H_    0.406547 0.787174 0.240182 0.168712
H13   H     H_    0.572976 0.273944 0.108842 0.198808
H14   H     H_    0.701361 0.009925 0.483503 0.178374
H15   H     H_    0.298491 0.990009 0.513038 0.177107
H16   H     H_    0.012867 0.380516 0.407536 0.193722
N1    N     N_2   0.950330 0.457950 0.466250 -0.174888
N2    N     N_2   0.049670 0.542050 0.533750 -0.172928
O1    O     O_R   0.389250 0.738570 0.508280 -0.621385
O2    O     O_R   0.678390 0.711630 0.486650 -0.626927
O3    O     O_R   0.355400 0.513470 0.694050 -0.614507
O4    O     O_R   0.644540 0.486530 0.672420 -0.620437
O5    O     O_R   0.321610 0.288370 0.513350 -0.629044
O6    O     O_R   0.610750 0.261430 0.491720 -0.616386
O7    O     O_R   0.355460 0.513470 0.327580 -0.638656
O8    O     O_R   0.644600 0.486530 0.305950 -0.614468
O9    O     O_3   0.327813 0.047199 0.144204 -0.669098
Zn1   Zn    Zn3+2 0.306930 0.517990 0.514440 0.934774
Zn2   Zn    Zn3+2 0.693070 0.482010 0.485560 0.935854

loop_
_geom_bond_atom_site_label_1
_geom_bond_atom_site_label_2
_ccdc_geom_bond_type
O3    Zn1   S    
C6    C7    A    
C10   H4    S    
N2    Zn1   S    
O6    Zn2   S    
C1    C17   S    
H16   N1    S    
O7    Zn1   S    
C11   H8    S    
C2    O6    A    
C8    C12   A    
C17   C18   D    
C9    O9    S    
C8    C16   A    
C13   C14   A    
C18   H15   S    
C9    H2    S    
O1    Zn1   S    
C17   H14   S    
C1    O1    A    
C2    O5    A    
H9    N2    S    
C9    C10   S    
N1    N2    D    
O4    Zn2   S    
N1    Zn2   S    
O5    Zn1   S    
C5    C6    A    
C3    O7    A    
C9    H3    S    
C4    C12   A    
C19   O3    A    
C1    O2    A    
C15   C16   A    
C14   H1    S    
C7    C8    A    
C7    H12   S    
C12   C13   A    
C5    H11   S    
C10   C11   S    
O8    Zn2   S    
C11   H6    S    
C14   C15   A    
C4    C5    A    
C13   C19   S    
C4    H10   S    
C6    O9    S    
C11   H7    S    
C10   H5    S    
C3    O8    A    
C3    C16   S    
C19   O4    A    
C2    C18   S    
O2    Zn2   S    
C15   H13   S    
