data_mof_unit_34888.cif
_audit_creation_date              2012-12-11T15:50:36-0500
_audit_creation_method            fapswitch 2.2
_symmetry_space_group_name_H-M    P1
_symmetry_Int_Tables_number       1
_space_group_crystal_system       triclinic
_cell_length_a                    6.907043
_cell_length_b                    14.710212
_cell_length_c                    16.0327
_cell_angle_alpha                 90.000448
_cell_angle_beta                  90.000746
_cell_angle_gamma                 90.002679
_cell_volume                      1628.98752019

loop_
_atom_site_label
_atom_site_type_symbol
_atom_type_description
_atom_site_fract_x
_atom_site_fract_y
_atom_site_fract_z
_atom_type_partial_charge
O1    O     O_R   0.638140 0.833910 0.163320 -0.547433
O2    O     O_R   0.361860 0.166090 0.836680 -0.547433
O3    O     O_R   0.361860 0.166090 0.663320 -0.547428
O4    O     O_R   0.638140 0.833910 0.336680 -0.547428
O5    O     O_R   0.138140 0.666090 0.336680 -0.547420
O6    O     O_R   0.861860 0.333910 0.663320 -0.547420
O7    O     O_R   0.861860 0.333910 0.836680 -0.547424
O8    O     O_R   0.138140 0.666090 0.163320 -0.547424
O9    O     O_R   0.308390 0.844930 0.336080 -0.506660
O10   O     O_R   0.691610 0.155070 0.663920 -0.506660
O11   O     O_R   0.691610 0.155070 0.836080 -0.506675
O12   O     O_R   0.308390 0.844930 0.163920 -0.506675
O13   O     O_R   0.808390 0.655070 0.163920 -0.506660
O14   O     O_R   0.191610 0.344930 0.836080 -0.506660
O15   O     O_R   0.191610 0.344930 0.663920 -0.506636
O16   O     O_R   0.808390 0.655070 0.336080 -0.506636
C1    C     C_R   0.477995 0.865887 0.366109 0.826450
C2    C     C_R   0.522005 0.134113 0.633891 0.826450
C3    C     C_R   0.522006 0.134112 0.866108 0.826446
C4    C     C_R   0.477994 0.865888 0.133892 0.826446
C5    C     C_R   0.977978 0.634131 0.133879 0.826447
C6    C     C_R   0.022022 0.365869 0.866121 0.826447
C7    C     C_R   0.022020 0.365870 0.633879 0.826452
C8    C     C_R   0.977980 0.634130 0.366121 0.826452
O17   O     O_3   0.471620 0.691320 0.250000 -0.362301
O18   O     O_3   0.528380 0.308680 0.750000 -0.362301
O19   O     O_3   0.971620 0.808680 0.250000 -0.362324
O20   O     O_3   0.028380 0.191320 0.750000 -0.362324
V1    V     V_3+5 0.196770 0.760880 0.250000 1.697119
V2    V     V_3+5 0.803230 0.239120 0.750000 1.697119
V3    V     V_3+5 0.696770 0.739120 0.250000 1.697157
V4    V     V_3+5 0.303230 0.260880 0.750000 1.697157
C9    C     C_R   0.848260 0.498482 0.442217 0.619303
C10   C     C_R   0.151740 0.501518 0.557783 0.619303
C11   C     C_R   0.151688 0.501542 0.942196 0.619301
C12   C     C_R   0.848312 0.498458 0.057804 0.619301
C13   C     C_R   0.348338 0.001552 0.057814 0.619300
C14   C     C_R   0.651662 0.998447 0.942186 0.619300
C15   C     C_R   0.651695 0.998466 0.557799 0.619317
C16   C     C_R   0.348305 0.001533 0.442201 0.619317
C17   C     C_R   0.856387 0.432596 0.505466 0.071863
C18   C     C_R   0.143612 0.567404 0.494534 0.071863
C19   C     C_R   0.143550 0.567431 0.005442 0.071809
C20   C     C_R   0.856450 0.432569 0.994558 0.071809
C21   C     C_R   0.356405 0.067388 0.994540 0.071856
C22   C     C_R   0.643595 0.932612 0.005459 0.071857
C23   C     C_R   0.643632 0.932631 0.494525 0.071885
C24   C     C_R   0.356368 0.067369 0.505475 0.071885
C25   C     C_R   0.009345 0.433552 0.564634 -0.346291
C26   C     C_R   0.990655 0.566448 0.435366 -0.346291
C27   C     C_R   0.990649 0.566449 0.064632 -0.346242
C28   C     C_R   0.009350 0.433551 0.935367 -0.346242
C29   C     C_R   0.509305 0.066419 0.935349 -0.346262
C30   C     C_R   0.490695 0.933581 0.064651 -0.346262
C31   C     C_R   0.490697 0.933580 0.435349 -0.346303
C32   C     C_R   0.509303 0.066420 0.564651 -0.346303
F1    F     F_    0.702550 0.494201 0.385368 -0.611530
F2    F     F_    0.297450 0.505799 0.614631 -0.611530
F3    F     F_    0.297320 0.505858 0.885321 -0.611553
F4    F     F_    0.702680 0.494142 0.114679 -0.611553
F5    F     F_    0.202770 0.005922 0.114724 -0.611498
F6    F     F_    0.797230 0.994078 0.885276 -0.611498
F7    F     F_    0.797307 0.994120 0.614688 -0.611499
F8    F     F_    0.202693 0.005880 0.385312 -0.611499
I1    I     I_    0.635416 0.331447 0.501575 -0.173139
I2    I     I_    0.364584 0.668553 0.498425 -0.173140
I3    I     I_    0.364403 0.668636 0.001515 -0.173218
I4    I     I_    0.635597 0.331364 0.998485 -0.173218
I5    I     I_    0.135322 0.168418 0.998374 -0.173118
I6    I     I_    0.864678 0.831581 0.001626 -0.173118
I7    I     I_    0.864776 0.831624 0.498344 -0.173089
I8    I     I_    0.135224 0.168376 0.501656 -0.173089

loop_
_geom_bond_atom_site_label_1
_geom_bond_atom_site_label_2
_ccdc_geom_bond_type
O17   V3    S    
O18   V4    S    
O12   V1    S    
O19   V1    S    
C10   C18   A    
C19   C27   A    
O15   V4    S    
O16   V3    S    
O5    C8    A    
O11   C3    A    
O8    V1    S    
O2    V4    S    
C6    C28   S    
C7    C25   S    
O1    V3    S    
O3    C2    A    
C11   F3    S    
C16   C24   A    
O11   V2    S    
O1    C4    A    
C11   C19   A    
C1    C31   S    
O9    V1    S    
C3    C29   S    
O15   C7    A    
C21   C29   A    
O16   C8    A    
O7    V2    S    
O17   V1    S    
O12   C4    A    
C24   I8    S    
C17   C25   A    
O5    V1    S    
C8    C26   S    
C22   I6    S    
C21   I5    S    
O20   V4    S    
C4    C30   S    
C17   I1    S    
C9    C26   A    
C15   C23   A    
O19   V3    S    
O10   V2    S    
C15   C32   A    
C16   C31   A    
C22   C30   A    
O8    C5    A    
O13   C5    A    
C10   F2    S    
C23   I7    S    
C12   C27   A    
C18   C26   A    
C13   C30   A    
O9    C1    A    
O6    V2    S    
O18   V2    S    
C12   C20   A    
O4    C1    A    
C13   C21   A    
C5    C27   S    
C23   C31   A    
C24   C32   A    
C10   C25   A    
C9    F1    S    
O2    C3    A    
O13   V3    S    
O14   V4    S    
C12   F4    S    
C13   F5    S    
C2    C32   S    
O7    C6    A    
C15   F7    S    
C16   F8    S    
C9    C17   A    
O14   C6    A    
O20   V2    S    
C20   C28   A    
C14   C29   A    
O10   C2    A    
O6    C7    A    
O3    V4    S    
C14   C22   A    
O4    V3    S    
C20   I4    S    
C19   I3    S    
C11   C28   A    
C18   I2    S    
C14   F6    S    
