data_mof_unit_68607.cif
_audit_creation_date              2012-12-10T16:45:20-0500
_audit_creation_method            fapswitch 2.2
_symmetry_space_group_name_H-M    P1
_symmetry_Int_Tables_number       1
_space_group_crystal_system       triclinic
_cell_length_a                    7.429506
_cell_length_b                    8.672739
_cell_length_c                    15.714521
_cell_angle_alpha                 93.667592
_cell_angle_beta                  74.453642
_cell_angle_gamma                 103.369597
_cell_volume                      949.067112229

loop_
_atom_site_label
_atom_site_type_symbol
_atom_type_description
_atom_site_fract_x
_atom_site_fract_y
_atom_site_fract_z
_atom_type_partial_charge
C1    C     C_R   0.544511 0.800170 0.503432 0.876932
C2    C     C_R   0.455503 0.199832 0.496551 0.876887
C3    C     C_R   0.275171 0.431914 0.087074 -0.206035
C4    C     C_R   0.724823 0.568000 0.912924 -0.205943
C5    C     C_R   0.145365 0.378386 0.036797 -0.219243
C6    C     C_R   0.854639 0.621501 0.963199 -0.219324
C7    C     C_2   0.570441 0.968221 0.503963 -0.389450
C8    C     C_2   0.429592 0.031782 0.496001 -0.389506
C9    C     C_R   0.381392 0.484744 0.666883 0.781563
C10   C     C_R   0.618607 0.515247 0.333116 0.781565
C11   C     C_R   0.304421 0.467275 0.764101 -0.135549
C12   C     C_R   0.695573 0.532656 0.235896 -0.135614
C13   C     C_R   0.073960 0.339073 0.894991 -0.217209
C14   C     C_R   0.926060 0.660794 0.104997 -0.217230
C15   C     C_R   0.127098 0.361796 0.803481 0.053349
C16   C     C_R   0.872907 0.638116 0.196504 0.053372
C17   C     C_R   0.420009 0.549260 0.818692 0.020189
C18   C     C_R   0.579982 0.450636 0.181314 0.020294
C19   C     C_R   0.387730 0.489606 0.905092 0.065434
C20   C     C_R   0.612282 0.510253 0.094905 0.065580
C21   C     C_R   0.202537 0.400493 0.945504 0.082459
C22   C     C_R   0.797481 0.599363 0.054489 0.082440
C23   C     C_R   0.528375 0.516925 0.953909 0.067598
C24   C     C_R   0.471630 0.482965 0.046089 0.067563
Cu1   Cu    Cu3+1 0.322120 0.483240 0.490330 0.914428
Cu2   Cu    Cu3+1 0.677880 0.516760 0.509670 0.914441
H1    H     H_    0.998192 0.324594 0.069836 0.147625
H2    H     H_    0.001808 0.675316 0.930160 0.147657
H3    H     H_    0.934631 0.266709 0.926716 0.140338
H4    H     H_    0.065392 0.733159 0.073269 0.140289
H5    H     H_    0.219744 0.432347 0.157733 0.148520
H6    H     H_    0.780239 0.567597 0.842263 0.148523
H7    H     H_    0.706928 0.039997 0.510151 0.178744
H8    H     H_    0.293113 0.960006 0.489805 0.178749
H9    H     H_    0.003570 0.614683 0.568952 0.219038
H10   H     H_    0.996430 0.385317 0.431048 0.219033
N1    N     N_2   0.945180 0.542040 0.524240 -0.225380
N2    N     N_2   0.054820 0.457960 0.475760 -0.225378
O1    O     O_R   0.384450 0.714270 0.493720 -0.580648
O2    O     O_R   0.615550 0.285730 0.506280 -0.580636
O3    O     O_R   0.684880 0.742590 0.510050 -0.584801
O4    O     O_R   0.315120 0.257410 0.489950 -0.584814
O5    O     O_R   0.265540 0.477900 0.617090 -0.584585
O6    O     O_R   0.734460 0.522100 0.382910 -0.584586
O7    O     O_R   0.565970 0.506210 0.633420 -0.578610
O8    O     O_R   0.434030 0.493790 0.366580 -0.578631
C25   C     C_3   0.458828 0.283644 0.209375 -0.349311
C26   C     C_3   0.514331 0.152068 0.142924 -0.340749
C27   C     C_3   0.360557 0.079141 0.094915 -0.830786
H11   H     H_    0.214370 0.068880 0.138928 0.251726
H12   H     H_    0.376809 0.150686 0.036320 0.265402
H13   H     H_    0.375888 0.958146 0.071852 0.230611
H14   H     H_    0.652974 0.195790 0.093583 0.208909
H15   H     H_    0.535482 0.054883 0.179613 0.194162
H16   H     H_    0.483173 0.250453 0.271784 0.155858
H17   H     H_    0.303284 0.278049 0.228096 0.192154
C28   C     C_3   0.541087 0.716279 0.790672 -0.349252
C29   C     C_3   0.485662 0.847778 0.857219 -0.340674
C30   C     C_3   0.639769 0.920886 0.905006 -0.830882
H18   H     H_    0.623762 0.849466 0.963636 0.265312
H19   H     H_    0.785864 0.930965 0.860914 0.251739
H20   H     H_    0.624512 0.041919 0.927993 0.230671
H21   H     H_    0.463937 0.944856 0.820666 0.194180
H22   H     H_    0.347313 0.803889 0.906720 0.208907
H23   H     H_    0.696627 0.721850 0.771876 0.192131
H24   H     H_    0.516613 0.749552 0.728309 0.155829
C31   C     C_3   0.009363 0.729173 0.248165 -0.380842
C32   C     C_3   0.937105 0.871867 0.295705 -0.319813
C33   C     C_3   0.063857 0.955088 0.354444 -0.822782
H25   H     H_    0.055231 0.874298 0.408115 0.267506
H26   H     H_    0.215153 0.991346 0.315246 0.249329
H27   H     H_    0.014635 0.062495 0.384445 0.230655
H28   H     H_    0.935725 0.957249 0.246271 0.196065
H29   H     H_    0.788156 0.833835 0.336715 0.218711
H30   H     H_    0.034616 0.650141 0.294349 0.221759
H31   H     H_    0.153424 0.774323 0.202984 0.186634
C34   C     C_3   0.990657 0.270769 0.751807 -0.380804
C35   C     C_3   0.062965 0.128124 0.704234 -0.319807
C36   C     C_3   0.936207 0.044888 0.645514 -0.822780
H32   H     H_    0.784943 0.008557 0.684738 0.249414
H33   H     H_    0.944764 0.125657 0.591840 0.267501
H34   H     H_    0.985487 0.937529 0.615501 0.230652
H35   H     H_    0.211895 0.166199 0.663203 0.218756
H36   H     H_    0.064423 0.042752 0.753659 0.196044
H37   H     H_    0.846608 0.225579 0.796984 0.186668
H38   H     H_    0.965388 0.349835 0.705642 0.221756

loop_
_geom_bond_atom_site_label_1
_geom_bond_atom_site_label_2
_ccdc_geom_bond_type
C9    O7    A    
C28   H24   S    
C18   C25   S    
Cu1   O5    S    
Cu2   O6    S    
C7    C8    D    
C34   C35   S    
C26   H15   S    
C13   H3    S    
C19   C21   A    
C32   H29   S    
C6    C22   A    
C33   H26   S    
Cu2   O7    S    
C5    H1    S    
C11   C15   A    
C35   H35   S    
C6    H2    S    
C20   C24   A    
C32   C33   S    
C27   H12   S    
C10   O8    A    
C23   C24   A    
C32   H28   S    
C34   H37   S    
C30   H18   S    
C7    H7    S    
C3    C24   A    
C14   H4    S    
C29   H22   S    
C26   H14   S    
C9    O5    A    
C30   H19   S    
C10   O6    A    
C31   C32   S    
C12   C16   A    
C4    C6    A    
C36   H33   S    
C4    C23   A    
C35   C36   S    
C29   C30   S    
C33   H27   S    
C19   C23   A    
N1    N2    D    
C2    O2    A    
Cu1   N2    S    
C25   C26   S    
C27   H13   S    
C13   C21   A    
C16   C31   S    
C8    H8    S    
C3    H5    S    
C9    C11   S    
C4    H6    S    
C10   C12   S    
C1    O3    A    
C26   C27   S    
C20   C22   A    
C34   H38   S    
C13   C15   A    
C14   C16   A    
C31   H30   S    
C25   H16   S    
C29   H21   S    
C11   C17   A    
C30   H20   S    
H9    N1    S    
C1    C7    S    
C2    C8    S    
C28   H23   S    
C3    C5    A    
Cu1   O4    S    
C36   H34   S    
Cu2   N1    S    
C14   C22   A    
H10   N2    S    
Cu1   Cu2   S    
Cu1   O1    S    
Cu2   O2    S    
C28   C29   S    
C15   C34   S    
C2    O4    A    
C17   C19   A    
C18   C20   A    
C33   H25   S    
C1    O1    A    
C36   H32   S    
C35   H36   S    
C5    C21   A    
C27   H11   S    
C12   C18   A    
C31   H31   S    
Cu1   O8    S    
Cu2   O3    S    
C17   C28   S    
C25   H17   S    
