data_mof_unit_68277.cif
_audit_creation_date              2012-12-10T16:47:17-0500
_audit_creation_method            fapswitch 2.2
_symmetry_space_group_name_H-M    P1
_symmetry_Int_Tables_number       1
_space_group_crystal_system       triclinic
_cell_length_a                    11.873685
_cell_length_b                    12.44243
_cell_length_c                    7.942448
_cell_angle_alpha                 90.278606
_cell_angle_beta                  94.065746
_cell_angle_gamma                 89.846843
_cell_volume                      1170.42730972

loop_
_atom_site_label
_atom_site_type_symbol
_atom_type_description
_atom_site_fract_x
_atom_site_fract_y
_atom_site_fract_z
_atom_type_partial_charge
C1    C     C_R   0.354336 0.852197 0.456452 0.910667
C2    C     C_2   0.738687 0.782385 0.562474 -0.112490
C3    C     C_2   0.740431 0.216266 0.563850 -0.101814
C4    C     C_2   0.261666 0.781795 0.434898 -0.090817
C5    C     C_2   0.757060 0.712434 0.436532 -0.103894
C6    C     C_2   0.238685 0.282383 0.562477 -0.112508
C7    C     C_2   0.240431 0.716267 0.563849 -0.101822
C8    C     C_2   0.761638 0.281819 0.434915 -0.090824
C9    C     C_3   0.652154 0.029384 0.003511 -0.160564
C10   C     C_3   0.748888 0.980535 0.116502 -0.369626
C11   C     C_3   0.863508 0.018068 0.065211 -0.985825
C12   C     C_R   0.646407 0.147173 0.543509 0.919767
C13   C     C_3   0.347937 0.029647 0.997530 -0.146149
C14   C     C_3   0.251038 0.982065 0.883496 -0.373573
C15   C     C_3   0.136853 0.020928 0.936318 -0.961170
C16   C     C_3   0.152153 0.529388 0.003511 -0.160555
C17   C     C_3   0.248891 0.480549 0.116503 -0.369651
C18   C     C_3   0.363503 0.518114 0.065238 -0.985975
C19   C     C_3   0.847934 0.529639 0.997528 -0.146168
C20   C     C_3   0.751042 0.482047 0.883489 -0.373559
C21   C     C_3   0.636849 0.520875 0.936329 -0.961168
C22   C     C_R   0.645274 0.851863 0.542757 0.889990
C23   C     C_R   0.352826 0.146263 0.456646 0.980610
C24   C     C_R   0.854326 0.352205 0.456452 0.910661
C25   C     C_R   0.146401 0.647179 0.543508 0.919734
C26   C     C_R   0.145273 0.351863 0.542757 0.890012
C27   C     C_R   0.852824 0.646261 0.456646 0.980588
C28   C     C_2   0.257065 0.212438 0.436530 -0.103892
H1    H     H_    0.594431 0.675237 0.351145 0.193224
H2    H     H_    0.170234 0.241478 0.208207 0.216376
H3    H     H_    0.781389 0.793214 0.814248 0.198127
H4    H     H_    0.848402 0.881387 0.693928 0.152762
H5    H     H_    0.777110 0.211604 0.817299 0.184432
H6    H     H_    0.848465 0.121428 0.705330 0.162078
H7    H     H_    0.229322 0.782402 0.180241 0.191797
H8    H     H_    0.155117 0.873860 0.286177 0.162625
H9    H     H_    0.875316 0.993961 0.933281 0.260999
H10   H     H_    0.870810 0.106818 0.077581 0.276278
H11   H     H_    0.931102 0.980378 0.149062 0.272230
H12   H     H_    0.670204 0.741459 0.208222 0.216375
H13   H     H_    0.744382 0.004131 0.249242 0.280909
H14   H     H_    0.745640 0.891747 0.106384 0.214405
H15   H     H_    0.665624 0.998811 0.878197 0.225038
H16   H     H_    0.659135 0.118350 0.005469 0.171014
H17   H     H_    0.126454 0.000448 0.069900 0.271861
H18   H     H_    0.129139 0.109397 0.920523 0.279017
H19   H     H_    0.068722 0.981615 0.855416 0.265756
H20   H     H_    0.255554 0.006107 0.751320 0.278002
H21   H     H_    0.254191 0.893114 0.891017 0.222893
H22   H     H_    0.334612 0.997819 0.121647 0.229436
H23   H     H_    0.281363 0.293186 0.814257 0.198118
H24   H     H_    0.340812 0.118741 0.999103 0.180196
H25   H     H_    0.375338 0.494008 0.933327 0.261022
H26   H     H_    0.370779 0.606855 0.077596 0.276299
H27   H     H_    0.431091 0.480447 0.149098 0.272266
H28   H     H_    0.244373 0.504126 0.249246 0.280943
H29   H     H_    0.245667 0.391765 0.106363 0.214401
H30   H     H_    0.165626 0.498814 0.878199 0.225030
H31   H     H_    0.159125 0.618352 0.005465 0.171031
H32   H     H_    0.626454 0.500362 0.069900 0.271853
H33   H     H_    0.629116 0.609345 0.920580 0.279024
H34   H     H_    0.348388 0.381371 0.693981 0.152790
H35   H     H_    0.568724 0.481564 0.855408 0.265755
H36   H     H_    0.755548 0.506110 0.751319 0.277989
H37   H     H_    0.754218 0.393096 0.890980 0.222910
H38   H     H_    0.834610 0.497813 0.121646 0.229441
H39   H     H_    0.840800 0.618732 0.999095 0.180185
H40   H     H_    0.277038 0.711659 0.817321 0.184375
H41   H     H_    0.348355 0.621472 0.705554 0.162081
H42   H     H_    0.729208 0.282506 0.180278 0.191810
H43   H     H_    0.655048 0.373930 0.286350 0.162601
H44   H     H_    0.094440 0.175255 0.351103 0.193232
N1    N     N_2   0.541470 0.000000 0.055820 -0.064227
N2    N     N_3   0.820882 0.801949 0.701570 -0.434631
N3    N     N_3   0.819602 0.200849 0.707741 -0.439975
N4    N     N_3   0.184772 0.794715 0.287645 -0.434328
N5    N     N_2   0.458530 0.000000 0.944180 -0.063602
N6    N     N_2   0.041470 0.500000 0.055820 -0.064223
N7    N     N_2   0.958530 0.500000 0.944180 -0.063604
N8    N     N_3   0.673666 0.683702 0.303010 -0.493931
N9    N     N_3   0.320867 0.301934 0.701594 -0.434624
N10   N     N_3   0.319560 0.700896 0.707815 -0.439925
N11   N     N_3   0.684697 0.294785 0.287729 -0.434353
N12   N     N_3   0.173681 0.183718 0.302989 -0.493935
O1    O     O_R   0.375700 0.885870 0.609240 -0.608143
O2    O     O_R   0.597720 0.114130 0.675960 -0.659872
O3    O     O_R   0.597720 0.885870 0.675960 -0.640851
O4    O     O_R   0.402280 0.114130 0.324040 -0.649259
O5    O     O_R   0.902280 0.385870 0.324040 -0.659043
O6    O     O_R   0.097720 0.614130 0.675960 -0.659883
O7    O     O_R   0.097720 0.385870 0.675960 -0.640849
O8    O     O_R   0.902280 0.614130 0.324040 -0.649262
O9    O     O_R   0.624300 0.114130 0.390760 -0.605064
O10   O     O_R   0.624300 0.885870 0.390760 -0.644664
O11   O     O_R   0.375700 0.114130 0.609240 -0.616916
O12   O     O_R   0.875700 0.385870 0.609240 -0.608155
O13   O     O_R   0.124300 0.614130 0.390760 -0.605045
O14   O     O_R   0.124300 0.385870 0.390760 -0.644661
O15   O     O_R   0.875700 0.614130 0.609240 -0.616920
O16   O     O_R   0.402280 0.885870 0.324040 -0.659055
Zn1   Zn    Zn3+2 0.482250 0.000000 0.690430 0.920083
Zn2   Zn    Zn3+2 0.517750 0.000000 0.309570 0.909934
Zn3   Zn    Zn3+2 0.982250 0.500000 0.690430 0.920072
Zn4   Zn    Zn3+2 0.017750 0.500000 0.309570 0.909942

loop_
_geom_bond_atom_site_label_1
_geom_bond_atom_site_label_2
_ccdc_geom_bond_type
O15   Zn3   S    
C10   H14   S    
C8    N11   S    
N5    Zn1   S    
C19   C20   S    
C15   H19   S    
C24   O5    A    
C27   O15   A    
C25   O6    A    
C24   O12   A    
H4    N2    S    
C14   H21   S    
C28   N12   S    
C19   H38   S    
C11   H9    S    
H41   N10   S    
H8    N4    S    
C18   H25   S    
C5    C27   S    
H5    N3    S    
C6    C28   D    
C16   C17   S    
C2    C22   S    
H12   N8    S    
C19   H39   S    
C3    C12   S    
C3    N3    S    
C9    C10   S    
H23   N9    S    
C21   H33   S    
C2    N2    S    
H6    N3    S    
C6    N9    S    
O3    Zn1   S    
C13   C14   S    
C10   H13   S    
C22   O10   A    
N7    Zn3   S    
C9    N1    S    
C4    C7    D    
C1    O16   A    
H43   N11   S    
C1    O1    A    
C13   N5    S    
H7    N4    S    
C9    H15   S    
C4    N4    S    
N6    Zn4   S    
C20   H37   S    
C21   H32   S    
C3    C8    D    
C18   H26   S    
N6    N7    D    
H3    N2    S    
C14   H20   S    
C26   O7    A    
C22   O3    A    
C16   H31   S    
C20   H36   S    
C11   H10   S    
C19   N7    S    
C13   H24   S    
O16   Zn2   S    
C17   C18   S    
C27   O8    A    
C16   H30   S    
C23   C28   S    
C5    N8    S    
C11   H11   S    
H42   N11   S    
C17   H28   S    
H44   N12   S    
C18   H27   S    
C26   O14   A    
C25   O13   A    
N1    Zn2   S    
H34   N9    S    
C23   O4    A    
O5    Zn4   S    
C12   O9    A    
C2    C5    D    
C15   H17   S    
O1    Zn1   S    
C9    H16   S    
O7    Zn3   S    
O9    Zn2   S    
O4    Zn2   S    
C7    C25   S    
C12   O2    A    
C1    C4    S    
H40   N10   S    
C6    C26   S    
H1    N8    S    
O14   Zn4   S    
C8    C24   S    
C23   O11   A    
C16   N6    S    
H2    N12   S    
O6    Zn3   S    
C21   H35   S    
O13   Zn4   S    
C10   C11   S    
O8    Zn4   S    
C13   H22   S    
C7    N10   S    
C20   C21   S    
O10   Zn2   S    
O12   Zn3   S    
N1    N5    D    
C14   C15   S    
C15   H18   S    
O2    Zn1   S    
O11   Zn1   S    
C17   H29   S    
