data_mof_unit_42738.cif
_audit_creation_date              2012-12-11T17:08:35-0500
_audit_creation_method            fapswitch 2.2
_symmetry_space_group_name_H-M    P1
_symmetry_Int_Tables_number       1
_space_group_crystal_system       triclinic
_cell_length_a                    6.991548
_cell_length_b                    14.524324
_cell_length_c                    16.099982
_cell_angle_alpha                 89.91256
_cell_angle_beta                  89.970605
_cell_angle_gamma                 89.911716
_cell_volume                      1634.90899972

loop_
_atom_site_label
_atom_site_type_symbol
_atom_type_description
_atom_site_fract_x
_atom_site_fract_y
_atom_site_fract_z
_atom_type_partial_charge
O1    O     O_R   0.505700 0.583890 0.413310 -0.536179
O2    O     O_R   0.175960 0.594920 0.586080 -0.543324
O3    O     O_R   0.005660 0.416110 0.586690 -0.534068
C1    C     C_R   0.344654 0.616952 0.614697 0.683325
O4    O     O_R   0.175980 0.594920 0.413930 -0.543191
O5    O     O_R   0.005680 0.416110 0.413310 -0.540535
C2    C     C_R   0.344661 0.616912 0.385266 0.695041
O6    O     O_R   0.505680 0.583890 0.586690 -0.536831
O7    O     O_3   0.339200 0.441330 0.500000 -0.372958
V1    V     V_3+5 0.064350 0.510880 0.500000 1.385681
O8    O     O_R   0.675960 0.405080 0.413920 -0.539236
C3    C     C_R   0.844948 0.383960 0.384922 0.697724
O9    O     O_R   0.675940 0.405080 0.586070 -0.548509
C4    C     C_R   0.844900 0.383743 0.615234 0.700414
V2    V     V_3+5 0.564340 0.489120 0.500000 1.382618
O10   O     O_3   0.839360 0.558670 0.500000 -0.371229
C5    C     C_R   0.019500 0.261368 0.696242 0.097211
C6    C     C_R   0.854922 0.314140 0.682669 -0.069734
C7    C     C_R   0.700433 0.300001 0.736653 -0.189979
H1    H     H_    0.577602 0.343732 0.731259 0.131043
C8    C     C_R   0.710563 0.235530 0.801937 -0.174948
H2    H     H_    0.592364 0.230296 0.844920 0.130756
C9    C     C_R   0.877219 0.183145 0.815334 -0.084268
C10   C     C_R   0.029011 0.195529 0.759732 0.051845
C11   C     C_3   0.229557 0.220022 0.780497 -0.413558
C12   C     C_3   0.216751 0.294670 0.714356 0.030247
H3    H     H_    0.329346 0.163421 0.763606 0.149513
H4    H     H_    0.244457 0.245687 0.845242 0.178337
H5    H     H_    0.316118 0.285582 0.660961 0.115722
C13   C     C_R   0.721956 0.194016 0.234069 0.120402
C14   C     C_R   0.879789 0.186251 0.181511 -0.130953
C15   C     C_R   0.030368 0.249304 0.196477 -0.190334
H6    H     H_    0.156285 0.248979 0.157351 0.127664
C16   C     C_R   0.018987 0.314350 0.262201 -0.186523
H7    H     H_    0.136626 0.361661 0.271174 0.124954
C17   C     C_R   0.856653 0.318475 0.314973 -0.107087
C18   C     C_R   0.710167 0.257174 0.296480 0.073830
C19   C     C_3   0.523954 0.221981 0.328157 -0.416436
C20   C     C_3   0.537235 0.149568 0.258025 -0.051386
H8    H     H_    0.407333 0.272806 0.318948 0.156828
H9    H     H_    0.534291 0.194415 0.392336 0.172675
H10   H     H_    0.425943 0.158908 0.209488 0.116111
C21   C     C_R   0.516050 0.688886 0.735640 0.053784
C22   C     C_R   0.353366 0.682684 0.685195 -0.083844
C23   C     C_R   0.199947 0.742137 0.703283 -0.180101
H11   H     H_    0.075093 0.742282 0.663979 0.133867
C24   C     C_R   0.212256 0.806662 0.768375 -0.182861
H12   H     H_    0.096746 0.854378 0.778402 0.127735
C25   C     C_R   0.378201 0.814711 0.816850 -0.069080
C26   C     C_R   0.529909 0.755270 0.798398 0.092630
C27   C     C_3   0.728069 0.780270 0.772441 0.015575
C28   C     C_3   0.715946 0.704581 0.707650 -0.388909
H13   H     H_    0.835668 0.768214 0.822098 0.116322
H14   H     H_    0.808861 0.644447 0.722025 0.145435
H15   H     H_    0.724259 0.728980 0.642184 0.181472
C29   C     C_R   0.510660 0.745746 0.309092 0.108879
C30   C     C_R   0.352734 0.687437 0.318612 -0.111084
C31   C     C_R   0.199499 0.699321 0.262841 -0.182664
H16   H     H_    0.075465 0.655424 0.267312 0.134082
C32   C     C_R   0.211061 0.763079 0.196889 -0.178069
H17   H     H_    0.094223 0.767436 0.153113 0.132687
C33   C     C_R   0.377139 0.816114 0.184184 -0.111051
C34   C     C_R   0.522865 0.808048 0.243326 0.098843
C35   C     C_3   0.730119 0.788976 0.230846 -0.421247
C36   C     C_3   0.717273 0.721815 0.303029 -0.401381
H18   H     H_    0.820516 0.850007 0.244270 0.179258
H19   H     H_    0.758610 0.754820 0.170336 0.171532
H20   H     H_    0.798869 0.744478 0.358588 0.174012
H21   H     H_    0.740023 0.648881 0.284528 0.167624
O11   O     O_R   0.229000 0.916070 0.913330 -0.542519
O12   O     O_R   0.558770 0.905070 0.086080 -0.540963
O13   O     O_R   0.729000 0.083900 0.086690 -0.539874
C37   C     C_R   0.389743 0.882436 0.114228 0.680810
O14   O     O_R   0.558720 0.905070 0.913930 -0.541331
O15   O     O_R   0.728960 0.083900 0.913310 -0.540507
C38   C     C_R   0.390115 0.883852 0.884618 0.696693
O16   O     O_R   0.229050 0.916070 0.086710 -0.537762
O17   O     O_3   0.395460 0.058650 0.000020 -0.371663
V3    V     V_3+5 0.670340 0.989120 0.000000 1.384186
O18   O     O_R   0.058670 0.094960 0.913900 -0.539070
C39   C     C_R   0.889608 0.116976 0.885357 0.687598
O19   O     O_R   0.058720 0.094960 0.086050 -0.543289
C40   C     C_R   0.889818 0.116799 0.114575 0.702063
V4    V     V_3+5 0.170330 0.010930 0.999970 1.383430
O20   O     O_3   0.895340 0.941350 0.999980 -0.372373
C41   C     C_3   0.554364 0.048664 0.287545 -0.303430
C42   C     C_3   0.728832 0.026649 0.341868 -0.740950
H22   H     H_    0.863249 0.035888 0.306101 0.216342
H23   H     H_    0.732875 0.070496 0.398106 0.223097
H24   H     H_    0.721326 0.953763 0.362445 0.208975
H25   H     H_    0.422239 0.030127 0.322063 0.175790
H26   H     H_    0.561190 0.004277 0.231730 0.175929
N1    N     N_3   0.733423 0.872293 0.734894 -0.646438
H27   H     H_    0.768873 0.919606 0.781210 0.230810
H28   H     H_    0.843177 0.874798 0.690875 0.221955
N2    N     N_3   0.213309 0.387881 0.749539 -0.643353
H29   H     H_    0.314443 0.393263 0.797057 0.219307
H30   H     H_    0.256237 0.433910 0.703230 0.232414

loop_
_geom_bond_atom_site_label_1
_geom_bond_atom_site_label_2
_ccdc_geom_bond_type
C42   H22   S    
N1    H27   S    
C4    C6    S    
C7    H1    S    
C1    O6    A    
O12   V3    S    
C24   C25   A    
C23   H11   S    
C11   H4    S    
C18   C19   S    
O14   C38   A    
C5    C12   S    
C17   C18   A    
C7    C8    A    
C6    C7    A    
O13   V3    S    
C41   H25   S    
O5    C3    A    
C19   C20   S    
C21   C28   S    
C31   C32   A    
V2    O10   S    
C14   C40   S    
C29   C30   A    
C32   C33   A    
C16   H7    S    
O8    V2    S    
C14   C15   A    
N2    H30   S    
C9    C10   A    
C33   C37   S    
O1    V2    S    
C3    C17   S    
O11   V4    S    
O7    V1    S    
C28   H15   S    
O18   V4    S    
N1    H28   S    
O1    C2    A    
O9    C4    A    
C28   H14   S    
C26   C27   S    
C20   H10   S    
C23   C24   A    
C12   N2    S    
C25   C38   S    
C5    C10   A    
C27   C28   S    
C35   H19   S    
C10   C11   S    
C19   H9    S    
O4    C2    A    
O17   V3    S    
O15   C39   A    
C1    C22   S    
O16   V4    S    
C31   H16   S    
C13   C18   A    
C32   H17   S    
C27   H13   S    
C35   H18   S    
O2    C1    A    
C21   C22   A    
C33   C34   A    
C24   H12   S    
C36   H20   S    
N2    H29   S    
C5    C6    A    
C29   C34   A    
V4    O20   S    
O3    C4    A    
C27   N1    S    
O19   C40   A    
O6    V2    S    
O19   V4    S    
O14   V3    S    
O9    V2    S    
O11   C38   A    
O2    V1    S    
V3    O20   S    
C22   C23   A    
O12   C37   A    
C9    C39   S    
C41   C42   S    
O18   C39   A    
O5    V1    S    
O8    C3    A    
C21   C26   A    
C11   H3    S    
C15   H6    S    
C8    C9    A    
C11   C12   S    
O4    V1    S    
O3    V1    S    
V1    O10   S    
C35   C36   S    
C19   H8    S    
C30   C31   A    
C13   C14   A    
C36   H21   S    
C13   C20   S    
C16   C17   A    
O7    V2    S    
O13   C40   A    
C34   C35   S    
O17   V4    S    
C12   H5    S    
C25   C26   A    
C42   H24   S    
C42   H23   S    
C37   O16   A    
C41   H26   S    
C20   C41   S    
C8    H2    S    
O15   V3    S    
C2    C30   S    
C29   C36   S    
C15   C16   A    
