data_mof_unit_10328.cif
_audit_creation_date              2012-12-10T18:02:10-0500
_audit_creation_method            fapswitch 2.2
_symmetry_space_group_name_H-M    P1
_symmetry_Int_Tables_number       1
_space_group_crystal_system       triclinic
_cell_length_a                    10.845757
_cell_length_b                    9.614634
_cell_length_c                    23.504017
_cell_angle_alpha                 90.047305
_cell_angle_beta                  92.749327
_cell_angle_gamma                 90.062359
_cell_volume                      2448.12794565

loop_
_atom_site_label
_atom_site_type_symbol
_atom_type_description
_atom_site_fract_x
_atom_site_fract_y
_atom_site_fract_z
_atom_type_partial_charge
C1    C     C_R   0.262435 0.500388 0.501088 0.767900
C2    C     C_R   0.737590 0.500479 0.499199 0.764174
C3    C     C_R   0.575257 0.593549 0.240870 -0.103898
C4    C     C_R   0.549532 0.387116 0.761179 -0.105762
C5    C     C_R   0.576063 0.594252 0.300218 -0.237946
C6    C     C_R   0.552736 0.390240 0.702021 -0.220235
C7    C     C_R   0.507294 0.495522 0.329029 -0.042933
C8    C     C_R   0.490514 0.495330 0.670841 -0.042327
C9    C     C_R   0.444857 0.390048 0.298015 -0.224521
C10   C     C_R   0.420539 0.593423 0.699368 -0.240318
C11   C     C_R   0.446505 0.387226 0.238792 -0.107530
C12   C     C_R   0.419698 0.592291 0.758696 -0.106357
C13   C     C_R   0.509643 0.490590 0.209693 0.346318
C14   C     C_R   0.485223 0.489858 0.790063 0.345870
C15   C     C_R   0.063187 0.377040 0.499900 -0.187351
C16   C     C_R   0.936367 0.628655 0.503262 -0.169375
C17   C     C_R   0.936105 0.377469 0.494543 -0.208874
C18   C     C_R   0.064421 0.628700 0.504000 -0.171896
C19   C     C_R   0.871562 0.502389 0.498575 -0.015566
C20   C     C_R   0.128472 0.502169 0.502203 -0.019629
C21   C     C_R   0.428869 0.075412 0.460367 0.342101
C22   C     C_R   0.563259 0.926000 0.542297 0.356229
C23   C     C_R   0.570276 0.074961 0.539806 0.352138
C24   C     C_R   0.436876 0.925596 0.457641 0.324356
C25   C     C_R   0.502378 0.499370 0.391250 0.794648
C26   C     C_R   0.497051 0.499396 0.608711 0.788158
C27   C     C_R   0.600235 0.496712 0.881173 0.528396
C28   C     C_R   0.394320 0.495576 0.118607 0.528700
C29   C     C_R   0.379837 0.487080 0.879032 0.531167
C30   C     C_R   0.614762 0.488064 0.120689 0.530714
C31   C     C_R   0.381149 0.490017 0.938764 -0.012516
C32   C     C_R   0.613392 0.491013 0.060972 -0.012334
C33   C     C_R   0.495432 0.492316 0.969816 -0.019069
C34   C     C_R   0.499090 0.492279 0.029934 -0.019074
C35   C     C_R   0.606082 0.494580 0.940909 -0.011177
C36   C     C_R   0.388441 0.493414 0.058855 -0.011254
C37   C     C_R   0.271229 0.490006 0.968065 -0.162666
C38   C     C_R   0.723310 0.492107 0.031678 -0.162772
C39   C     C_R   0.274834 0.492733 0.027475 -0.163093
C40   C     C_R   0.719691 0.494938 0.972282 -0.163091
Cu1   Cu    Cu3+1 0.500000 0.640660 0.500000 1.006976
Cu2   Cu    Cu3+1 0.500000 0.359340 0.500000 1.006188
H1    H     H_    0.182090 0.488608 0.945226 0.189652
H2    H     H_    0.812459 0.491528 0.054513 0.189687
H3    H     H_    0.188351 0.493332 0.048685 0.188652
H4    H     H_    0.806173 0.496401 0.951077 0.188734
H5    H     H_    0.625395 0.673357 0.219121 0.153320
H6    H     H_    0.598616 0.305858 0.784692 0.151551
H7    H     H_    0.630959 0.671166 0.323519 0.138392
H8    H     H_    0.605504 0.311909 0.680706 0.181646
H9    H     H_    0.393518 0.310895 0.319532 0.185285
H10   H     H_    0.366809 0.670835 0.675867 0.139432
H11   H     H_    0.397503 0.305443 0.215433 0.151778
H12   H     H_    0.368942 0.671805 0.780290 0.153877
H13   H     H_    0.109989 0.278674 0.501263 0.152268
H14   H     H_    0.888538 0.727104 0.506045 0.156181
H15   H     H_    0.889002 0.279676 0.487528 0.127922
H16   H     H_    0.112841 0.727284 0.506388 0.150915
N1    N     N_R   0.488343 0.491290 0.851370 -0.467137
N2    N     N_R   0.506274 0.491412 0.148381 -0.467115
N3    N     N_R   0.500000 0.852070 0.500000 -0.261146
N4    N     N_R   0.500000 0.147930 0.500000 -0.258204
O1    O     O_R   0.319640 0.618740 0.500000 -0.560461
O2    O     O_R   0.680360 0.381260 0.500000 -0.588351
O3    O     O_R   0.680360 0.618740 0.500000 -0.557802
O4    O     O_R   0.319640 0.381260 0.500000 -0.560510
O5    O     O_R   0.499960 0.618810 0.417880 -0.543864
O6    O     O_R   0.500040 0.381190 0.582120 -0.538740
O7    O     O_R   0.500040 0.618810 0.582120 -0.550039
O8    O     O_R   0.499960 0.381190 0.417880 -0.531276
O9    O     O_2   0.705636 0.505526 0.853099 -0.540381
O10   O     O_2   0.288908 0.503212 0.146715 -0.540716
O11   O     O_2   0.271029 0.478472 0.848887 -0.538336
O12   O     O_2   0.723650 0.480335 0.150798 -0.538635
O13   O     O_3   0.359909 0.151257 0.419960 -0.554814
C41   C     C_3   0.233736 0.113683 0.418851 0.080100
H17   H     H_    0.199623 0.105555 0.462489 0.116197
H18   H     H_    0.216124 0.013074 0.397195 0.187528
C42   C     C_3   0.159510 0.221210 0.384246 -0.797319
H19   H     H_    0.059239 0.203145 0.388540 0.207159
H20   H     H_    0.183494 0.327925 0.398922 0.261973
H21   H     H_    0.180312 0.212507 0.338570 0.235738
O14   O     O_3   0.629050 0.854550 0.584879 -0.539597
C43   C     C_3   0.577391 0.879641 0.638243 0.100976
H22   H     H_    0.480614 0.842184 0.637701 0.132623
H23   H     H_    0.576179 0.991153 0.650070 0.172022
C44   C     C_3   0.653747 0.804872 0.684997 -0.753845
H24   H     H_    0.744459 0.856448 0.692578 0.233154
H25   H     H_    0.604750 0.807551 0.725375 0.210393
H26   H     H_    0.670410 0.695352 0.672816 0.263254
O15   O     O_3   0.639261 0.147431 0.581172 -0.573853
C45   C     C_3   0.766826 0.141828 0.571030 0.138433
H27   H     H_    0.801214 0.250082 0.573145 0.177690
H28   H     H_    0.788791 0.096688 0.528916 0.100564
C46   C     C_3   0.839575 0.065259 0.618341 -0.840661
H29   H     H_    0.835354 0.951505 0.611214 0.273553
H30   H     H_    0.938292 0.096133 0.618145 0.204128
H31   H     H_    0.804081 0.092139 0.660501 0.255254
O16   O     O_3   0.374387 0.852446 0.414509 -0.551653
C47   C     C_3   0.424947 0.882414 0.361366 0.064319
H32   H     H_    0.520159 0.841420 0.360467 0.146877
H33   H     H_    0.429948 0.995044 0.351765 0.164260
C48   C     C_3   0.344067 0.816412 0.313939 -0.749335
H34   H     H_    0.253026 0.869226 0.310578 0.230772
H35   H     H_    0.388913 0.826962 0.272672 0.209911
H36   H     H_    0.328776 0.704630 0.322861 0.265150

loop_
_geom_bond_atom_site_label_1
_geom_bond_atom_site_label_2
_ccdc_geom_bond_type
C38   C40   A    
C44   H24   S    
C24   N3    A    
C24   O16   S    
C8    C26   S    
Cu1   Cu2   S    
C46   H29   S    
C9    H9    S    
C41   C42   S    
Cu1   N3    S    
C2    O3    A    
C10   H10   S    
C46   H31   S    
Cu1   O5    S    
C13   N2    S    
C40   H4    S    
C14   N1    S    
O14   C43   S    
Cu1   O7    S    
C43   H23   S    
C30   O12   S    
C29   O11   S    
Cu2   O8    S    
C15   C17   A    
C45   H27   S    
C33   C35   A    
C18   H16   S    
C23   N4    A    
C29   N1    A    
C25   O5    A    
C43   C44   S    
C32   C38   A    
Cu2   N4    S    
C18   C20   A    
C3    C13   A    
C39   H3    S    
Cu2   O6    S    
C5    H7    S    
C28   O10   S    
C1    O1    A    
C45   H28   S    
C2    O2    A    
C1    O4    A    
C28   N2    A    
C15   C20   A    
C31   C33   A    
C41   H17   S    
C4    C6    A    
O15   C45   S    
C42   H20   S    
Cu1   O3    S    
C27   C35   A    
C45   C46   S    
C6    H8    S    
C31   C37   A    
C30   N2    A    
C15   H13   S    
C37   H1    S    
O13   C41   S    
C16   H14   S    
C38   H2    S    
O16   C47   S    
C29   C31   A    
C47   H33   S    
C33   C34   A    
C48   H35   S    
C43   H22   S    
C9    C11   A    
C21   N4    A    
C10   C12   A    
C8    C10   A    
C12   C14   A    
C44   H25   S    
C23   O15   S    
C44   H26   S    
Cu1   O1    S    
Cu2   O2    S    
C27   O9    S    
C5    C7    A    
C4    H6    S    
C7    C9    A    
C1    C20   S    
C2    C19   S    
C36   C39   A    
C41   H18   S    
C3    C5    A    
C11   H11   S    
C42   H21   S    
C6    C8    A    
C46   H30   S    
C21   O13   S    
C7    C25   S    
C26   O6    A    
C22   O14   S    
C35   C40   A    
C37   C39   A    
C27   N1    A    
C22   N3    A    
C30   C32   A    
C11   C13   A    
C16   C19   A    
C3    H5    S    
C47   H32   S    
C17   C19   A    
C48   H36   S    
C34   C36   A    
C47   C48   S    
C4    C14   A    
C42   H19   S    
C28   C36   A    
C16   C18   A    
C21   C24   A    
C17   H15   S    
C48   H34   S    
Cu2   O4    S    
C26   O7    A    
C22   C23   A    
C25   O8    A    
C12   H12   S    
C32   C34   A    
