data_mof_unit_52452.cif
_audit_creation_date              2012-12-11T14:33:45-0500
_audit_creation_method            fapswitch 2.2
_symmetry_space_group_name_H-M    P1
_symmetry_Int_Tables_number       1
_space_group_crystal_system       triclinic
_cell_length_a                    13.84925
_cell_length_b                    13.97701
_cell_length_c                    27.292483
_cell_angle_alpha                 89.790742
_cell_angle_beta                  89.772114
_cell_angle_gamma                 119.517188
_cell_volume                      4597.20799095

loop_
_atom_site_label
_atom_site_type_symbol
_atom_type_description
_atom_site_fract_x
_atom_site_fract_y
_atom_site_fract_z
_atom_type_partial_charge
C1    C     C_R   0.233588 0.787028 0.568696 0.539279
C2    C     C_1   0.707265 0.863145 0.860195 -0.075906
C3    C     C_1   0.114356 0.881949 0.852587 -0.075741
C4    C     C_1   0.114576 0.230223 0.852167 -0.076026
C5    C     C_1   0.627826 0.813617 0.659076 -0.074766
C6    C     C_1   0.175895 0.818582 0.656250 -0.074860
C7    C     C_1   0.177545 0.356856 0.656098 -0.075099
C8    C     C_1   0.600330 0.795376 0.616799 -0.015752
C9    C     C_1   0.198094 0.805649 0.615076 -0.015412
C10   C     C_1   0.192064 0.392062 0.614960 -0.015476
C11   C     C_R   0.065399 0.152023 0.096434 0.601968
C12   C     C_R   0.212271 0.446111 0.568663 0.541887
C13   C     C_R   0.770398 0.880274 0.085139 0.581890
C14   C     C_R   0.116959 0.892628 0.087454 0.548217
C15   C     C_R   0.069426 0.160152 0.943351 0.533866
C16   C     C_R   0.779952 0.887424 0.950745 0.536928
C17   C     C_R   0.091042 0.930137 0.943426 0.530032
C18   C     C_R   0.611117 0.889423 0.357368 -0.101161
C19   C     C_R   0.097632 0.736645 0.362949 -0.099711
C20   C     C_R   0.261472 0.351838 0.365494 -0.101788
C21   C     C_R   0.628945 0.900775 0.306460 0.066057
C22   C     C_R   0.080603 0.747545 0.313007 0.069840
C23   C     C_R   0.552438 0.764966 0.569071 0.540608
C24   C     C_R   0.238655 0.303252 0.318824 0.069745
C25   C     C_R   0.654509 0.913550 0.203811 -0.041918
C26   C     C_R   0.060780 0.762584 0.211171 -0.029900
C27   C     C_R   0.197234 0.226854 0.221591 -0.031489
C28   C     C_R   0.233146 0.788474 0.431553 0.543897
C29   C     C_R   0.211676 0.443905 0.431928 0.548127
C30   C     C_R   0.553505 0.765858 0.430724 0.544506
C31   C     C_R   0.641944 0.993791 0.229181 -0.092337
C32   C     C_R   0.973463 0.679533 0.238363 -0.097135
C33   C     C_R   0.295272 0.246556 0.244965 -0.107031
C34   C     C_3   0.658815 0.734404 0.790732 -0.212049
C35   C     C_R   0.629449 0.988416 0.280511 0.245378
C36   C     C_R   0.983293 0.669902 0.289211 0.242649
C37   C     C_R   0.317208 0.285383 0.293458 0.240230
C38   C     C_R   0.679842 0.926133 0.153638 -0.184271
C39   C     C_R   0.049652 0.773154 0.160990 -0.157426
C40   C     C_R   0.180245 0.196449 0.172266 -0.173599
C41   C     C_R   0.702067 0.850825 0.129991 0.014844
C42   C     C_R   0.138301 0.854829 0.134028 -0.043306
C43   C     C_R   0.083792 0.180161 0.148644 0.006956
C44   C     C_R   0.631658 0.726849 0.357306 -0.116475
C45   C     C_3   0.243974 0.953986 0.782492 -0.212258
C46   C     C_R   0.272423 0.907972 0.359554 -0.111366
C47   C     C_R   0.078861 0.335346 0.368381 -0.120108
C48   C     C_R   0.644789 0.733952 0.306754 -0.017915
C49   C     C_R   0.260945 0.916104 0.309629 -0.019216
C50   C     C_R   0.057419 0.293583 0.321452 -0.022535
C51   C     C_R   0.641830 0.819819 0.280910 0.004775
C52   C     C_R   0.166155 0.834957 0.285831 0.001735
C53   C     C_R   0.137164 0.278014 0.296050 0.006371
C54   C     C_R   0.656317 0.653166 0.281846 -0.111822
C55   C     C_R   0.347142 0.000728 0.283043 -0.130728
C56   C     C_3   0.054951 0.310718 0.785922 -0.211897
C57   C     C_R   0.961167 0.277536 0.298426 -0.110208
C58   C     C_R   0.663391 0.654737 0.230648 0.240355
C59   C     C_R   0.344348 0.002550 0.231852 0.263386
C60   C     C_R   0.943408 0.249081 0.249075 0.248926
C61   C     C_R   0.659219 0.740057 0.204099 0.054481
C62   C     C_R   0.249922 0.920673 0.207361 0.098213
C63   C     C_R   0.018610 0.224742 0.223871 0.057877
C64   C     C_3   0.564515 0.853487 0.737706 -0.213572
C65   C     C_3   0.141875 0.733676 0.739053 -0.215318
C66   C     C_3   0.271313 0.389429 0.736272 -0.215678
C67   C     C_3   0.638317 0.721234 0.734760 -0.213308
C68   C     C_R   0.651490 0.824260 0.229626 -0.032481
C69   C     C_R   0.158720 0.839765 0.234799 -0.043529
C70   C     C_R   0.116970 0.241707 0.247342 -0.030238
C71   C     C_R   0.671483 0.749048 0.152764 0.258116
C72   C     C_R   0.242946 0.918719 0.156120 0.259103
C73   C     C_R   0.000508 0.187953 0.175056 0.251187
C74   C     C_R   0.607213 0.799547 0.382419 -0.026421
C75   C     C_R   0.196387 0.813781 0.385453 -0.026683
C76   C     C_R   0.183149 0.372101 0.389196 -0.024634
C77   C     C_3   0.767952 0.923610 0.722472 -0.215613
C78   C     C_3   0.259651 0.938461 0.727522 -0.212836
C79   C     C_3   0.053645 0.846778 0.714481 -0.213794
C80   C     C_3   0.123220 0.199233 0.712772 -0.213630
C81   C     C_3   0.788055 0.936819 0.778534 -0.215138
C82   C     C_3   0.036716 0.862898 0.769370 -0.216680
C83   C     C_3   0.106203 0.165460 0.767534 -0.219124
C84   C     C_1   0.734763 0.873794 0.902529 -0.022588
C85   C     C_1   0.103579 0.902570 0.894324 -0.020998
C86   C     C_1   0.096170 0.199216 0.894042 -0.024644
C87   C     C_3   0.649752 0.828168 0.712017 0.071649
C88   C     C_3   0.157581 0.833774 0.707904 0.071431
C89   C     C_3   0.071991 0.344905 0.731133 -0.213207
C90   C     C_3   0.161432 0.323027 0.707649 0.071810
C91   C     C_3   0.584945 0.866523 0.793824 -0.215142
C92   C     C_3   0.124477 0.750295 0.793994 -0.212322
C93   C     C_3   0.254135 0.355137 0.791128 -0.212355
C94   C     C_3   0.684557 0.850554 0.807294 0.072028
C95   C     C_3   0.129271 0.862430 0.801019 0.071436
C96   C     C_3   0.132392 0.264899 0.800606 0.071034
Cr1   Cr    Cr6+3 0.164410 0.584450 0.499910 1.030917
Cr2   Cr    Cr6+3 0.415550 0.579960 0.499910 1.031895
Cr3   Cr    Cr6+3 0.420040 0.835590 0.499910 1.029871
Cr4   Cr    Cr6+3 0.155170 0.075460 0.019960 1.045085
Cr5   Cr    Cr6+3 0.924540 0.079710 0.019960 1.055856
Cr6   Cr    Cr6+3 0.920290 0.844830 0.019960 1.054276
H1    H     H_    0.601495 0.949584 0.805245 0.113986
H2    H     H_    0.729359 0.720798 0.800018 0.112129
H3    H     H_    0.252514 0.036351 0.788240 0.105160
H4    H     H_    0.966752 0.247303 0.792450 0.109944
H5    H     H_    0.690247 0.998028 0.133870 0.161144
H6    H     H_    0.970454 0.721985 0.143481 0.167395
H7    H     H_    0.242522 0.186823 0.152095 0.165222
H8    H     H_    0.593086 0.946109 0.376985 0.183970
H9    H     H_    0.037852 0.665274 0.383512 0.182163
H10   H     H_    0.341578 0.378983 0.382222 0.182016
H11   H     H_    0.644335 0.062018 0.209130 0.156316
H12   H     H_    0.042820 0.682407 0.806807 0.116653
H13   H     H_    0.898450 0.620994 0.219850 0.143609
H14   H     H_    0.356277 0.234695 0.224978 0.139715
H15   H     H_    0.659575 0.588225 0.302365 0.122118
H16   H     H_    0.418729 0.063532 0.302125 0.134216
H17   H     H_    0.903013 0.294486 0.318046 0.121039
H18   H     H_    0.571117 0.930322 0.722268 0.113544
H19   H     H_    0.069001 0.657123 0.725658 0.113009
H20   H     H_    0.337082 0.375012 0.720283 0.113982
H21   H     H_    0.630795 0.658287 0.376456 0.150846
H22   H     H_    0.347601 0.969862 0.376922 0.157792
H23   H     H_    0.311550 0.324149 0.801420 0.114577
H24   H     H_    0.016823 0.348296 0.386902 0.148937
H25   H     H_    0.830958 0.907164 0.704899 0.109115
H26   H     H_    0.063184 0.918757 0.692932 0.110386
H27   H     H_    0.044129 0.149577 0.692711 0.110854
H28   H     H_    0.778486 0.001659 0.706583 0.112347
H29   H     H_    0.978939 0.772643 0.700531 0.113439
H30   H     H_    0.186248 0.181258 0.696362 0.112094
H31   H     H_    0.808620 0.021359 0.789540 0.109528
H32   H     H_    0.953913 0.796347 0.781818 0.109623
H33   H     H_    0.161248 0.131836 0.777383 0.108050
H34   H     H_    0.478565 0.785973 0.730760 0.107930
H35   H     H_    0.860305 0.926330 0.787782 0.100905
H36   H     H_    0.037130 0.941629 0.774002 0.099305
H37   H     H_    0.019086 0.100071 0.773650 0.101368
H38   H     H_    0.553825 0.651057 0.727777 0.111117
H39   H     H_    0.336133 0.932113 0.722496 0.111591
H40   H     H_    0.097548 0.433712 0.727852 0.110697
H41   H     H_    0.698983 0.701287 0.717298 0.113181
H42   H     H_    0.271457 0.011943 0.706516 0.113537
H43   H     H_    0.991950 0.297863 0.711428 0.114734
H44   H     H_    0.584237 0.670550 0.810534 0.115642
H45   H     H_    0.215972 0.722867 0.735088 0.107331
H46   H     H_    0.311104 0.951712 0.803889 0.116873
H47   H     H_    0.072502 0.383076 0.808908 0.118873
H48   H     H_    0.625448 0.125600 0.282562 0.311357
H49   H     H_    0.837540 0.539179 0.293847 0.317020
H50   H     H_    0.460418 0.290790 0.293458 0.316873
H51   H     H_    0.592602 0.595720 0.136118 0.359518
H52   H     H_    0.327652 0.949428 0.095649 0.326225
H53   H     H_    0.842934 0.112123 0.176493 0.344859
H54   H     H_    0.680982 0.524344 0.230688 0.313019
H55   H     H_    0.488146 0.136996 0.228556 0.297843
H56   H     H_    0.300675 0.479080 0.733093 0.107815
H57   H     H_    0.815856 0.273481 0.247426 0.319195
H58   H     H_    0.509109 0.805005 0.813691 0.112897
H59   H     H_    0.189731 0.746762 0.816329 0.115886
H60   H     H_    0.275011 0.428200 0.814221 0.117282
O1    O     O_R   0.137150 0.468200 0.553200 -0.510235
O2    O     O_R   0.140110 0.470540 0.446010 -0.516097
O3    O     O_R   0.529460 0.669570 0.446010 -0.514134
O4    O     O_R   0.330430 0.859890 0.446010 -0.516367
O5    O     O_R   0.176710 0.690910 0.450560 -0.500513
O6    O     O_R   0.309090 0.485800 0.450560 -0.502229
O7    O     O_R   0.514200 0.823290 0.450560 -0.501740
O8    O     O_3   0.333333 0.666667 0.499990 -0.268704
O9    O     O_R   0.176750 0.985260 0.074180 -0.497768
O10   O     O_R   0.014740 0.191490 0.074180 -0.416960
O11   O     O_R   0.808510 0.823250 0.074180 -0.443146
O12   O     O_R   0.531800 0.668950 0.553200 -0.508857
O13   O     O_R   0.146100 0.172630 0.068980 -0.489378
O14   O     O_R   0.827370 0.973470 0.068980 -0.508801
O15   O     O_R   0.026530 0.853900 0.068980 -0.487488
O16   O     O_3   1.000000 1.000000 0.020040 -0.307142
O17   O     O_R   0.148270 0.170520 0.969620 -0.489258
O18   O     O_R   0.829480 0.977750 0.969620 -0.526915
O19   O     O_R   0.022250 0.851730 0.969620 -0.482889
O20   O     O_3   0.619807 0.068621 0.305949 -0.734717
O21   O     O_3   0.899274 0.585982 0.316094 -0.720754
O22   O     O_3   0.415138 0.308035 0.316207 -0.721954
O23   O     O_R   0.331050 0.862850 0.553200 -0.507846
O24   O     O_3   0.659681 0.662685 0.124229 -0.631960
O25   O     O_3   0.336976 0.983286 0.128398 -0.610980
O26   O     O_3   0.901035 0.156667 0.152331 -0.641210
O27   O     O_3   0.681256 0.577839 0.206633 -0.691863
O28   O     O_3   0.431129 0.085295 0.205611 -0.640080
O29   O     O_3   0.858301 0.253076 0.224454 -0.687163
O30   O     O_R   0.179100 0.982980 0.967000 -0.503870
O31   O     O_R   0.017020 0.196120 0.967000 -0.481822
O32   O     O_R   0.803880 0.820900 0.967000 -0.509315
O33   O     O_R   0.173970 0.688730 0.549930 -0.499990
O34   O     O_R   0.311270 0.485240 0.549930 -0.500019
O35   O     O_R   0.514760 0.826030 0.549930 -0.497727

loop_
_geom_bond_atom_site_label_1
_geom_bond_atom_site_label_2
_ccdc_geom_bond_type
C92   H59   S    
C25   C31   A    
C13   O14   A    
C79   H26   S    
C64   H34   S    
C26   C32   A    
C80   H30   S    
C55   C59   A    
C65   C92   S    
C45   H46   S    
C34   H44   S    
C2    C84   T    
C21   C51   A    
C47   C50   A    
Cr4   O16   S    
C6    C9    T    
C13   C41   S    
C79   C82   S    
H48   O20   S    
C23   O12   A    
C27   C33   A    
Cr6   O11   S    
C13   O11   A    
C82   H32   S    
C46   C49   A    
C47   H24   S    
C60   C63   A    
C17   C85   S    
C32   C36   A    
C29   O6    A    
C1    O33   A    
C47   C76   A    
C15   O17   A    
H53   O26   S    
C30   C74   S    
C26   C39   A    
C4    C86   T    
H51   O24   S    
C16   O18   A    
C89   H40   S    
C18   C21   A    
C16   C84   S    
C8    C23   S    
C6    C88   S    
C20   C76   A    
Cr5   O10   S    
C7    C10   T    
C38   H5    S    
H55   O28   S    
C79   C88   S    
Cr5   O16   S    
C28   O5    A    
C4    C96   S    
C43   C73   A    
C40   C43   A    
C20   C24   A    
Cr5   O31   S    
Cr1   O1    S    
C66   H20   S    
C11   C43   S    
C45   C78   S    
C52   C69   A    
C65   H19   S    
H50   O22   S    
C64   C87   S    
C83   H33   S    
C77   H25   S    
C28   O4    A    
C41   C71   A    
Cr3   O4    S    
H54   O27   S    
C61   C71   A    
C58   C61   A    
C67   H41   S    
C11   O10   A    
C18   C74   A    
C20   H10   S    
Cr4   O9    S    
C12   O34   A    
C29   O2    A    
C46   H22   S    
C15   O31   A    
Cr4   O30   S    
C25   C68   A    
C58   O27   S    
C80   C83   S    
C53   C70   A    
Cr6   O32   S    
C83   H37   S    
C46   C75   A    
C45   H3    S    
C39   C42   A    
C48   C51   A    
C17   O30   A    
C39   H6    S    
C26   C69   A    
C50   C53   A    
Cr2   O34   S    
Cr2   O3    S    
H57   O29   S    
C2    C94   S    
C19   C22   A    
C1    C9    S    
C38   C41   A    
C66   C90   S    
Cr4   O17   S    
C78   H39   S    
C89   C90   S    
C29   C76   S    
C57   C60   A    
C77   H28   S    
C63   C73   A    
C24   C53   A    
C49   C55   A    
C37   O22   S    
C92   C95   S    
C33   C37   A    
Cr1   O8    S    
C62   C69   A    
C35   O20   S    
C5    C87   S    
C48   C54   A    
C89   H43   S    
C30   O7    A    
C78   H42   S    
C25   C38   A    
Cr6   O19   S    
C63   C70   A    
C77   C81   S    
C27   C40   A    
C49   C52   A    
C79   H29   S    
Cr3   O35   S    
Cr4   O13   S    
C42   C72   A    
C24   C37   A    
C62   C72   A    
C36   O21   S    
C14   C42   S    
C44   C74   A    
C67   H38   S    
C56   H4    S    
C91   H58   S    
C27   C70   A    
C10   C12   S    
C15   C86   S    
C21   C35   A    
C56   C89   S    
C93   C96   S    
C1    O23   A    
C66   C93   S    
Cr6   O16   S    
C31   C35   A    
C3    C85   T    
C34   H2    S    
C65   H45   S    
C71   O24   S    
C45   C95   S    
C66   H56   S    
C73   O26   S    
C65   C88   S    
C22   C52   A    
C54   C58   A    
C78   C88   S    
C56   C96   S    
C59   C62   A    
C82   C95   S    
C50   C57   A    
C67   C87   S    
H49   O21   S    
C34   C94   S    
C30   O3    A    
C91   H1    S    
C14   O9    A    
Cr5   O14   S    
C34   C67   S    
C5    C8    T    
C81   H31   S    
C40   H7    S    
Cr3   O7    S    
C19   H9    S    
C22   C36   A    
H52   O25   S    
C23   O35   A    
C44   H21   S    
C11   O13   A    
C64   H18   S    
C57   H17   S    
Cr1   O2    S    
Cr3   O8    S    
Cr1   O33   S    
C19   C75   A    
C56   H47   S    
C82   H36   S    
Cr5   O18   S    
Cr1   O5    S    
C12   O1    A    
C81   C94   S    
C7    C90   S    
C61   C68   A    
C93   H60   S    
C60   O29   S    
Cr2   O12   S    
C83   C96   S    
Cr3   O23   S    
C51   C68   A    
C32   H13   S    
C80   C90   S    
C80   H27   S    
C93   H23   S    
C14   O15   A    
C16   O32   A    
C72   O25   S    
Cr2   O8    S    
C17   O19   A    
C77   C87   S    
C18   H8    S    
C54   H15   S    
C81   H35   S    
Cr6   O15   S    
C59   O28   S    
C3    C95   S    
C64   C91   S    
C33   H14   S    
C28   C75   S    
C92   H12   S    
C31   H11   S    
Cr2   O6    S    
C44   C48   A    
C91   C94   S    
C55   H16   S    
