data_mof_unit_22081.cif
_audit_creation_date              2012-12-10T16:34:44-0500
_audit_creation_method            fapswitch 2.2
_symmetry_space_group_name_H-M    P1
_symmetry_Int_Tables_number       1
_space_group_crystal_system       triclinic
_cell_length_a                    28.191065
_cell_length_b                    18.371423
_cell_length_c                    17.05192
_cell_angle_alpha                 89.777241
_cell_angle_beta                  60.948673
_cell_angle_gamma                 89.538591
_cell_volume                      7719.99215983

loop_
_atom_site_label
_atom_site_type_symbol
_atom_type_description
_atom_site_fract_x
_atom_site_fract_y
_atom_site_fract_z
_atom_type_partial_charge
C1    C     C_R   0.701577 0.267987 0.676015 0.891773
C2    C     C_R   0.298421 0.731962 0.323996 0.891200
C3    C     C_R   0.298160 0.268615 0.324235 0.885173
C4    C     C_R   0.701893 0.731271 0.675753 0.885198
C5    C     C_R   0.201579 0.768037 0.676004 0.891201
C6    C     C_R   0.798421 0.232011 0.323985 0.891775
C7    C     C_R   0.798107 0.768729 0.324247 0.885200
C8    C     C_R   0.201840 0.231385 0.675765 0.885173
C9    C     C_R   0.905566 0.502672 0.481517 -0.023391
C10   C     C_R   0.094344 0.497361 0.518738 -0.023377
C11   C     C_R   0.405656 0.002639 0.481261 -0.023377
C12   C     C_R   0.594434 0.997328 0.518483 -0.023391
C13   C     C_R   0.065194 0.383693 0.604109 0.145031
C14   C     C_R   0.934735 0.616324 0.396115 0.145170
C15   C     C_R   0.872778 0.394045 0.574735 0.133608
C16   C     C_R   0.127091 0.606039 0.425597 0.133956
C17   C     C_R   0.565265 0.883676 0.603885 0.145171
C18   C     C_R   0.434807 0.116307 0.395890 0.145030
C19   C     C_R   0.372909 0.893961 0.574403 0.133956
C20   C     C_R   0.627223 0.105955 0.425265 0.133607
C21   C     C_R   0.722714 0.266616 0.950760 0.045335
C22   C     C_R   0.279015 0.736683 0.047229 0.038215
C23   C     C_R   0.278077 0.266314 0.048056 0.039716
C24   C     C_R   0.721860 0.733560 0.952104 0.038914
C25   C     C_R   0.220987 0.763321 0.952770 0.038225
C26   C     C_R   0.777283 0.233370 0.049239 0.045353
C27   C     C_R   0.778141 0.766439 0.047895 0.038925
C28   C     C_R   0.221923 0.233686 0.951944 0.039714
C29   C     C_R   0.753131 0.320777 0.965300 0.220477
C30   C     C_R   0.272877 0.808561 0.023447 0.216366
C31   C     C_R   0.225156 0.294359 0.077278 0.212701
C32   C     C_R   0.773956 0.703347 0.924774 0.212576
C33   C     C_R   0.227124 0.691444 0.976553 0.216380
C34   C     C_R   0.746868 0.179208 0.034696 0.220517
C35   C     C_R   0.726047 0.796654 0.075222 0.212574
C36   C     C_R   0.274845 0.205641 0.922722 0.212701
C37   C     C_R   0.779669 0.303520 0.014786 -0.250039
C38   C     C_R   0.243803 0.820981 0.976891 -0.242638
C39   C     C_R   0.197691 0.277301 0.029293 -0.237081
C40   C     C_R   0.801524 0.720535 0.972561 -0.236991
C41   C     C_R   0.256196 0.679023 0.023111 -0.242636
C42   C     C_R   0.720328 0.196465 0.985212 -0.250035
C43   C     C_R   0.698477 0.779464 0.027438 -0.236988
C44   C     C_R   0.302309 0.222699 0.970707 -0.237083
C45   C     C_R   0.644731 0.327014 0.945131 -0.201025
C46   C     C_R   0.356144 0.674533 0.054132 -0.214906
C47   C     C_R   0.355643 0.327237 0.054416 -0.210249
C48   C     C_R   0.644254 0.672847 0.945744 -0.208235
C49   C     C_R   0.143859 0.825471 0.945865 -0.214915
C50   C     C_R   0.855269 0.172984 0.054869 -0.201062
C51   C     C_R   0.855746 0.827152 0.054255 -0.208239
C52   C     C_R   0.144357 0.172763 0.945584 -0.210251
C53   C     C_R   0.616833 0.346890 0.898346 -0.075830
C54   C     C_R   0.383539 0.653679 0.101411 -0.070382
C55   C     C_R   0.383108 0.347396 0.101789 -0.069564
C56   C     C_R   0.616842 0.652659 0.898293 -0.069737
C57   C     C_R   0.116462 0.846323 0.898587 -0.070379
C58   C     C_R   0.883167 0.153110 0.101653 -0.075824
C59   C     C_R   0.883158 0.847341 0.101707 -0.069738
C60   C     C_R   0.116892 0.152604 0.898211 -0.069562
C61   C     C_R   0.632909 0.321079 0.813634 -0.264302
C62   C     C_R   0.367288 0.679112 0.186339 -0.263408
C63   C     C_R   0.366643 0.322060 0.186910 -0.263738
C64   C     C_R   0.633366 0.677945 0.813132 -0.263928
C65   C     C_R   0.132713 0.820888 0.813661 -0.263412
C66   C     C_R   0.867089 0.178919 0.186366 -0.264301
C67   C     C_R   0.866633 0.822055 0.186868 -0.263927
C68   C     C_R   0.133357 0.177940 0.813090 -0.263738
C69   C     C_R   0.679448 0.280235 0.771008 -0.053589
C70   C     C_R   0.320784 0.720021 0.228901 -0.055787
C71   C     C_R   0.320384 0.281339 0.229240 -0.057219
C72   C     C_R   0.679721 0.718475 0.770739 -0.056859
C73   C     C_R   0.179216 0.779978 0.771099 -0.055794
C74   C     C_R   0.820548 0.219758 0.228994 -0.053593
C75   C     C_R   0.820279 0.781525 0.229261 -0.056862
C76   C     C_R   0.179616 0.218661 0.770760 -0.057219
C77   C     C_R   0.708164 0.258825 0.816542 -0.206229
C78   C     C_R   0.292402 0.742016 0.183074 -0.195296
C79   C     C_R   0.292141 0.260055 0.183345 -0.188045
C80   C     C_R   0.708041 0.739564 0.816601 -0.189753
C81   C     C_R   0.207598 0.757983 0.816927 -0.195266
C82   C     C_R   0.791829 0.241163 0.183462 -0.206197
C83   C     C_R   0.791958 0.760436 0.183399 -0.189743
C84   C     C_R   0.207859 0.239945 0.816655 -0.188045
C85   C     C_R   0.696966 0.127368 0.516871 0.918261
C86   C     C_R   0.303069 0.872633 0.483021 0.918440
C87   C     C_R   0.309120 0.129625 0.463139 0.904046
C88   C     C_R   0.690888 0.870380 0.536837 0.904162
C89   C     C_R   0.196931 0.627367 0.516979 0.918438
C90   C     C_R   0.803033 0.372632 0.483131 0.918271
C91   C     C_R   0.809112 0.629620 0.463163 0.904161
C92   C     C_R   0.190880 0.370375 0.536860 0.904047
C93   C     C_R   0.690865 0.282760 0.904169 0.086909
C94   C     C_R   0.310413 0.719642 0.094577 0.101475
C95   C     C_R   0.309465 0.283552 0.095389 0.094910
C96   C     C_R   0.690502 0.716371 0.904737 0.094686
C97   C     C_R   0.189588 0.780361 0.905421 0.101451
C98   C     C_R   0.809130 0.217229 0.095834 0.086934
C99   C     C_R   0.809498 0.783628 0.095262 0.094679
C100  C     C_R   0.190535 0.216448 0.904611 0.094910
C101  C     C_R   0.074221 0.099541 0.933801 0.909988
C102  C     C_R   0.925817 0.900414 0.066158 0.909912
C103  C     C_R   0.925825 0.099701 0.066027 0.912948
C104  C     C_R   0.074074 0.900162 0.934053 0.911999
C105  C     C_R   0.574183 0.599585 0.933842 0.909908
C106  C     C_R   0.425779 0.400459 0.066199 0.909993
C107  C     C_R   0.425926 0.599839 0.065946 0.911997
C108  C     C_R   0.574175 0.400300 0.933972 0.912950
C109  C     C_R   0.578658 0.109747 0.419968 0.099693
C110  C     C_R   0.421502 0.890128 0.579594 0.099558
C111  C     C_R   0.482299 0.114985 0.405372 0.096171
C112  C     C_R   0.517827 0.884933 0.594263 0.095995
C113  C     C_R   0.078498 0.609872 0.420406 0.099556
C114  C     C_R   0.921342 0.390252 0.580030 0.099696
C115  C     C_R   0.982173 0.615067 0.405737 0.095995
C116  C     C_R   0.017702 0.385014 0.594626 0.096171
C117  C     C_R   0.569631 0.165879 0.372300 -0.215298
C118  C     C_R   0.430572 0.833928 0.627131 -0.213132
C119  C     C_R   0.522308 0.168896 0.366014 -0.214258
C120  C     C_R   0.477871 0.830945 0.633476 -0.212831
C121  C     C_R   0.069428 0.666072 0.372868 -0.213131
C122  C     C_R   0.930371 0.334119 0.627697 -0.215297
C123  C     C_R   0.022128 0.669055 0.366524 -0.212829
C124  C     C_R   0.977693 0.331103 0.633984 -0.214260
C125  C     C_R   0.490781 0.058008 0.453765 0.009234
C126  C     C_R   0.509348 0.941912 0.545871 0.009291
C127  C     C_R   0.538554 0.055954 0.462077 0.013675
C128  C     C_R   0.461583 0.943956 0.537537 0.013590
C129  C     C_R   0.990652 0.558087 0.454129 0.009291
C130  C     C_R   0.009220 0.441991 0.546234 0.009233
C131  C     C_R   0.038417 0.556044 0.462462 0.013590
C132  C     C_R   0.961446 0.444045 0.537921 0.013674
C133  C     C_R   0.952480 0.501803 0.491466 -0.058193
C134  C     C_R   0.047404 0.498260 0.508863 -0.058179
C135  C     C_R   0.452597 0.001740 0.491136 -0.058179
C136  C     C_R   0.547521 0.998197 0.508533 -0.058193
C137  C     C_R   0.868762 0.444134 0.514302 0.050799
C138  C     C_R   0.131148 0.555898 0.485942 0.050339
C139  C     C_R   0.105627 0.437598 0.560063 0.066037
C140  C     C_R   0.894315 0.562403 0.440113 0.065908
C141  C     C_R   0.368852 0.944102 0.514058 0.050339
C142  C     C_R   0.631238 0.055865 0.485698 0.050799
C143  C     C_R   0.605685 0.937596 0.559887 0.065907
C144  C     C_R   0.394374 0.062402 0.439936 0.066037
C145  C     C_R   0.829257 0.439550 0.484905 -0.108512
C146  C     C_R   0.170687 0.560455 0.515262 -0.108656
C147  C     C_R   0.157345 0.435956 0.556375 -0.118517
C148  C     C_R   0.842624 0.564033 0.443722 -0.118649
C149  C     C_R   0.329313 0.939545 0.484738 -0.108656
C150  C     C_R   0.670743 0.060450 0.515096 -0.108509
C151  C     C_R   0.657376 0.935967 0.556279 -0.118649
C152  C     C_R   0.342655 0.064044 0.443624 -0.118517
C153  C     C_R   0.816067 0.500094 0.451832 -0.304588
C154  C     C_R   0.183898 0.499898 0.548283 -0.304248
C155  C     C_R   0.316102 0.000102 0.451717 -0.304249
C156  C     C_R   0.683933 0.999906 0.548169 -0.304589
H1    H     H_    0.982372 0.285543 0.670051 0.155278
H2    H     H_    0.017426 0.714642 0.330515 0.155114
H3    H     H_    0.901369 0.290861 0.659391 0.153454
H4    H     H_    0.098392 0.709389 0.341287 0.152591
H5    H     H_    0.482574 0.785358 0.669485 0.155113
H6    H     H_    0.517629 0.214455 0.329945 0.155277
H7    H     H_    0.401608 0.790611 0.658713 0.152591
H8    H     H_    0.598633 0.209137 0.340605 0.153452
H9    H     H_    0.781751 0.499206 0.439541 0.195120
H10   H     H_    0.218232 0.500780 0.560526 0.195108
H11   H     H_    0.281768 0.999220 0.439474 0.195108
H12   H     H_    0.718248 0.000794 0.560461 0.195120
H13   H     H_    0.696668 0.155128 0.974901 0.160989
H14   H     H_    0.260852 0.623938 0.041521 0.153898
H15   H     H_    0.342830 0.201314 0.948243 0.153014
H16   H     H_    0.658574 0.802510 0.048444 0.152893
H17   H     H_    0.239148 0.876066 0.958480 0.153895
H18   H     H_    0.803329 0.344857 0.025098 0.160989
H19   H     H_    0.841427 0.697491 0.951554 0.152892
H20   H     H_    0.157170 0.298686 0.051756 0.153014
H21   H     H_    0.632015 0.347997 0.011802 0.159281
H22   H     H_    0.369239 0.654098 0.987103 0.153447
H23   H     H_    0.368639 0.347816 0.987426 0.154910
H24   H     H_    0.631175 0.652389 0.012811 0.154916
H25   H     H_    0.130764 0.845908 0.012893 0.153451
H26   H     H_    0.867987 0.152004 0.988195 0.159288
H27   H     H_    0.868826 0.847610 0.987188 0.154919
H28   H     H_    0.131361 0.152183 0.012573 0.154910
H29   H     H_    0.611321 0.337358 0.778217 0.177901
H30   H     H_    0.388602 0.662314 0.222020 0.177755
H31   H     H_    0.387866 0.338327 0.222652 0.176778
H32   H     H_    0.612120 0.661751 0.777402 0.176760
H33   H     H_    0.111397 0.837685 0.777980 0.177755
H34   H     H_    0.888679 0.162643 0.221782 0.177899
H35   H     H_    0.887880 0.838249 0.222598 0.176761
H36   H     H_    0.112134 0.161673 0.777348 0.176778
H37   H     H_    0.745229 0.226975 0.782859 0.155924
H38   H     H_    0.255047 0.773197 0.217180 0.152415
H39   H     H_    0.255846 0.227344 0.216582 0.154730
H40   H     H_    0.744560 0.771843 0.783232 0.154861
H41   H     H_    0.244951 0.726799 0.782822 0.152421
H42   H     H_    0.754763 0.273008 0.217146 0.155917
H43   H     H_    0.755440 0.728158 0.216767 0.154866
H44   H     H_    0.244154 0.272656 0.783418 0.154730
O1    O     O_R   0.746490 0.236330 0.638080 -0.650601
O2    O     O_R   0.253510 0.763670 0.361920 -0.651225
O3    O     O_R   0.253510 0.236330 0.361920 -0.637406
O4    O     O_R   0.746490 0.763670 0.638080 -0.637456
O5    O     O_R   0.246490 0.736330 0.638080 -0.651226
O6    O     O_R   0.753510 0.263670 0.361920 -0.650598
O7    O     O_R   0.753510 0.736330 0.361920 -0.637455
O8    O     O_R   0.246490 0.263670 0.638080 -0.637407
O9    O     O_R   0.674170 0.186160 0.516270 -0.618903
O10   O     O_R   0.325830 0.813840 0.483730 -0.618906
O11   O     O_R   0.325830 0.186160 0.483730 -0.613354
O12   O     O_R   0.674170 0.813840 0.516270 -0.613462
O13   O     O_R   0.174170 0.686160 0.516270 -0.618906
O14   O     O_R   0.825830 0.313840 0.483730 -0.618905
O15   O     O_R   0.825830 0.686160 0.483730 -0.613462
O16   O     O_R   0.174170 0.313840 0.516270 -0.613354
O17   O     O_R   0.739960 0.127620 0.525000 -0.633798
O18   O     O_R   0.260040 0.872380 0.475000 -0.633737
O19   O     O_R   0.260040 0.127620 0.475000 -0.627317
O20   O     O_R   0.739960 0.872380 0.525000 -0.627347
O21   O     O_R   0.239960 0.627620 0.525000 -0.633737
O22   O     O_R   0.760040 0.372380 0.475000 -0.633796
O23   O     O_R   0.760040 0.627620 0.475000 -0.627347
O24   O     O_R   0.239960 0.372380 0.525000 -0.627318
O25   O     O_R   0.680700 0.294870 0.629350 -0.627077
O26   O     O_R   0.319300 0.705130 0.370650 -0.626820
O27   O     O_R   0.319300 0.294870 0.370650 -0.631481
O28   O     O_R   0.680700 0.705130 0.629350 -0.631474
O29   O     O_R   0.180700 0.794870 0.629350 -0.626820
O30   O     O_R   0.819300 0.205130 0.370650 -0.627074
O31   O     O_R   0.819300 0.794870 0.370650 -0.631474
O32   O     O_R   0.180700 0.205130 0.629350 -0.631481
O33   O     O_R   0.062020 0.072840 0.007170 -0.627076
O34   O     O_R   0.937980 0.927160 0.992830 -0.626886
O35   O     O_R   0.937980 0.072840 0.992830 -0.627936
O36   O     O_R   0.062020 0.927160 0.007170 -0.628058
O37   O     O_R   0.562020 0.572840 0.007170 -0.626889
O38   O     O_R   0.437980 0.427160 0.992830 -0.627075
O39   O     O_R   0.437980 0.572840 0.992830 -0.628057
O40   O     O_R   0.562020 0.427160 0.007170 -0.627939
O41   O     O_R   0.947860 0.073950 0.109290 -0.622336
O42   O     O_R   0.052140 0.926050 0.890710 -0.622692
O43   O     O_R   0.052140 0.073950 0.890710 -0.623274
O44   O     O_R   0.947860 0.926050 0.109290 -0.623314
O45   O     O_R   0.447860 0.573950 0.109290 -0.622691
O46   O     O_R   0.552140 0.426050 0.890710 -0.622337
O47   O     O_R   0.552140 0.573950 0.890710 -0.623315
O48   O     O_R   0.447860 0.426050 0.109290 -0.623273
Zn1   Zn    Zn3+2 0.792340 0.208750 0.507670 0.935658
Zn2   Zn    Zn3+2 0.207660 0.791250 0.492330 0.935271
Zn3   Zn    Zn3+2 0.207660 0.208750 0.492330 0.943018
Zn4   Zn    Zn3+2 0.792340 0.791250 0.507670 0.942887
Zn5   Zn    Zn3+2 0.292340 0.708750 0.507670 0.935270
Zn6   Zn    Zn3+2 0.707660 0.291250 0.492330 0.935661
Zn7   Zn    Zn3+2 0.707660 0.708750 0.492330 0.942888
Zn8   Zn    Zn3+2 0.292340 0.291250 0.507670 0.943017
Zn9   Zn    Zn3+2 0.505960 0.500000 0.080520 0.933611
Zn10  Zn    Zn3+2 0.494040 0.500000 0.919480 0.933422
Zn11  Zn    Zn3+2 0.005960 0.000000 0.080520 0.933422
Zn12  Zn    Zn3+2 0.994040 0.000000 0.919480 0.933615
C157  C     C_3   0.068335 0.331611 0.670969 -0.872612
H45   H     H_    0.074146 0.274936 0.645385 0.248678
H46   H     H_    0.101166 0.344873 0.686426 0.223825
H47   H     H_    0.030314 0.335098 0.736270 0.224540
C158  C     C_3   0.931652 0.668344 0.329147 -0.872448
H48   H     H_    0.898879 0.655007 0.313574 0.223728
H49   H     H_    0.925782 0.725033 0.354703 0.248631
H50   H     H_    0.969720 0.664867 0.263914 0.224896
C159  C     C_3   0.823074 0.355354 0.645563 -0.854832
H51   H     H_    0.785027 0.375356 0.648621 0.226636
H52   H     H_    0.827553 0.295866 0.633369 0.258657
H53   H     H_    0.818440 0.366155 0.712994 0.228410
C160  C     C_3   0.176780 0.644742 0.354721 -0.853240
H54   H     H_    0.172306 0.704233 0.366909 0.257878
H55   H     H_    0.214841 0.624757 0.351631 0.226468
H56   H     H_    0.181404 0.633929 0.287287 0.224902
C161  C     C_3   0.568348 0.831656 0.670853 -0.872450
H57   H     H_    0.574218 0.774967 0.645297 0.248631
H58   H     H_    0.601121 0.844992 0.686426 0.223728
H59   H     H_    0.530280 0.835133 0.736086 0.224894
C162  C     C_3   0.431666 0.168389 0.329030 -0.872614
H60   H     H_    0.398834 0.155127 0.313573 0.223826
H61   H     H_    0.425855 0.225064 0.354615 0.248678
H62   H     H_    0.469686 0.164901 0.263729 0.224541
C163  C     C_3   0.323220 0.855258 0.645279 -0.853240
H63   H     H_    0.285159 0.875243 0.648369 0.226468
H64   H     H_    0.327694 0.795767 0.633091 0.257878
H65   H     H_    0.318596 0.866071 0.712713 0.224902
C164  C     C_3   0.676927 0.144643 0.354435 -0.854805
H66   H     H_    0.672448 0.204132 0.366617 0.258637
H67   H     H_    0.714972 0.124646 0.351384 0.226641
H68   H     H_    0.681566 0.133832 0.287003 0.228423
C165  C     C_3   0.759478 0.396806 0.927972 -0.936172
H69   H     H_    0.803289 0.409346 0.886616 0.243757
H70   H     H_    0.740586 0.404278 0.884659 0.252995
H71   H     H_    0.740767 0.436466 0.984043 0.244602
C166  C     C_3   0.298398 0.871962 0.044452 -0.912600
H72   H     H_    0.279728 0.879096 0.118111 0.237791
H73   H     H_    0.342669 0.862170 0.015692 0.248913
H74   H     H_    0.292701 0.923596 0.015819 0.237941
C167  C     C_3   0.198189 0.344293 0.157286 -0.903362
H75   H     H_    0.190043 0.314557 0.219252 0.242725
H76   H     H_    0.224853 0.391393 0.148075 0.248068
H77   H     H_    0.158859 0.365782 0.166521 0.236869
C168  C     C_3   0.799865 0.651133 0.846949 -0.901058
H78   H     H_    0.772304 0.604634 0.858383 0.250246
H79   H     H_    0.808325 0.679243 0.783833 0.242792
H80   H     H_    0.838871 0.628942 0.838365 0.236533
C169  C     C_3   0.201608 0.628041 0.955539 -0.912673
H81   H     H_    0.157346 0.637856 0.984222 0.248928
H82   H     H_    0.220314 0.620872 0.881883 0.237793
H83   H     H_    0.207264 0.576421 0.984237 0.237963
C170  C     C_3   0.740522 0.103178 0.072026 -0.936365
H84   H     H_    0.759463 0.095669 0.115236 0.253069
H85   H     H_    0.696711 0.090663 0.113452 0.243767
H86   H     H_    0.759173 0.063521 0.015960 0.244611
C171  C     C_3   0.700144 0.848879 0.153034 -0.901125
H87   H     H_    0.691668 0.820777 0.216157 0.242809
H88   H     H_    0.727714 0.895362 0.141600 0.250260
H89   H     H_    0.661150 0.871088 0.161592 0.236547
C172  C     C_3   0.301812 0.155707 0.842712 -0.903357
H90   H     H_    0.275148 0.108606 0.851923 0.248066
H91   H     H_    0.309957 0.185444 0.780747 0.242724
H92   H     H_    0.341142 0.134220 0.833476 0.236868

loop_
_geom_bond_atom_site_label_1
_geom_bond_atom_site_label_2
_ccdc_geom_bond_type
C166  H73   S    
C34   C42   A    
C16   C113  A    
C110  C118  A    
O33   Zn11  S    
C167  H75   S    
C162  H62   S    
O34   Zn12  S    
C27   C99   S    
C54   C107  S    
C13   C139  A    
C82   H42   S    
C51   H27   S    
C117  C119  A    
C19   C163  S    
C108  O46   A    
C160  H56   S    
C30   C38   A    
C77   H37   S    
C91   O15   A    
C109  C127  A    
C155  H11   S    
C2    O2    A    
C111  C125  A    
O40   Zn9   S    
C125  C135  A    
C143  C151  A    
C126  C136  A    
C19   C141  A    
C92   C147  S    
C82   C98   A    
C130  C134  A    
C73   C81   A    
O22   Zn6   S    
C80   H40   S    
C32   C168  S    
C115  C123  A    
C84   C100  A    
C92   O24   A    
C127  C136  A    
C128  C135  A    
C112  C120  A    
C27   C35   A    
C21   C29   A    
C23   C31   A    
C171  H89   S    
C24   C32   A    
C146  C154  A    
C129  C133  A    
C63   C71   A    
C102  O34   A    
C159  H52   S    
C36   C44   A    
C102  O44   A    
C148  C153  A    
O18   Zn2   S    
C90   O14   A    
C2    O26   A    
C167  H77   S    
C57   C104  S    
C48   C96   A    
C59   C102  S    
C16   C138  A    
C52   H28   S    
C170  H86   S    
C85   O9    A    
C34   C170  S    
C90   C145  S    
C24   C96   S    
C149  C155  A    
C163  H64   S    
C53   C108  S    
C21   C93   S    
C78   C94   A    
C23   C95   S    
O43   Zn12  S    
C33   C169  S    
C118  C120  A    
C121  C123  A    
C49   C97   A    
C21   C42   A    
C116  C130  A    
C172  H90   S    
C88   O12   A    
C125  C127  A    
C24   C43   A    
C105  O37   A    
C10   C138  A    
C110  C128  A    
C15   C137  A    
C9    C133  A    
C69   C77   A    
O11   Zn8   S    
C45   C93   A    
C71   C79   A    
C62   C70   A    
C89   O21   A    
C157  H45   S    
C9    C140  A    
C170  H85   S    
C156  H12   S    
C66   C74   A    
C8    C76   S    
C49   C57   A    
C111  C119  A    
C86   O18   A    
C52   C60   A    
C59   C67   A    
C53   C61   A    
O35   Zn12  S    
C168  H79   S    
C55   C63   A    
C56   C64   A    
C35   C43   A    
C62   H30   S    
C45   C53   A    
C161  H57   S    
C22   C94   S    
C50   H26   S    
O17   Zn1   S    
C169  H82   S    
O21   Zn5   S    
C50   C98   A    
C7    O7    A    
C31   C167  S    
C29   C165  S    
C52   C100  A    
O10   Zn5   S    
C165  H69   S    
C25   C38   A    
C158  H49   S    
C46   C94   A    
C27   C40   A    
C172  H92   S    
O14   Zn1   S    
C61   H29   S    
C164  H66   S    
C11   C141  A    
C28   C36   A    
C64   H32   S    
O3    Zn3   S    
C25   C97   S    
C14   C140  A    
C63   H31   S    
C87   C152  S    
C6    O30   A    
C88   C151  S    
C49   H25   S    
C67   C75   A    
C122  C124  A    
C48   H24   S    
O5    Zn5   S    
C115  C129  A    
C103  O35   A    
C22   C30   A    
C153  H9    S    
C87   O11   A    
C157  H47   S    
O27   Zn8   S    
O7    Zn7   S    
C162  H61   S    
O1    Zn1   S    
C12   C143  A    
O12   Zn7   S    
C72   C80   A    
C18   C162  S    
C138  C146  A    
O16   Zn3   S    
C66   H34   S    
C160  H55   S    
C5    C73   S    
C6    O6    A    
C104  O36   A    
C113  C121  A    
C12   C136  A    
C161  H59   S    
C83   C99   A    
C17   C161  S    
C25   C33   A    
O41   Zn11  S    
C3    O3    A    
C131  C134  A    
C1    O1    A    
C76   C84   A    
C109  C117  A    
C7    O31   A    
C137  C145  A    
C165  H71   S    
C81   H41   S    
C19   C110  A    
C22   C41   A    
C14   C115  A    
C164  H68   S    
C78   H38   S    
C171  H88   S    
C85   C150  S    
C105  O47   A    
C37   H18   S    
C9    C137  A    
O26   Zn5   S    
C121  H4    S    
C126  C128  A    
C122  H3    S    
O30   Zn1   S    
O45   Zn9   S    
C112  C126  A    
C14   C158  S    
O19   Zn3   S    
C159  H51   S    
C114  C132  A    
C74   C82   A    
C119  H6    S    
C6    C74   S    
C167  H76   S    
C117  H8    S    
C118  H7    S    
C55   C106  S    
C141  C149  A    
C50   C58   A    
C39   H20   S    
C54   C62   A    
C28   C39   A    
C107  O39   A    
O24   Zn8   S    
C1    C69   S    
C23   C44   A    
C88   O20   A    
C3    C71   S    
C79   C95   A    
C163  H63   S    
C42   H13   S    
C11   C135  A    
O9    Zn6   S    
O28   Zn7   S    
C152  C155  A    
C124  H1    S    
C46   C54   A    
O32   Zn3   S    
C151  C156  A    
C18   C111  A    
C101  O33   A    
O15   Zn4   S    
C68   C76   A    
C10   C139  A    
C91   O23   A    
C3    O27   A    
C4    C72   S    
O47   Zn10  S    
C89   O13   A    
C1    O25   A    
C116  C124  A    
C86   O10   A    
C57   C65   A    
C26   C37   A    
C41   H14   S    
C17   C143  A    
C33   C41   A    
C142  C150  A    
C18   C144  A    
C44   H15   S    
C75   C83   A    
C170  H84   S    
C104  O42   A    
C77   C93   A    
C12   C142  A    
C92   O16   A    
C4    O28   A    
C56   C105  S    
C13   C116  A    
C60   C68   A    
C144  C152  A    
C168  H78   S    
C106  O38   A    
C159  H53   S    
C29   C37   A    
C154  H10   S    
C106  O48   A    
C2    C70   S    
C70   C78   A    
C166  H72   S    
C46   H22   S    
O39   Zn10  S    
C130  C132  A    
C140  C148  A    
C79   H39   S    
C35   C171  S    
C169  H81   S    
C84   H44   S    
C139  C147  A    
C20   C164  S    
C90   O22   A    
C163  H65   S    
C67   H35   S    
C4    O4    A    
C68   H36   S    
C65   C73   A    
C8    O8    A    
C147  C154  A    
C85   O17   A    
C47   H23   S    
C103  O41   A    
C26   C34   A    
C108  O40   A    
C132  C133  A    
C172  H91   S    
C87   O19   A    
C80   C96   A    
C158  H48   S    
O29   Zn2   S    
C45   H21   S    
C145  C153  A    
C28   C100  S    
C32   C40   A    
C150  C156  A    
O44   Zn11  S    
O31   Zn4   S    
C91   C148  S    
C58   C66   A    
C51   C99   A    
C89   C146  S    
C20   C142  A    
C86   C149  S    
C157  H46   S    
O25   Zn6   S    
C38   H17   S    
C7    C75   S    
C162  H60   S    
O48   Zn9   S    
O4    Zn4   S    
O46   Zn10  S    
C168  H80   S    
C160  H54   S    
C15   C114  A    
O13   Zn2   S    
C120  H5    S    
C26   C98   S    
O2    Zn2   S    
C161  H58   S    
C166  H74   S    
C5    O29   A    
C51   C59   A    
C83   H43   S    
C60   C101  S    
O6    Zn6   S    
C17   C112  A    
C47   C55   A    
C11   C144  A    
C169  H83   S    
C61   C69   A    
C48   C56   A    
O36   Zn11  S    
C113  C131  A    
O42   Zn12  S    
C107  O45   A    
C10   C134  A    
C65   H33   S    
C16   C160  S    
C40   H19   S    
C43   H16   S    
C30   C166  S    
C123  H2    S    
O20   Zn4   S    
C165  H70   S    
O37   Zn9   S    
C8    O32   A    
C81   C97   A    
C164  H67   S    
C31   C39   A    
O38   Zn10  S    
C64   C72   A    
C171  H87   S    
C101  O43   A    
C158  H50   S    
C5    O5    A    
C20   C109  A    
C114  C122  A    
O23   Zn7   S    
C47   C95   A    
C36   C172  S    
C58   C103  S    
O8    Zn8   S    
C15   C159  S    
C13   C157  S    
C129  C131  A    
