data_mof_unit_62734.cif
_audit_creation_date              2012-12-10T20:16:14-0500
_audit_creation_method            fapswitch 2.2
_symmetry_space_group_name_H-M    P1
_symmetry_Int_Tables_number       1
_space_group_crystal_system       tetragonal
_cell_length_a                    35.482402
_cell_length_b                    35.482402
_cell_length_c                    30.259698
_cell_angle_alpha                 90.0
_cell_angle_beta                  90.0
_cell_angle_gamma                 90.0
_cell_volume                      38096.9855539

loop_
_atom_site_label
_atom_site_type_symbol
_atom_type_description
_atom_site_fract_x
_atom_site_fract_y
_atom_site_fract_z
_atom_type_partial_charge
C1    C     C_R   1.000000 0.426523 0.500000 0.872481
C2    C     C_R   0.114013 1.000000 0.500000 -0.109469
C3    C     C_R   0.500000 0.000000 0.586717 0.910663
C4    C     C_R   0.500000 1.000000 0.913283 0.910664
C5    C     C_R   1.000000 0.500000 0.913283 0.910664
C6    C     C_R   0.500000 0.000000 0.086717 0.910663
C7    C     C_R   0.000000 0.500000 0.086717 0.910663
C8    C     C_R   0.024795 0.475771 0.157272 0.114275
C9    C     C_R   0.475771 0.975205 0.157272 0.114276
C10   C     C_R   0.975205 0.524229 0.157272 0.114275
C11   C     C_R   0.524229 0.024795 0.157272 0.114275
C12   C     C_R   0.024795 0.524229 0.842728 0.114275
C13   C     C_R   0.000000 0.885987 0.500000 -0.109468
C14   C     C_R   0.475771 0.024795 0.842728 0.114274
C15   C     C_R   0.975205 0.475771 0.842728 0.114275
C16   C     C_R   0.524229 0.975205 0.842728 0.114275
C17   C     C_R   0.524795 0.975771 0.657272 0.114275
C18   C     C_R   0.975771 0.475205 0.657272 0.114275
C19   C     C_R   0.475205 0.024229 0.657272 0.114275
C20   C     C_R   0.024229 0.524795 0.657272 0.114275
C21   C     C_R   0.524795 0.024229 0.342728 0.114274
C22   C     C_R   0.975771 0.524795 0.342728 0.114275
C23   C     C_R   0.475205 0.975771 0.342728 0.114275
C24   C     C_R   0.885987 1.000000 0.500000 -0.109468
C25   C     C_R   0.024229 0.475205 0.342728 0.114275
C26   C     C_R   1.000000 0.500000 0.134508 -0.201360
C27   C     C_R   0.500000 0.000000 0.134508 -0.201360
C28   C     C_R   0.000000 0.500000 0.865492 -0.201360
C29   C     C_R   0.500000 0.000000 0.865492 -0.201360
C30   C     C_R   0.500000 1.000000 0.634508 -0.201359
C31   C     C_R   0.000000 0.500000 0.634508 -0.201360
C32   C     C_R   0.500000 0.000000 0.365492 -0.201360
C33   C     C_R   0.000000 0.500000 0.365492 -0.201360
C34   C     C_R   0.975436 0.524395 0.203548 0.086935
C35   C     C_R   0.500000 0.614013 0.000000 -0.109469
C36   C     C_R   0.524395 0.024564 0.203548 0.086935
C37   C     C_R   0.024564 0.475605 0.203548 0.086935
C38   C     C_R   0.475605 0.975435 0.203548 0.086935
C39   C     C_R   0.975436 0.475605 0.796452 0.086935
C40   C     C_R   0.524395 0.975435 0.796452 0.086935
C41   C     C_R   0.024564 0.524395 0.796452 0.086935
C42   C     C_R   0.475605 0.024564 0.796452 0.086935
C43   C     C_R   0.475435 0.024395 0.703548 0.086935
C44   C     C_R   0.024394 0.524564 0.703548 0.086935
C45   C     C_R   0.524564 0.975605 0.703548 0.086935
C46   C     C_R   0.614013 0.500000 0.000000 -0.109469
C47   C     C_R   0.975605 0.475435 0.703548 0.086934
C48   C     C_R   0.475436 0.975605 0.296452 0.086935
C49   C     C_R   0.024395 0.475435 0.296452 0.086935
C50   C     C_R   0.524564 0.024395 0.296452 0.086935
C51   C     C_R   0.975605 0.524564 0.296452 0.086935
C52   C     C_R   0.000000 0.500000 0.226719 -0.004805
C53   C     C_R   0.500000 0.000000 0.226719 -0.004805
C54   C     C_R   0.000000 0.500000 0.773281 -0.004805
C55   C     C_R   0.500000 0.000000 0.773281 -0.004805
C56   C     C_R   0.500000 0.000000 0.726719 -0.004805
C57   C     C_R   0.500000 0.385987 0.000000 -0.109468
C58   C     C_R   0.000000 0.500000 0.726719 -0.004805
C59   C     C_R   0.500000 1.000000 0.273281 -0.004805
C60   C     C_R   0.000000 0.500000 0.273281 -0.004805
C61   C     C_R   0.951202 0.548269 0.227157 -0.200502
C62   C     C_R   0.548269 0.048798 0.227157 -0.200502
C63   C     C_R   0.048798 0.451731 0.227157 -0.200501
C64   C     C_R   0.451731 0.951202 0.227157 -0.200502
C65   C     C_R   0.951202 0.451730 0.772842 -0.200503
C66   C     C_R   0.548269 0.951202 0.772842 -0.200502
C67   C     C_R   0.048798 0.548269 0.772842 -0.200503
C68   C     C_R   0.385987 0.500000 0.000000 -0.109468
C69   C     C_R   0.451731 0.048798 0.772842 -0.200502
C70   C     C_R   0.451202 0.048269 0.727157 -0.200502
C71   C     C_R   0.048269 0.548798 0.727157 -0.200501
C72   C     C_R   0.548798 0.951731 0.727157 -0.200501
C73   C     C_R   0.951731 0.451201 0.727157 -0.200501
C74   C     C_R   0.451202 0.951731 0.272842 -0.200501
C75   C     C_R   0.048269 0.451202 0.272842 -0.200502
C76   C     C_R   0.548798 0.048269 0.272842 -0.200502
C77   C     C_R   0.951731 0.548798 0.272842 -0.200502
C78   C     C_R   0.028340 0.173152 0.522447 -0.181626
C79   C     C_R   1.000000 0.192518 0.500000 0.111380
C80   C     C_R   0.173152 0.971660 0.522447 -0.181627
C81   C     C_R   0.971660 0.826848 0.522447 -0.181626
C82   C     C_R   0.826848 0.028340 0.522447 -0.181627
C83   C     C_R   0.028340 0.826848 0.477553 -0.181627
C84   C     C_R   0.173152 0.028340 0.477553 -0.181626
C85   C     C_R   0.971660 0.173152 0.477553 -0.181626
C86   C     C_R   0.826848 0.971660 0.477553 -0.181626
C87   C     C_R   0.528340 0.673152 0.022447 -0.181627
C88   C     C_R   0.673152 0.471660 0.022447 -0.181627
C89   C     C_R   0.471660 0.326848 0.022447 -0.181627
C90   C     C_R   0.192518 0.000000 0.500000 0.111380
C91   C     C_R   0.326848 0.528340 0.022447 -0.181627
C92   C     C_R   0.528340 0.326848 0.977553 -0.181626
C93   C     C_R   0.673152 0.528340 0.977553 -0.181627
C94   C     C_R   0.471660 0.673152 0.977553 -0.181626
C95   C     C_R   0.326848 0.471660 0.977553 -0.181626
C96   C     C_R   0.028553 0.133886 0.522656 -0.021503
C97   C     C_R   0.133886 0.971447 0.522656 -0.021502
C98   C     C_R   0.971447 0.866114 0.522656 -0.021502
C99   C     C_R   0.866114 0.028553 0.522656 -0.021503
C100  C     C_R   0.028553 0.866114 0.477344 -0.021502
C101  C     C_R   0.000000 0.807482 0.500000 0.111380
C102  C     C_R   0.133886 0.028553 0.477344 -0.021502
C103  C     C_R   0.971447 0.133886 0.477344 -0.021502
C104  C     C_R   0.866114 0.971447 0.477344 -0.021502
C105  C     C_R   0.528553 0.633886 0.022656 -0.021502
C106  C     C_R   0.633886 0.471447 0.022656 -0.021502
C107  C     C_R   0.471447 0.366114 0.022656 -0.021502
C108  C     C_R   0.366114 0.528553 0.022656 -0.021503
C109  C     C_R   0.528553 0.366114 0.977344 -0.021502
C110  C     C_R   0.633886 0.528553 0.977344 -0.021502
C111  C     C_R   0.471447 0.633886 0.977344 -0.021502
C112  C     C_R   0.426523 1.000000 0.500000 0.872481
C113  C     C_R   0.807482 1.000000 0.500000 0.111380
C114  C     C_R   0.366114 0.471447 0.977344 -0.021502
C115  C     C_3   0.041975 0.413545 0.128649 -0.736933
C116  C     C_3   0.413545 0.958024 0.128649 -0.736932
C117  C     C_3   0.958025 0.586455 0.128649 -0.736931
C118  C     C_3   0.586455 0.041975 0.128649 -0.736933
C119  C     C_3   0.041975 0.586455 0.871351 -0.736933
C120  C     C_3   0.413545 0.041975 0.871351 -0.736933
C121  C     C_3   0.958025 0.413545 0.871351 -0.736932
C122  C     C_3   0.586455 0.958024 0.871351 -0.736933
C123  C     C_3   0.541976 0.913545 0.628649 -0.736934
C124  C     C_R   0.500000 0.692518 0.000000 0.111380
C125  C     C_3   0.913545 0.458024 0.628649 -0.736933
C126  C     C_3   0.458024 0.086455 0.628649 -0.736934
C127  C     C_3   0.086455 0.541976 0.628649 -0.736934
C128  C     C_3   0.541976 0.086455 0.371351 -0.736934
C129  C     C_3   0.913545 0.541976 0.371351 -0.736933
C130  C     C_3   0.458024 0.913545 0.371351 -0.736934
C131  C     C_3   0.086455 0.458024 0.371351 -0.736933
C132  C     C_1   0.058921 0.114611 0.545090 0.182406
C133  C     C_1   0.114611 0.941079 0.545090 0.182406
C134  C     C_1   0.941079 0.885389 0.545090 0.182406
C135  C     C_R   0.692518 0.500000 1.000000 0.111380
C136  C     C_1   0.885389 0.058921 0.545090 0.182406
C137  C     C_1   0.058921 0.885389 0.454910 0.182407
C138  C     C_1   0.114611 0.058921 0.454910 0.182406
C139  C     C_1   0.941079 0.114611 0.454910 0.182406
C140  C     C_1   0.885389 0.941079 0.454910 0.182406
C141  C     C_1   0.558921 0.614611 0.045090 0.182406
C142  C     C_1   0.614611 0.441079 0.045090 0.182406
C143  C     C_1   0.441079 0.385389 0.045090 0.182406
C144  C     C_1   0.385389 0.558921 0.045090 0.182406
C145  C     C_1   0.558921 0.385389 0.954910 0.182407
C146  C     C_R   0.500000 0.307482 0.000000 0.111380
C147  C     C_1   0.614611 0.558921 0.954910 0.182407
C148  C     C_1   0.441079 0.614611 0.954910 0.182406
C149  C     C_1   0.385389 0.441079 0.954910 0.182406
C150  C     C_1   0.070035 0.306741 0.494522 0.160152
C151  C     C_1   0.306741 0.929965 0.494522 0.160152
C152  C     C_1   0.929965 0.693259 0.494520 0.160152
C153  C     C_1   0.693259 0.070035 0.494522 0.160152
C154  C     C_1   0.070034 0.693259 0.505480 0.160152
C155  C     C_1   0.306741 0.070035 0.505478 0.160152
C156  C     C_1   0.929965 0.306741 0.505477 0.160152
C157  C     C_R   0.307482 0.500000 0.000000 0.111380
C158  C     C_1   0.693259 0.929965 0.505478 0.160152
C159  C     C_1   0.570035 0.806741 0.994524 0.160152
C160  C     C_1   0.806741 0.429965 0.994525 0.160152
C161  C     C_1   0.429965 0.193259 0.994522 0.160152
C162  C     C_1   0.193259 0.570035 0.994523 0.160152
C163  C     C_1   0.570035 0.193259 0.005478 0.160152
C164  C     C_1   0.806741 0.570035 0.005475 0.160152
C165  C     C_1   0.429965 0.806741 0.005476 0.160152
C166  C     C_1   0.193259 0.429965 0.005477 0.160152
C167  C     C_1   1.000000 0.232535 0.500000 -0.020497
C168  C     C_1   0.232535 0.000000 0.500000 -0.020497
C169  C     C_1   0.000000 0.767465 0.500000 -0.020497
C170  C     C_1   0.767465 1.000000 0.500000 -0.020497
C171  C     C_1   0.500000 0.732535 0.000000 -0.020497
C172  C     C_R   0.000000 0.573477 0.500000 0.872480
C173  C     C_1   0.732535 0.500000 1.000000 -0.020497
C174  C     C_1   0.500000 0.267465 0.000000 -0.020497
C175  C     C_1   0.267465 0.500000 0.000000 -0.020497
C176  C     C_1   0.000000 0.266187 0.500000 -0.033332
C177  C     C_1   0.266187 0.000000 0.500000 -0.033332
C178  C     C_1   0.000000 0.733813 0.500000 -0.033332
C179  C     C_1   0.733813 1.000000 0.500000 -0.033332
C180  C     C_1   0.500000 0.766187 0.000000 -0.033332
C181  C     C_1   0.766187 0.500000 1.000000 -0.033332
C182  C     C_1   0.500000 0.233813 0.000000 -0.033332
C183  C     C_R   0.573477 0.000000 0.500000 0.872480
C184  C     C_1   0.233813 0.500000 0.000000 -0.033332
C185  C     C_R   0.034325 0.326210 0.497322 0.020242
C186  C     C_R   0.326210 0.965674 0.497322 0.020242
C187  C     C_R   0.965675 0.673790 0.497321 0.020242
C188  C     C_R   0.673790 0.034325 0.497322 0.020242
C189  C     C_R   0.034325 0.673790 0.502679 0.020242
C190  C     C_R   0.326210 0.034325 0.502678 0.020242
C191  C     C_R   0.965674 0.326210 0.502677 0.020242
C192  C     C_R   0.673790 0.965674 0.502678 0.020242
C193  C     C_R   0.534325 0.826210 0.997323 0.020242
C194  C     C_R   0.500000 0.926523 0.000000 0.872481
C195  C     C_R   0.826210 0.465675 0.997324 0.020242
C196  C     C_R   0.465675 0.173790 0.997322 0.020242
C197  C     C_R   0.173790 0.534325 0.997323 0.020242
C198  C     C_R   0.534325 0.173790 0.002678 0.020242
C199  C     C_R   0.826210 0.534325 0.002676 0.020243
C200  C     C_R   0.465675 0.826210 0.002677 0.020242
C201  C     C_R   0.173790 0.465674 0.002677 0.020242
C202  C     C_R   0.034131 0.365473 0.497342 -0.238109
C203  C     C_R   0.365473 0.965869 0.497342 -0.238109
C204  C     C_R   0.965869 0.634527 0.497340 -0.238109
C205  C     C_R   0.926523 0.500000 0.000000 0.872481
C206  C     C_R   0.634527 0.034131 0.497342 -0.238109
C207  C     C_R   0.034130 0.634527 0.502659 -0.238109
C208  C     C_R   0.365473 0.034131 0.502658 -0.238109
C209  C     C_R   0.965869 0.365473 0.502658 -0.238109
C210  C     C_R   0.634527 0.965869 0.502658 -0.238109
C211  C     C_R   0.534131 0.865473 0.997342 -0.238109
C212  C     C_R   0.865473 0.465869 0.997343 -0.238109
C213  C     C_R   0.465869 0.134527 0.997342 -0.238109
C214  C     C_R   0.134527 0.534131 0.997342 -0.238109
C215  C     C_R   0.534131 0.134527 0.002658 -0.238109
C216  C     C_R   0.500000 0.073477 0.000000 0.872480
C217  C     C_R   0.865473 0.534131 0.002657 -0.238110
C218  C     C_R   0.465869 0.865473 0.002658 -0.238109
C219  C     C_R   0.134527 0.465869 0.002658 -0.238109
C220  C     C_R   1.000000 0.385270 0.500000 -0.076727
C221  C     C_R   0.385270 1.000000 0.500000 -0.076727
C222  C     C_R   0.000000 0.614730 0.500000 -0.076727
C223  C     C_R   0.614730 0.000000 0.500000 -0.076727
C224  C     C_R   0.500000 0.885270 0.000000 -0.076727
C225  C     C_R   0.885270 0.500000 0.000000 -0.076727
C226  C     C_R   0.500000 0.114729 0.000000 -0.076727
C227  C     C_R   0.073477 0.500000 0.000000 0.872480
C228  C     C_R   0.114729 0.500000 0.000000 -0.076727
C229  C     C_R   1.000000 0.306484 0.500000 0.045887
C230  C     C_R   0.306484 0.000000 0.500000 0.045887
C231  C     C_R   0.000000 0.693515 0.500000 0.045887
C232  C     C_R   0.693515 1.000000 0.500000 0.045887
C233  C     C_R   0.500000 0.806484 0.000000 0.045887
C234  C     C_R   0.806484 0.500000 1.000000 0.045887
C235  C     C_R   0.500000 0.193515 0.000000 0.045887
C236  C     C_R   0.193516 0.500000 0.000000 0.045887
C237  C     C_R   0.072908 1.000000 0.500000 0.868460
C238  C     C_R   1.000000 0.114013 0.500000 -0.109469
C239  C     C_R   1.000000 0.927092 0.500000 0.868460
C240  C     C_R   0.927092 1.000000 0.500000 0.868460
C241  C     C_R   1.000000 0.072908 0.500000 0.868460
C242  C     C_R   0.572908 0.500000 0.000000 0.868460
C243  C     C_R   0.500000 0.427092 0.000000 0.868460
C244  C     C_R   0.427092 0.500000 0.000000 0.868460
C245  C     C_R   0.500000 0.572908 0.000000 0.868460
C246  C     C_R   0.000000 0.500000 0.413283 0.910664
C247  C     C_R   0.500000 0.000000 0.413283 0.910664
C248  C     C_R   0.000000 0.500000 0.586717 0.910663
H1    H     H_    0.931675 0.566959 0.210629 0.182018
H2    H     H_    0.066958 0.568325 0.710629 0.182017
H3    H     H_    0.567060 0.103810 0.363279 0.228764
H4    H     H_    0.965169 0.564132 0.393348 0.230830
H5    H     H_    0.907664 0.533740 0.406069 0.250521
H6    H     H_    0.904977 0.518479 0.349182 0.241408
H7    H     H_    0.896191 0.567060 0.363279 0.228764
H8    H     H_    0.435868 0.965168 0.393347 0.230832
H9    H     H_    0.466260 0.907664 0.406069 0.250521
H10   H     H_    0.481521 0.904977 0.349182 0.241409
H11   H     H_    0.432940 0.896190 0.363279 0.228764
H12   H     H_    0.034831 0.435868 0.393347 0.230831
H13   H     H_    0.568325 0.933042 0.710629 0.182017
H14   H     H_    0.092336 0.466260 0.406069 0.250521
H15   H     H_    0.095023 0.481521 0.349182 0.241408
H16   H     H_    0.103810 0.432939 0.363279 0.228764
H17   H     H_    0.933042 0.431675 0.710629 0.182017
H18   H     H_    0.431675 0.933042 0.289371 0.182017
H19   H     H_    0.066958 0.431675 0.289371 0.182017
H20   H     H_    0.568325 0.066958 0.289371 0.182017
H21   H     H_    0.933042 0.568325 0.289371 0.182018
H22   H     H_    0.050287 0.188663 0.539564 0.149611
H23   H     H_    0.188663 0.949713 0.539564 0.149611
H24   H     H_    0.949713 0.811337 0.539564 0.149611
H25   H     H_    0.566958 0.068325 0.210629 0.182017
H26   H     H_    0.811337 0.050287 0.539564 0.149611
H27   H     H_    0.050287 0.811337 0.460436 0.149611
H28   H     H_    0.188663 0.050287 0.460436 0.149611
H29   H     H_    0.949713 0.188663 0.460436 0.149611
H30   H     H_    0.811337 0.949713 0.460436 0.149611
H31   H     H_    0.550287 0.688663 0.039564 0.149611
H32   H     H_    0.688663 0.449713 0.039564 0.149611
H33   H     H_    0.449713 0.311337 0.039564 0.149611
H34   H     H_    0.311337 0.550287 0.039564 0.149611
H35   H     H_    0.550287 0.311337 0.960436 0.149611
H36   H     H_    0.068325 0.433041 0.210629 0.182017
H37   H     H_    0.688663 0.550287 0.960436 0.149611
H38   H     H_    0.449713 0.688663 0.960436 0.149611
H39   H     H_    0.311337 0.449713 0.960436 0.149611
H40   H     H_    0.060655 0.380541 0.495194 0.167123
H41   H     H_    0.380541 0.939345 0.495193 0.167123
H42   H     H_    0.939345 0.619459 0.495191 0.167123
H43   H     H_    0.619459 0.060655 0.495193 0.167123
H44   H     H_    0.060655 0.619459 0.504809 0.167123
H45   H     H_    0.380541 0.060655 0.504807 0.167123
H46   H     H_    0.939345 0.380541 0.504806 0.167123
H47   H     H_    0.433042 0.931675 0.210629 0.182017
H48   H     H_    0.619459 0.939345 0.504807 0.167123
H49   H     H_    0.560655 0.880541 0.995195 0.167124
H50   H     H_    0.880541 0.439345 0.995196 0.167124
H51   H     H_    0.439345 0.119459 0.995193 0.167123
H52   H     H_    0.119459 0.560655 0.995194 0.167123
H53   H     H_    0.560655 0.119459 0.004807 0.167123
H54   H     H_    0.880541 0.560655 0.004804 0.167124
H55   H     H_    0.439345 0.880541 0.004805 0.167124
H56   H     H_    0.119459 0.439345 0.004806 0.167123
H57   H     H_    0.064131 0.465168 0.106652 0.230832
H58   H     H_    0.931675 0.433041 0.789371 0.182018
H59   H     H_    0.033740 0.407664 0.093931 0.250521
H60   H     H_    0.018478 0.404977 0.150818 0.241408
H61   H     H_    0.067060 0.396190 0.136721 0.228764
H62   H     H_    0.465168 0.935868 0.106652 0.230832
H63   H     H_    0.407664 0.966260 0.093931 0.250521
H64   H     H_    0.404977 0.981521 0.150818 0.241408
H65   H     H_    0.396190 0.932940 0.136721 0.228764
H66   H     H_    0.935868 0.534832 0.106652 0.230831
H67   H     H_    0.966260 0.592336 0.093931 0.250521
H68   H     H_    0.981522 0.595023 0.150818 0.241408
H69   H     H_    0.566958 0.931675 0.789371 0.182017
H70   H     H_    0.932940 0.603810 0.136721 0.228763
H71   H     H_    0.534832 0.064131 0.106652 0.230831
H72   H     H_    0.592336 0.033740 0.093931 0.250521
H73   H     H_    0.595023 0.018479 0.150818 0.241409
H74   H     H_    0.603810 0.067060 0.136721 0.228764
H75   H     H_    0.064131 0.534832 0.893347 0.230832
H76   H     H_    0.033740 0.592336 0.906069 0.250521
H77   H     H_    0.018478 0.595023 0.849182 0.241408
H78   H     H_    0.067060 0.603810 0.863279 0.228764
H79   H     H_    0.465168 0.064132 0.893347 0.230831
H80   H     H_    0.068325 0.566959 0.789371 0.182018
H81   H     H_    0.407664 0.033740 0.906069 0.250521
H82   H     H_    0.404977 0.018479 0.849182 0.241408
H83   H     H_    0.396190 0.067060 0.863279 0.228764
H84   H     H_    0.935868 0.465168 0.893347 0.230832
H85   H     H_    0.966260 0.407664 0.906069 0.250521
H86   H     H_    0.981522 0.404977 0.849182 0.241408
H87   H     H_    0.932940 0.396190 0.863279 0.228763
H88   H     H_    0.534832 0.935868 0.893347 0.230832
H89   H     H_    0.592336 0.966260 0.906069 0.250521
H90   H     H_    0.595023 0.981521 0.849182 0.241408
H91   H     H_    0.433042 0.068325 0.789371 0.182017
H92   H     H_    0.603810 0.932940 0.863279 0.228764
H93   H     H_    0.564132 0.965168 0.606653 0.230831
H94   H     H_    0.533740 0.907664 0.593931 0.250521
H95   H     H_    0.518479 0.904977 0.650818 0.241409
H96   H     H_    0.567060 0.896190 0.636721 0.228764
H97   H     H_    0.965168 0.435868 0.606652 0.230831
H98   H     H_    0.907664 0.466260 0.593931 0.250521
H99   H     H_    0.904977 0.481521 0.650818 0.241408
H100  H     H_    0.896191 0.432939 0.636721 0.228764
H101  H     H_    0.435868 0.034832 0.606653 0.230831
H102  H     H_    0.431675 0.066958 0.710629 0.182017
H103  H     H_    0.466260 0.092336 0.593931 0.250522
H104  H     H_    0.481521 0.095023 0.650818 0.241409
H105  H     H_    0.432940 0.103810 0.636721 0.228764
H106  H     H_    0.034831 0.564132 0.606653 0.230831
H107  H     H_    0.092336 0.533740 0.593931 0.250521
H108  H     H_    0.095023 0.518479 0.650818 0.241409
H109  H     H_    0.103809 0.567060 0.636721 0.228764
H110  H     H_    0.564132 0.034832 0.393347 0.230831
H111  H     H_    0.533740 0.092336 0.406069 0.250522
H112  H     H_    0.518479 0.095023 0.349182 0.241409
N1    N     N_2   0.051421 0.453061 0.133822 -0.305097
N2    N     N_2   0.953061 0.448578 0.633822 -0.305096
N3    N     N_2   0.448578 0.046939 0.633822 -0.305097
N4    N     N_2   0.046939 0.551422 0.633822 -0.305097
N5    N     N_2   0.551422 0.046939 0.366178 -0.305097
N6    N     N_2   0.953061 0.551422 0.366178 -0.305096
N7    N     N_2   0.448578 0.953061 0.366178 -0.305096
N8    N     N_2   0.046939 0.448578 0.366178 -0.305096
N9    N     N_1   0.083242 0.099139 0.562989 -0.188090
N10   N     N_1   0.099139 0.916758 0.562989 -0.188090
N11   N     N_1   0.916758 0.900861 0.562989 -0.188090
N12   N     N_2   0.453061 0.948578 0.133822 -0.305097
N13   N     N_1   0.900861 0.083242 0.562989 -0.188090
N14   N     N_1   0.083242 0.900861 0.437011 -0.188090
N15   N     N_1   0.099139 0.083242 0.437011 -0.188090
N16   N     N_1   0.916758 0.099139 0.437011 -0.188090
N17   N     N_1   0.900861 0.916758 0.437011 -0.188090
N18   N     N_1   0.583242 0.599139 0.062989 -0.188090
N19   N     N_1   0.599139 0.416758 0.062989 -0.188090
N20   N     N_1   0.416758 0.400861 0.062989 -0.188090
N21   N     N_1   0.400861 0.583242 0.062989 -0.188090
N22   N     N_1   0.583242 0.400861 0.937011 -0.188090
N23   N     N_2   0.948579 0.546939 0.133822 -0.305096
N24   N     N_1   0.599139 0.583242 0.937011 -0.188090
N25   N     N_1   0.416758 0.599139 0.937011 -0.188090
N26   N     N_1   0.400861 0.416758 0.937011 -0.188090
N27   N     N_1   0.098612 0.291138 0.492283 -0.192991
N28   N     N_1   0.291138 0.901388 0.492283 -0.192991
N29   N     N_1   0.901388 0.708862 0.492280 -0.192990
N30   N     N_1   0.708862 0.098612 0.492283 -0.192991
N31   N     N_1   0.098612 0.708862 0.507720 -0.192990
N32   N     N_1   0.291138 0.098612 0.507717 -0.192991
N33   N     N_1   0.901388 0.291138 0.507717 -0.192991
N34   N     N_2   0.546939 0.051422 0.133822 -0.305097
N35   N     N_1   0.708862 0.901388 0.507717 -0.192991
N36   N     N_1   0.598612 0.791138 0.992285 -0.192991
N37   N     N_1   0.791138 0.401388 0.992287 -0.192991
N38   N     N_1   0.401388 0.208862 0.992283 -0.192991
N39   N     N_1   0.208862 0.598612 0.992284 -0.192991
N40   N     N_1   0.598612 0.208862 0.007717 -0.192991
N41   N     N_1   0.791138 0.598612 0.007713 -0.192991
N42   N     N_1   0.401388 0.791138 0.007715 -0.192991
N43   N     N_1   0.208862 0.401388 0.007716 -0.192991
N44   N     N_2   0.051421 0.546939 0.866178 -0.305097
N45   N     N_2   0.453061 0.051421 0.866178 -0.305096
N46   N     N_2   0.948579 0.453061 0.866178 -0.305096
N47   N     N_2   0.546939 0.948578 0.866178 -0.305097
N48   N     N_2   0.551422 0.953061 0.633822 -0.305097
O1    O     O_R   0.968680 0.444530 0.500050 -0.627899
O2    O     O_R   0.944530 0.531320 0.000050 -0.627900
O3    O     O_R   0.531320 0.055470 0.000050 -0.627900
O4    O     O_R   0.055470 0.468680 0.000050 -0.627899
O5    O     O_R   0.468680 0.055470 0.999950 -0.627899
O6    O     O_R   0.944530 0.468680 0.999950 -0.627899
O7    O     O_R   0.531320 0.944530 0.999950 -0.627900
O8    O     O_R   0.055470 0.531320 0.999950 -0.627900
O9    O     O_R   0.968670 0.499990 0.433970 -0.616177
O10   O     O_R   0.499990 0.031330 0.433970 -0.616177
O11   O     O_R   0.031330 0.500010 0.433970 -0.616177
O12   O     O_R   0.444530 0.031320 0.500050 -0.627900
O13   O     O_R   0.500010 0.968670 0.433970 -0.616177
O14   O     O_R   0.968670 0.500010 0.566030 -0.616177
O15   O     O_R   0.499990 0.968670 0.566030 -0.616177
O16   O     O_R   0.031330 0.499990 0.566030 -0.616177
O17   O     O_R   0.500010 0.031330 0.566030 -0.616178
O18   O     O_R   0.468670 0.999990 0.933970 -0.616177
O19   O     O_R   0.999990 0.531330 0.933970 -0.616177
O20   O     O_R   0.531330 0.000010 0.933970 -0.616177
O21   O     O_R   0.000010 0.468670 0.933970 -0.616177
O22   O     O_R   0.468670 0.000010 0.066030 -0.616177
O23   O     O_R   0.031320 0.555470 0.500050 -0.627900
O24   O     O_R   0.999990 0.468670 0.066030 -0.616177
O25   O     O_R   0.531330 0.999990 0.066030 -0.616177
O26   O     O_R   0.000010 0.531330 0.066030 -0.616177
O27   O     O_R   0.055290 0.999950 0.462720 -0.607384
O28   O     O_R   0.999950 0.944710 0.462720 -0.607384
O29   O     O_R   0.944710 0.000050 0.462720 -0.607384
O30   O     O_R   0.000050 0.055290 0.462720 -0.607384
O31   O     O_R   0.055290 0.000050 0.537280 -0.607385
O32   O     O_R   0.999950 0.055290 0.537280 -0.607385
O33   O     O_R   0.944710 0.999950 0.537280 -0.607385
O34   O     O_R   0.555470 0.968680 0.500050 -0.627899
O35   O     O_R   0.000050 0.944710 0.537280 -0.607385
O36   O     O_R   0.555290 0.499950 0.962720 -0.607384
O37   O     O_R   0.499950 0.444710 0.962720 -0.607384
O38   O     O_R   0.444710 0.500050 0.962720 -0.607384
O39   O     O_R   0.500050 0.555290 0.962720 -0.607384
O40   O     O_R   0.555290 0.500050 0.037280 -0.607385
O41   O     O_R   0.499950 0.555290 0.037280 -0.607385
O42   O     O_R   0.444710 0.499950 0.037280 -0.607385
O43   O     O_R   0.500050 0.444710 0.037280 -0.607385
O44   O     O_R   0.968680 0.555470 0.499950 -0.627899
O45   O     O_R   0.444530 0.968680 0.499950 -0.627899
O46   O     O_R   0.031320 0.444530 0.499950 -0.627900
O47   O     O_R   0.555470 0.031320 0.499950 -0.627900
O48   O     O_R   0.468680 0.944530 0.000050 -0.627899
Zn1   Zn    Zn3+2 0.958180 0.500000 0.500000 0.934293
Zn2   Zn    Zn3+2 0.000000 0.000000 0.549780 1.014147
Zn3   Zn    Zn3+2 0.500000 0.500000 0.950220 1.014147
Zn4   Zn    Zn3+2 0.500000 0.500000 0.049780 1.014147
Zn5   Zn    Zn3+2 0.500000 0.041820 0.500000 0.934293
Zn6   Zn    Zn3+2 0.041820 0.500000 0.500000 0.934293
Zn7   Zn    Zn3+2 0.500000 0.958180 0.500000 0.934293
Zn8   Zn    Zn3+2 0.458180 0.000000 0.000000 0.934293
Zn9   Zn    Zn3+2 0.000000 0.541820 0.000000 0.934293
Zn10  Zn    Zn3+2 0.541820 0.000000 0.000000 0.934293
Zn11  Zn    Zn3+2 0.000000 0.458180 0.000000 0.934293
Zn12  Zn    Zn3+2 1.000000 1.000000 0.450220 1.014147

loop_
_geom_bond_atom_site_label_1
_geom_bond_atom_site_label_2
_ccdc_geom_bond_type
C200  C218  A    
C204  H42   S    
C115  H60   S    
C79   C85   A    
C205  O6    A    
C244  O42   A    
C18   C47   A    
C237  O31   A    
C150  C185  S    
C24   C104  A    
C41   C67   A    
C75   H19   S    
C1    O1    A    
C120  H81   S    
C117  N23   S    
C72   H13   S    
O41   Zn4   S    
O34   Zn7   S    
O29   Zn12  S    
C50   C59   A    
C135  C173  S    
C247  O10   A    
O9    Zn1   S    
C194  O7    A    
C82   H26   S    
O2    Zn9   S    
C87   C124  A    
C92   C109  A    
C193  C211  A    
C17   N48   S    
C242  O40   A    
C125  H100  S    
C94   C111  A    
C8    C26   A    
C91   H34   S    
C112  C221  S    
C36   C53   A    
C4    O20   A    
C20   C44   A    
C5    O21   A    
C57   C109  A    
C163  C198  S    
C78   C96   A    
C219  H56   S    
C21   N5    S    
C23   N7    S    
O1    Zn1   S    
C241  O30   A    
C85   C103  A    
C93   C110  A    
C131  H14   S    
C187  C231  A    
H12   N8    S    
C70   H102  S    
C7    O24   A    
C153  N30   T    
C39   C65   A    
O21   Zn11  S    
C217  H54   S    
C152  C187  S    
C36   C62   A    
C211  H49   S    
C37   C63   A    
C197  C236  A    
C106  C142  S    
C38   C64   A    
C239  O28   A    
C35   C245  S    
O32   Zn2   S    
C48   C74   A    
C115  N1    S    
C201  C219  A    
C138  N15   T    
C227  O8    A    
C118  H72   S    
C187  C204  A    
C34   C61   A    
C216  C226  S    
C140  N17   T    
C104  C140  S    
O26   Zn9   S    
C190  C230  A    
O14   Zn1   S    
O15   Zn7   S    
C185  C202  A    
C122  H90   S    
C158  C192  S    
C42   C55   A    
C239  O35   A    
C227  C228  S    
C238  C241  S    
C11   C27   A    
C40   C55   A    
C33   C246  S    
O7    Zn10  S    
C15   C39   A    
C16   C40   A    
C139  N16   T    
C154  C189  S    
C83   C100  A    
C46   C110  A    
C129  N6    S    
H71   N34   S    
O16   Zn6   S    
C149  N26   T    
O45   Zn7   S    
C107  C143  S    
C108  C144  S    
C120  H83   S    
C159  N36   T    
O31   Zn2   S    
C89   H33   S    
O3    Zn10  S    
C109  C145  S    
C88   C135  A    
C22   N6    S    
C152  N29   T    
C246  O9    A    
C113  C170  S    
C186  C230  A    
C196  C235  A    
C150  N27   T    
C92   H35   S    
C203  H41   S    
C215  C226  A    
C16   C29   A    
H93   N48   S    
C111  C148  S    
C38   C53   A    
C146  C174  S    
C99   C136  S    
C15   N46   S    
C69   C70   A    
C246  O11   A    
C241  O32   A    
C100  C137  S    
C127  H109  S    
C81   C98   A    
H75   N44   S    
C154  N31   T    
C79   C167  S    
C19   C30   A    
C183  O47   A    
C197  C214  A    
C7    O26   A    
C151  C186  S    
C69   H91   S    
C80   C97   A    
C84   C102  A    
C97   C133  S    
C86   C104  A    
C174  C182  T    
C13   C239  S    
C81   C101  A    
C7    C26   S    
C115  H61   S    
C17   C45   A    
O20   Zn10  S    
O12   Zn5   S    
O17   Zn5   S    
O19   Zn9   S    
O38   Zn3   S    
C39   C54   A    
C2    C102  A    
C10   N23   S    
C216  O3    A    
C112  O45   A    
H106  N4    S    
C202  C220  A    
C52   C60   A    
C128  N5    S    
C181  C234  S    
C61   C77   A    
H62   N12   S    
H97   N2    S    
C49   C75   A    
C195  C234  A    
C213  C226  A    
C205  O2    A    
C237  O27   A    
C164  C199  S    
C121  H85   S    
H66   N23   S    
C160  N37   T    
O5    Zn8   S    
C84   C90   A    
C83   H27   S    
C66   H69   S    
C130  H10   S    
C63   H36   S    
C131  H15   S    
C183  C223  S    
C127  H108  S    
C126  H104  S    
C128  H3    S    
C92   C146  A    
C126  H105  S    
C147  N24   T    
C200  C233  A    
C45   C56   A    
C165  C200  S    
C177  C230  S    
C37   C52   A    
C243  O43   A    
C201  C236  A    
C81   H24   S    
O33   Zn2   S    
C35   C105  A    
C161  N38   T    
C144  N21   T    
C1    O46   A    
C87   C105  A    
C191  C229  A    
O40   Zn4   S    
C210  H48   S    
C101  C169  S    
C137  N14   T    
C191  C209  A    
C129  H5    S    
C136  N13   T    
C76   H20   S    
O10   Zn5   S    
C77   H21   S    
C31   C248  S    
C143  N20   T    
C14   C29   A    
C121  N46   S    
C48   C59   A    
C117  H67   S    
C159  C193  S    
C83   C101  A    
C25   N8    S    
C90   C168  S    
C95   C157  A    
C96   C238  A    
C115  H59   S    
C82   C113  A    
C93   C135  A    
C24   C240  S    
C2    C237  S    
C18   C31   A    
C119  H78   S    
C120  H82   S    
C164  N41   T    
O36   Zn3   S    
C172  O23   A    
C170  C179  T    
C179  C232  S    
C248  O14   A    
C195  C212  A    
H101  N3    S    
C93   H37   S    
C126  N3    S    
C63   C75   A    
C103  C238  A    
C95   H39   S    
C155  N32   T    
C46   C106  A    
C9    C38   A    
C186  C203  A    
C1    C220  S    
C86   H30   S    
C130  N7    S    
C172  C222  S    
C65   H58   S    
C121  H87   S    
C156  C191  S    
C61   H1    S    
C3    O17   A    
C51   C60   A    
C119  N44   S    
C218  H55   S    
C25   C33   A    
C55   C56   A    
C17   C30   A    
O46   Zn6   S    
C82   C99   A    
C169  C178  T    
C199  C217  A    
C207  H44   S    
C5    O19   A    
C123  H96   S    
O37   Zn3   S    
O8    Zn9   S    
O35   Zn2   S    
C188  C206  A    
C12   C28   A    
C86   C113  A    
C212  H50   S    
C162  N39   T    
C172  O44   A    
C117  H70   S    
C95   C114  A    
C168  C177  T    
O47   Zn5   S    
H4    N6    S    
C240  O33   A    
C184  C236  S    
C9    N12   S    
C129  H7    S    
C2    C97   A    
C44   C58   A    
C209  H46   S    
C205  C225  S    
C133  N10   T    
C4    C29   S    
C122  N47   S    
C12   N44   S    
C173  C181  T    
O48   Zn8   S    
C40   C66   A    
O22   Zn8   S    
C62   C76   A    
O39   Zn3   S    
C198  C215  A    
C193  C233  A    
C19   C43   A    
C16   N47   S    
C215  H53   S    
C145  N22   T    
C32   C247  S    
C248  O16   A    
C128  H112  S    
C244  O38   A    
C158  N35   T    
C118  N34   S    
O27   Zn12  S    
C156  N33   T    
C166  C201  S    
O25   Zn10  S    
C51   C77   A    
O18   Zn8   S    
C12   C41   A    
C155  C190  S    
C116  H65   S    
O42   Zn4   S    
C8    N1    S    
C89   C107  A    
O30   Zn12  S    
C3    O15   A    
C87   H31   S    
C88   H32   S    
C47   C73   A    
C120  N45   S    
C73   H17   S    
C182  C235  S    
C160  C195  S    
C11   N34   S    
C151  N28   T    
C123  H95   S    
C245  O41   A    
C8    C37   A    
C46   C242  S    
C208  H45   S    
C9    C27   A    
C67   H80   S    
C123  H94   S    
O6    Zn11  S    
C192  C232  A    
C210  C223  A    
C204  C222  A    
C91   C108  A    
C116  N12   S    
C218  C224  A    
C125  N2    S    
C153  C188  S    
C185  C229  A    
C34   C52   A    
C148  N25   T    
C198  C235  A    
C80   H23   S    
C23   C32   A    
C122  H89   S    
C178  C231  S    
C57   C243  S    
C15   C28   A    
C124  C171  S    
C189  C207  A    
C118  H74   S    
C211  C224  A    
C64   H47   S    
C67   C71   A    
C78   H22   S    
C112  O12   A    
C25   C49   A    
C91   C157  A    
C242  O36   A    
C161  C196  S    
C183  O34   A    
C64   C74   A    
H110  N5    S    
C6    O22   A    
C114  C149  S    
O44   Zn1   S    
C188  C232  A    
C175  C184  T    
H88   N47   S    
C18   N2    S    
C165  N42   T    
C24   C99   A    
C247  O13   A    
C163  N40   T    
C130  H11   S    
C53   C59   A    
C94   H38   S    
C127  H107  S    
C141  N18   T    
C162  C197  S    
C240  O29   A    
C11   C36   A    
C189  C231  A    
C50   C76   A    
C6    O25   A    
C105  C141  S    
C134  N11   T    
C176  C229  S    
C171  C180  T    
C125  H99   S    
C65   C73   A    
C203  C221  A    
C44   C71   A    
C102  C138  S    
C13   C98   A    
O28   Zn12  S    
C123  N48   S    
C66   C72   A    
C214  C228  A    
C71   H2    S    
C14   C42   A    
C227  O4    A    
C10   C26   A    
C216  O5    A    
O4    Zn11  S    
C14   N45   S    
C21   C50   A    
C128  H111  S    
C89   C146  A    
C21   C32   A    
C199  C234  A    
C118  H73   S    
C78   C79   A    
H57   N1    S    
O43   Zn4   S    
C208  C221  A    
C119  H77   S    
C42   C69   A    
C20   N4    S    
C62   H25   S    
C19   N3    S    
C3    C30   S    
C116  H63   S    
C103  C139  S    
C5    C28   S    
C88   C106  A    
C6    C27   S    
H84   N46   S    
C206  C223  A    
C192  C210  A    
C125  H98   S    
C49   C60   A    
C10   C34   A    
H8    N7    S    
O13   Zn7   S    
C213  H51   S    
C4    O18   A    
C121  H86   S    
C157  C175  S    
C214  H52   S    
C116  H64   S    
C190  C208  A    
C57   C107  A    
C43   C70   A    
C219  C228  A    
C166  N43   T    
C212  C225  A    
C110  C147  S    
C243  O37   A    
C132  N9    T    
C130  H9    S    
C35   C111  A    
C194  C224  S    
C131  H16   S    
C54   C58   A    
C22   C33   A    
C126  H103  S    
C23   C48   A    
C209  C220  A    
C194  O48   A    
C180  C233  S    
C202  H40   S    
C245  O39   A    
C98   C134  S    
O11   Zn6   S    
O24   Zn11  S    
C96   C132  S    
C131  N8    S    
C13   C100  A    
C84   H28   S    
C206  H43   S    
C47   C58   A    
C196  C213  A    
C74   H18   S    
C127  N4    S    
H79   N45   S    
C68   C244  S    
C85   H29   S    
C80   C90   A    
C122  H92   S    
C41   C54   A    
C43   C56   A    
C129  H6    S    
C207  C222  A    
C119  H76   S    
C217  C225  A    
C167  C176  T    
C142  N19   T    
C68   C108  A    
O23   Zn6   S    
C117  H68   S    
C68   C114  A    
C22   C51   A    
C45   C72   A    
C20   C31   A    
C94   C124  A    
