data_mof_unit_56501.cif
_audit_creation_date              2013-03-05T16:41:15-0500
_audit_creation_method            fapswitch 2.2
_symmetry_space_group_name_H-M    P1
_symmetry_Int_Tables_number       1
_space_group_crystal_system       triclinic
_cell_length_a                    10.700976
_cell_length_b                    10.702531
_cell_length_c                    9.879702
_cell_angle_alpha                 89.474263
_cell_angle_beta                  90.723197
_cell_angle_gamma                 90.192691
_cell_volume                      1131.35411163

loop_
_atom_site_label
_atom_site_type_symbol
_atom_site_description
_atom_site_fract_x
_atom_site_fract_y
_atom_site_fract_z
_atom_type_partial_charge
O1    O     O_R   0.500020 0.316790 0.614690 -0.605373
O2    O     O_R   0.500000 0.316760 0.385350 -0.631755
C1    C     C_R   0.503016 0.259886 0.500441 0.936927
O3    O     O_R   0.319080 0.500020 0.614640 -0.614804
O4    O     O_R   0.319070 0.499980 0.385300 -0.588610
C2    C     C_R   0.262533 0.499821 0.499193 0.955189
Zn1   Zn    Zn3+2 0.500010 0.500020 0.653130 0.961468
Zn2   Zn    Zn3+2 0.499990 0.499980 0.346870 0.966419
O5    O     O_R   0.500000 0.683240 0.614650 -0.617437
O6    O     O_R   0.499980 0.683210 0.385310 -0.628704
O7    O     O_R   0.680930 0.500020 0.614700 -0.631204
O8    O     O_R   0.680920 0.499980 0.385360 -0.625747
C3    C     C_R   0.504251 0.739871 0.499530 0.869024
C4    C     C_R   0.737379 0.506446 0.500858 0.936172
C5    C     C_2   0.932437 0.543890 0.390504 -0.114538
C6    C     C_2   0.868438 0.528579 0.504426 -0.358797
H1    H     H_    0.886621 0.548070 0.291818 0.185593
H2    H     H_    0.911852 0.536031 0.603925 0.157054
C7    C     C_2   0.067147 0.551391 0.395859 -0.069524
C8    C     C_2   0.130323 0.496573 0.497279 -0.290370
H3    H     H_    0.114949 0.597730 0.312935 0.194774
H4    H     H_    0.086213 0.446200 0.579667 0.151003
C9    C     C_R   0.520339 0.061816 0.622949 0.093959
C10   C     C_R   0.521059 0.128226 0.501085 -0.054603
C11   C     C_R   0.545547 0.065841 0.379769 -0.214354
H5    H     H_    0.555621 0.115800 0.284631 0.169239
C12   C     C_R   0.546713 0.936516 0.379122 -0.209557
H6    H     H_    0.557011 0.888764 0.283703 0.170276
C13   C     C_R   0.523825 0.871124 0.499883 -0.063767
C14   C     C_R   0.522677 0.934293 0.622244 0.050139
C15   C     C_3   0.434591 0.922152 0.737740 -0.495269
C16   C     C_3   0.430908 0.063769 0.738296 0.230063
H7    H     H_    0.344418 0.877202 0.708412 0.226198
H8    H     H_    0.480801 0.881679 0.829460 0.173534
H9    H     H_    0.471253 0.106311 0.831421 0.087633
C17   C     C_R   0.391974 0.478154 0.070063 0.158038
N1    N     N_R   0.499170 0.499140 0.142800 -0.135770
C18   C     C_R   0.603778 0.533044 0.072886 -0.127944
H10   H     H_    0.688241 0.558073 0.127449 0.157007
C19   C     C_R   0.603773 0.533053 0.929154 -0.125545
H11   H     H_    0.688222 0.557945 0.876216 0.159795
N2    N     N_R   0.499170 0.499180 0.857150 -0.109757
C20   C     C_R   0.392205 0.478228 0.927336 0.187439
C21   C     C_3   0.314568 0.363018 0.919537 -0.550982
C22   C     C_3   0.314898 0.361331 0.073412 0.096210
H12   H     H_    0.222024 0.380603 0.870774 0.243079
H13   H     H_    0.367195 0.284742 0.876268 0.199545
H14   H     H_    0.364746 0.280110 0.119804 0.117147
N3    N     N_R   0.190733 0.381399 0.129287 0.239768
O9    O     O_R   0.147987 0.304343 0.220259 -0.378482
O10   O     O_R   0.119916 0.471996 0.084837 -0.434585
O11   O     O_3   0.313670 0.110503 0.698467 -0.735316
H15   H     H_    0.258990 0.099375 0.778062 0.340104

loop_
_geom_bond_atom_site_label_1
_geom_bond_atom_site_label_2
_geom_bond_distance
_ccdc_geom_bond_type
O4    Zn2   1.977595 S    
C18   C19   1.420029 A    
C9    C10   1.392581 A    
C15   H7    1.113053 S    
C10   C11   1.405274 A    
C19   H11   1.081156 S    
C13   C14   1.390711 A    
C11   C12   1.384281 A    
C2    C8    1.414974 S    
C9    C14   1.365223 A    
C15   C16   1.516366 S    
C21   H13   1.103420 S    
C22   N3    1.462496 S    
C14   C15   1.493664 S    
Zn2   O8    1.968403 S    
C9    C16   1.497683 S    
C19   N2    1.368335 A    
O2    C1    1.284896 A    
O8    C4    1.286722 A    
C15   H8    1.111849 S    
C17   C22   1.495867 S    
C6    H2    1.085436 S    
O1    Zn1   2.000879 S    
C21   C22   1.520141 S    
Zn1   O7    1.977596 S    
C1    C10   1.422855 S    
N1    C18   1.368952 A    
O3    Zn1   1.968403 S    
O3    C2    1.284406 A    
C17   N1    1.364962 A    
C7    H3    1.086377 S    
C21   H12   1.111662 S    
C20   C21   1.486530 S    
O4    C2    1.284260 A    
O7    C4    1.284546 A    
C4    C6    1.421595 S    
Zn1   N2    2.015728 S    
C12   C13   1.401475 A    
N2    C20   1.362621 A    
C5    C6    1.333413 D    
C16   H9    1.111990 S    
Zn1   O5    1.994002 S    
C18   H10   1.080746 S    
O11   H15   0.992155 S    
Zn2   O6    2.000879 S    
N3    O9    1.300537 A    
Zn2   N1    2.016162 S    
C22   H14   1.113501 S    
C3    C13   1.419601 S    
C12   H6    1.083453 S    
C5    H1    1.086400 S    
O5    C3    1.285092 A    
C16   O11   1.402532 S    
C17   C20   1.410132 A    
O1    C1    1.288279 A    
C11   H5    1.083488 S    
C5    C7    1.443820 S    
O2    Zn2   1.994004 S    
C7    C8    1.334179 D    
C8    H4    1.084408 S    
N3    O10   1.302310 A    
O6    C3    1.286208 A    
