data_mof_unit_44061.cif
_audit_creation_date              2012-12-10T17:58:17-0500
_audit_creation_method            fapswitch 2.2
_symmetry_space_group_name_H-M    P1
_symmetry_Int_Tables_number       1
_space_group_crystal_system       triclinic
_cell_length_a                    9.530428
_cell_length_b                    10.831014
_cell_length_c                    15.406395
_cell_angle_alpha                 89.632306
_cell_angle_beta                  74.80306
_cell_angle_gamma                 89.860854
_cell_volume                      1534.66827395

loop_
_atom_site_label
_atom_site_type_symbol
_atom_type_description
_atom_site_fract_x
_atom_site_fract_y
_atom_site_fract_z
_atom_type_partial_charge
C1    C     C_R   0.000005 0.262197 0.500190 0.952360
C2    C     C_R   0.999990 0.737801 0.499826 0.952516
C3    C     C_R   0.568898 0.584935 0.088335 -0.233389
C4    C     C_R   0.420181 0.465109 0.904762 -0.233955
C5    C     C_R   0.713283 0.606710 0.043926 0.735437
C6    C     C_R   0.275278 0.445255 0.948767 0.737576
C7    C     C_R   0.870476 0.063812 0.537367 0.512085
C8    C     C_R   0.129520 0.936179 0.462678 0.512901
C9    C     C_R   0.870354 0.935991 0.537061 0.509833
C10   C     C_R   0.129645 0.063998 0.462993 0.510420
C11   C     C_R   0.999884 0.871625 0.499758 -0.483312
C12   C     C_R   0.000111 0.128368 0.500282 -0.484238
C13   C     C_R   0.550160 0.426851 0.558509 -0.048064
C14   C     C_R   0.449817 0.573212 0.441532 -0.046012
C15   C     C_R   0.401007 0.426626 0.558786 0.303898
C16   C     C_R   0.598957 0.573488 0.441284 0.304416
C17   C     C_R   0.918719 0.502464 0.672307 0.869409
C18   C     C_R   0.081310 0.498676 0.327573 0.872423
C19   C     C_R   0.874157 0.517532 0.770442 -0.259833
C20   C     C_R   0.125410 0.492859 0.228699 -0.261876
C21   C     C_R   0.913710 0.598850 0.907996 0.681315
C22   C     C_R   0.078235 0.440511 0.086501 0.670016
C23   C     C_R   0.966398 0.570728 0.817118 0.573033
C24   C     C_R   0.028760 0.455991 0.179204 0.557282
C25   C     C_R   0.730629 0.489896 0.815980 -0.245987
C26   C     C_R   0.270149 0.518321 0.184021 -0.250683
C27   C     C_R   0.671972 0.522948 0.906417 -0.022165
C28   C     C_R   0.322705 0.506701 0.090172 -0.022925
C29   C     C_R   0.766946 0.575983 0.953259 -0.196850
C30   C     C_R   0.224811 0.464277 0.041396 -0.199184
C31   C     C_R   0.521776 0.505355 0.951009 0.035419
C32   C     C_R   0.470782 0.532011 0.044290 0.040658
Cu1   Cu    Cu3+1 0.140660 0.500020 0.500000 1.074490
Cu2   Cu    Cu3+1 0.859340 0.499980 0.500000 1.072950
H1    H     H_    0.340965 0.543279 0.225016 0.192299
H2    H     H_    0.667034 0.442477 0.778367 0.187317
H3    H     H_    0.537098 0.614797 0.157200 0.161456
H4    H     H_    0.447714 0.450500 0.833273 0.163029
H5    H     H_    0.587149 0.368231 0.605210 0.169879
H6    H     H_    0.412806 0.631893 0.394872 0.169464
N1    N     N_R   0.352080 0.500030 0.499980 -0.165709
N2    N     N_R   0.647920 0.499970 0.500020 -0.166125
O1    O     O_R   0.118740 0.319660 0.500000 -0.525165
O2    O     O_R   0.881260 0.680340 0.500000 -0.525876
O3    O     O_R   0.881170 0.319630 0.500010 -0.541230
O4    O     O_R   0.118830 0.680370 0.499990 -0.539775
O5    O     O_R   0.055570 0.500030 0.629830 -0.517152
O6    O     O_R   0.944430 0.499970 0.370170 -0.517583
O7    O     O_R   0.818000 0.500000 0.629840 -0.600845
O8    O     O_R   0.182000 0.500000 0.370160 -0.601734
F1    F     F_    0.800096 0.658611 0.090911 -0.589651
F2    F     F_    0.185252 0.405123 0.899627 -0.595025
F3    F     F_    0.887835 0.429448 0.220633 -0.599928
F4    F     F_    0.106035 0.599856 0.774367 -0.592688
F5    F     F_    0.005939 0.652164 0.950534 -0.560689
F6    F     F_    0.982673 0.399025 0.041669 -0.569482
F7    F     F_    0.744593 0.124051 0.575994 -0.595503
F8    F     F_    0.255402 0.875942 0.424044 -0.595156
F9    F     F_    0.744387 0.875514 0.575368 -0.573848
F10   F     F_    0.255620 0.124470 0.424699 -0.573150
N3    N     N_3   0.301136 0.349032 0.620774 -0.489048
H7    H     H_    0.337230 0.257847 0.609493 0.244467
H8    H     H_    0.304694 0.372815 0.685839 0.247182
N4    N     N_3   0.698729 0.651382 0.379480 -0.486466
H9    H     H_    0.662684 0.742528 0.391146 0.244785
H10   H     H_    0.694893 0.628165 0.314367 0.251991

loop_
_geom_bond_atom_site_label_1
_geom_bond_atom_site_label_2
_ccdc_geom_bond_type
C10   F10   S    
C27   C29   A    
C22   C30   A    
C26   C28   A    
C31   C32   A    
Cu2   N2    S    
C24   F3    S    
C3    C5    A    
Cu1   N1    S    
N4    H9    S    
C28   C30   A    
Cu1   Cu2   S    
C15   N3    S    
Cu2   O2    S    
Cu2   O3    S    
C25   H2    S    
C6    C30   A    
C2    O4    A    
Cu1   O4    S    
C9    C11   A    
C8    F8    S    
C1    O3    A    
C3    C32   A    
C1    C12   S    
C20   C26   A    
C8    C11   A    
Cu1   O5    S    
C2    C11   S    
C10   C12   A    
C22   C24   A    
C8    C10   A    
C13   N2    A    
C17   C19   S    
C14   H6    S    
C7    F7    S    
C18   C20   S    
C13   C15   A    
C21   C23   A    
N3    H7    S    
C19   C25   A    
C14   N1    A    
C14   C16   A    
C7    C12   A    
C13   H5    S    
C4    C31   A    
C25   C27   A    
C15   N1    A    
C27   C31   A    
Cu1   O1    S    
C5    C29   A    
C16   N2    A    
C26   H1    S    
C28   C32   A    
Cu2   O6    S    
C18   O8    A    
C23   F4    S    
C21   F5    S    
C4    C6    A    
C17   O7    A    
C7    C9    A    
C20   C24   A    
C19   C23   A    
C5    F1    S    
Cu2   O7    S    
C22   F6    S    
N4    H10   S    
C16   N4    S    
C6    F2    S    
Cu1   O8    S    
C4    H4    S    
C21   C29   A    
C1    O1    A    
N3    H8    S    
C17   O5    A    
C3    H3    S    
C2    O2    A    
C9    F9    S    
C18   O6    A    
