data_mof_unit_31678.cif
_audit_creation_date              2012-12-10T17:57:25-0500
_audit_creation_method            fapswitch 2.2
_symmetry_space_group_name_H-M    P1
_symmetry_Int_Tables_number       1
_space_group_crystal_system       triclinic
_cell_length_a                    9.510916
_cell_length_b                    10.831129
_cell_length_c                    13.455658
_cell_angle_alpha                 90.363763
_cell_angle_beta                  72.548737
_cell_angle_gamma                 90.118231
_cell_volume                      1322.29410639

loop_
_atom_site_label
_atom_site_type_symbol
_atom_type_description
_atom_site_fract_x
_atom_site_fract_y
_atom_site_fract_z
_atom_type_partial_charge
C1    C     C_R   0.499778 0.737828 0.500907 0.809897
C2    C     C_R   0.433229 0.510061 0.979619 0.082701
C3    C     C_R   0.468211 0.542559 0.873013 0.090252
C4    C     C_R   0.541271 0.528976 0.032096 0.074394
C5    C     C_R   0.676602 0.588054 0.979891 0.169701
C6    C     C_R   0.700617 0.632258 0.879283 -0.250275
C7    C     C_R   0.596510 0.612410 0.827595 -0.205514
C8    C     C_R   0.519338 0.490833 0.134976 -0.244005
C9    C     C_R   0.757923 0.570735 0.133557 -0.203531
C10   C     C_R   0.372684 0.505758 0.815007 -0.104095
C11   C     C_R   0.631713 0.936428 0.480651 -0.187235
C12   C     C_R   0.421163 0.504934 0.700238 0.773574
C13   C     C_R   0.630636 0.064074 0.481026 -0.249736
C14   C     C_R   0.496517 0.128014 0.505280 -0.128717
C15   C     C_R   0.361841 0.062630 0.532809 0.443588
C16   C     C_R   0.364278 0.934536 0.529540 -0.265777
C17   C     C_R   0.498723 0.871422 0.503579 -0.084624
C18   C     C_R   0.900844 0.583034 0.559214 -0.010634
C19   C     C_R   0.049428 0.582529 0.559705 -0.039381
C20   C     C_R   0.099578 0.417501 0.440135 0.003013
C21   C     C_R   0.950615 0.417388 0.440312 -0.028297
C22   C     C_R   0.498864 0.262039 0.501778 0.813885
C23   C     C_R   0.578664 0.501315 0.299997 0.800324
C24   C     C_R   0.784900 0.605763 0.030149 -0.201204
C25   C     C_R   0.623000 0.516569 0.186984 -0.049254
C26   C     C_R   0.233506 0.456877 0.866966 -0.203712
C27   C     C_R   0.192155 0.437781 0.973639 -0.158054
C28   C     C_R   0.291204 0.461178 0.029369 -0.182899
Cu1   Cu    Cu3+1 0.359340 0.499980 0.500000 0.950297
Cu2   Cu    Cu3+1 0.640660 0.500020 0.500000 0.937597
H1    H     H_    0.839440 0.591021 0.172883 0.156472
H2    H     H_    0.735060 0.112575 0.460743 0.171066
H3    H     H_    0.260610 0.884935 0.548476 0.158062
H4    H     H_    0.825516 0.650355 0.605863 0.109515
H5    H     H_    0.085460 0.648608 0.607579 0.114990
H6    H     H_    0.175859 0.351446 0.392184 0.133143
H7    H     H_    0.914579 0.351311 0.392446 0.117518
H8    H     H_    0.800031 0.683111 0.840452 0.135007
H9    H     H_    0.888568 0.650245 0.990442 0.139070
H10   H     H_    0.420979 0.442598 0.177769 0.140773
H11   H     H_    0.157537 0.430177 0.824652 0.157387
H12   H     H_    0.251613 0.442185 0.111531 0.123308
H13   H     H_    0.084071 0.400704 0.012989 0.145716
H14   H     H_    0.616241 0.655451 0.752586 0.155942
H15   H     H_    0.736635 0.888784 0.460604 0.162935
N1    N     N_R   0.147940 0.499970 0.499970 -0.164510
N2    N     N_R   0.852060 0.500060 0.499990 -0.157506
O1    O     O_R   0.381250 0.680340 0.500010 -0.585752
O2    O     O_R   0.618820 0.680370 0.500010 -0.595659
O3    O     O_R   0.323240 0.499950 0.650980 -0.588961
O4    O     O_R   0.560810 0.499980 0.650980 -0.577291
O5    O     O_R   0.381180 0.319630 0.499990 -0.537007
O6    O     O_R   0.618750 0.319660 0.499990 -0.591900
O7    O     O_R   0.439190 0.500020 0.349020 -0.583472
O8    O     O_R   0.676760 0.500050 0.349020 -0.586428
O9    O     O_3   0.227580 0.122893 0.558142 -0.573350
C29   C     C_3   0.175108 0.137460 0.667444 0.069441
H16   H     H_    0.258342 0.183941 0.698281 0.130771
H17   H     H_    0.146051 0.046139 0.705766 0.129642
C30   C     C_3   0.037360 0.217522 0.695511 -0.753674
H18   H     H_    0.993438 0.227666 0.781473 0.187431
H19   H     H_    0.064238 0.310536 0.660710 0.260752
H20   H     H_    0.951612 0.174421 0.665845 0.244292

loop_
_geom_bond_atom_site_label_1
_geom_bond_atom_site_label_2
_ccdc_geom_bond_type
C12   O3    A    
Cu2   O4    S    
C6    H8    S    
C9    C24   A    
C23   O8    A    
C6    C7    A    
C16   H3    S    
C11   C13   A    
Cu2   O8    S    
C13   H2    S    
C1    C17   S    
Cu1   N1    S    
C4    C8    A    
C15   O9    S    
C14   C22   S    
C2    C3    A    
C29   H16   S    
C19   N1    A    
C9    C25   A    
C1    O1    A    
C3    C10   A    
C19   H5    S    
C13   C14   A    
C18   N2    A    
C8    C25   A    
C18   H4    S    
C10   C26   A    
C26   C27   A    
Cu1   Cu2   S    
C5    C24   A    
C10   C12   S    
C30   H20   S    
C2    C4    A    
C22   O5    A    
Cu2   O2    S    
C22   O6    A    
C3    C7    A    
Cu1   O3    S    
C23   C25   S    
C5    C6    A    
Cu2   O6    S    
C20   N1    A    
C11   H15   S    
C29   H17   S    
Cu1   O7    S    
C9    H1    S    
Cu1   O1    S    
C15   C16   A    
C20   H6    S    
C27   H13   S    
Cu2   N2    S    
C4    C5    A    
C12   O4    A    
C21   H7    S    
O9    C29   S    
C23   O7    A    
C30   H19   S    
C18   C19   A    
C28   H12   S    
C27   C28   A    
C14   C15   A    
C30   H18   S    
C29   C30   S    
C2    C28   A    
C8    H10   S    
C20   C21   A    
C7    H14   S    
C1    O2    A    
C24   H9    S    
C11   C17   A    
C26   H11   S    
C16   C17   A    
C21   N2    A    
Cu1   O5    S    
