data_mof_unit_30532.cif
_audit_creation_date              2012-12-11T14:54:24-0500
_audit_creation_method            fapswitch 2.2
_symmetry_space_group_name_H-M    P1
_symmetry_Int_Tables_number       1
_space_group_crystal_system       triclinic
_cell_length_a                    18.821974
_cell_length_b                    10.979962
_cell_length_c                    18.837342
_cell_angle_alpha                 89.789984
_cell_angle_beta                  89.833293
_cell_angle_gamma                 90.000338
_cell_volume                      3892.96835102

loop_
_atom_site_label
_atom_site_type_symbol
_atom_type_description
_atom_site_fract_x
_atom_site_fract_y
_atom_site_fract_z
_atom_type_partial_charge
C1    C     C_R   0.732132 0.382798 0.648218 0.515991
C2    C     C_R   0.268044 0.382455 0.352004 0.535286
C3    C     C_R   0.232131 0.882797 0.648218 0.516033
C4    C     C_R   0.768043 0.882456 0.352002 0.535294
C5    C     C_3   0.535322 0.377184 0.455543 0.292821
C6    C     C_3   0.544658 0.377765 0.535408 0.330425
C7    C     C_3   0.035293 0.877203 0.455548 0.292835
C8    C     C_3   0.044629 0.877784 0.535413 0.330426
C9    C     C_R   0.677285 0.924247 0.527561 0.188466
C10   C     C_R   0.318301 0.911786 0.470750 0.177284
C11   C     C_R   0.177284 0.424252 0.527561 0.188464
C12   C     C_R   0.818303 0.411788 0.470751 0.177292
C13   C     C_R   0.684971 0.899888 0.454653 -0.141681
C14   C     C_R   0.312097 0.890228 0.543959 -0.166251
C15   C     C_R   0.184972 0.399887 0.454654 -0.141685
C16   C     C_R   0.812098 0.390230 0.543959 -0.166249
C17   C     C_R   0.743803 0.943719 0.417216 -0.080010
C18   C     C_R   0.257168 0.943109 0.582942 -0.099507
C19   C     C_R   0.243805 0.443716 0.417218 -0.080005
C20   C     C_R   0.757169 0.443111 0.582942 -0.099519
C21   C     C_R   0.788443 0.030744 0.449786 0.261604
C22   C     C_R   0.216277 0.036911 0.551527 0.249374
C23   C     C_R   0.288445 0.530740 0.449788 0.261600
C24   C     C_R   0.716279 0.536915 0.551528 0.249388
C25   C     C_R   0.784627 0.047511 0.522377 0.384010
C26   C     C_R   0.219789 0.054571 0.478726 0.398503
C27   C     C_R   0.284628 0.547511 0.522378 0.384005
C28   C     C_R   0.719791 0.554574 0.478726 0.398490
C29   C     C_R   0.730216 0.993571 0.562627 0.004260
C30   C     C_R   0.269428 0.991307 0.437180 0.035930
C31   C     C_R   0.230215 0.493575 0.562629 0.004267
C32   C     C_R   0.769428 0.491309 0.437181 0.035931
C33   C     C_R   0.467030 0.075145 0.954638 -0.177357
C34   C     C_R   0.455668 0.070965 0.026806 -0.204732
C35   C     C_R   0.967043 0.575126 0.954639 -0.177346
C36   C     C_R   0.955687 0.570943 0.026808 -0.204954
C37   C     C_R   0.483968 0.161632 0.071085 0.005212
C38   C     C_R   0.506916 0.169918 0.925693 -0.007215
C39   C     C_R   0.983962 0.661638 0.071082 0.004953
C40   C     C_R   0.006906 0.669922 0.925689 -0.007126
C41   C     C_R   0.521436 0.259566 0.042283 0.458715
C42   C     C_R   0.532899 0.264153 0.969552 0.389633
C43   C     C_R   0.021400 0.759601 0.042274 0.458702
C44   C     C_R   0.032864 0.764185 0.969543 0.389680
C45   C     C_R   0.532046 0.155319 0.646482 0.533403
C46   C     C_R   0.466483 0.154646 0.354556 0.567357
C47   C     C_R   0.032045 0.655319 0.646483 0.533381
C48   C     C_R   0.966481 0.654647 0.354556 0.567369
C49   C     C_R   0.816310 0.913870 0.954176 0.214321
C50   C     C_R   0.213880 0.027975 0.024998 0.253518
C51   C     C_R   0.316269 0.413801 0.954185 0.214289
C52   C     C_R   0.713695 0.527770 0.025023 0.253735
C53   C     C_R   0.822821 0.905629 0.027339 0.304898
C54   C     C_R   0.217141 0.014780 0.952014 0.343550
C55   C     C_R   0.322799 0.405506 0.027343 0.304912
C56   C     C_R   0.717011 0.514713 0.952032 0.343546
C57   C     C_R   0.761878 0.900258 0.071193 0.021121
C58   C     C_R   0.252342 0.915802 0.922692 0.008769
C59   C     C_R   0.261866 0.400330 0.071218 0.021607
C60   C     C_R   0.752372 0.415942 0.922661 0.008650
C61   C     C_R   0.693829 0.899225 0.042186 0.225500
C62   C     C_R   0.293878 0.836882 0.965512 0.197573
C63   C     C_R   0.193804 0.399586 0.042247 0.225495
C64   C     C_R   0.794063 0.337214 0.965442 0.197439
C65   C     C_R   0.686902 0.900458 0.968245 0.168381
C66   C     C_R   0.291074 0.848768 0.039538 0.149651
C67   C     C_R   0.186847 0.400869 0.968307 0.168211
C68   C     C_R   0.791230 0.348979 0.039476 0.149435
C69   C     C_R   0.748357 0.917645 0.924835 0.002652
C70   C     C_R   0.251748 0.945424 0.069171 -0.018201
C71   C     C_R   0.248311 0.417785 0.924872 0.003088
C72   C     C_R   0.751728 0.445383 0.069164 -0.018391
C73   C     C_R   0.727437 0.018941 0.639558 0.587778
C74   C     C_R   0.272404 0.018021 0.360421 0.600521
C75   C     C_R   0.227436 0.518943 0.639558 0.587785
C76   C     C_R   0.772405 0.518022 0.360421 0.600534
C77   C     C_R   0.730905 0.378520 0.852025 0.612883
C78   C     C_R   0.272114 0.375131 0.145929 0.609649
C79   C     C_R   0.230892 0.878479 0.852040 0.613032
C80   C     C_R   0.772122 0.875105 0.145916 0.609387
C81   C     C_R   0.533232 0.157592 0.853866 0.578953
C82   C     C_R   0.465567 0.156374 0.145444 0.598608
C83   C     C_R   0.033230 0.657593 0.853864 0.579028
C84   C     C_R   0.965565 0.656375 0.145442 0.598531
C85   C     C_R   0.740932 0.969256 0.854042 0.616546
C86   C     C_R   0.259378 0.975946 0.143847 0.572175
C87   C     C_R   0.240919 0.469294 0.854056 0.616930
C88   C     C_R   0.759371 0.475925 0.143847 0.572076
C89   C     C_R   0.487411 0.159748 0.428595 0.043617
C90   C     C_R   0.498440 0.162759 0.577306 -0.008129
C91   C     C_R   0.987407 0.659748 0.428596 0.043608
C92   C     C_R   0.998435 0.662757 0.577307 -0.008130
C93   C     C_R   0.487010 0.270344 0.465174 -0.019475
C94   C     C_R   0.494953 0.271817 0.538426 0.006627
C95   C     C_R   0.986996 0.770343 0.465178 -0.019488
C96   C     C_R   0.994939 0.771816 0.538430 0.006607
C97   C     C_R   0.485978 0.053072 0.541506 -0.150909
C98   C     C_R   0.485342 0.051045 0.468135 -0.153676
C99   C     C_R   0.985977 0.553069 0.541507 -0.150904
C100  C     C_R   0.985342 0.551044 0.468137 -0.153675
Cr1   Cr    Cr6+3 0.771950 0.169480 0.750100 1.137574
Cr2   Cr    Cr6+3 0.228050 0.169480 0.249900 1.153084
Cr3   Cr    Cr6+3 0.271950 0.669480 0.750100 1.137550
Cr4   Cr    Cr6+3 0.728050 0.669480 0.249900 1.153042
Cr5   Cr    Cr6+3 0.614930 0.323340 0.749170 1.157772
Cr6   Cr    Cr6+3 0.385070 0.323340 0.250830 1.140912
Cr7   Cr    Cr6+3 0.114930 0.823340 0.749170 1.157759
Cr8   Cr    Cr6+3 0.885070 0.823340 0.250830 1.140878
Cr9   Cr    Cr6+3 0.616590 0.010620 0.750610 1.104344
Cr10  Cr    Cr6+3 0.383410 0.010620 0.249390 1.094169
Cr11  Cr    Cr6+3 0.116590 0.510620 0.750610 1.104407
Cr12  Cr    Cr6+3 0.883410 0.510620 0.249390 1.094175
H1    H     H_    0.485045 0.966516 0.569250 0.180228
H2    H     H_    0.483580 0.963311 0.442473 0.183515
H3    H     H_    0.985047 0.466512 0.569250 0.180233
H4    H     H_    0.983583 0.463311 0.442473 0.183514
H5    H     H_    0.007933 0.958765 0.433656 0.205010
H6    H     H_    0.099377 0.856151 0.553173 0.157730
H7    H     H_    0.507973 0.458757 0.433650 0.205010
H8    H     H_    0.599403 0.356109 0.553168 0.157701
H9    H     H_    0.646764 0.842760 0.427889 0.209093
H10   H     H_    0.347791 0.827291 0.569811 0.218824
H11   H     H_    0.146765 0.342758 0.427891 0.209097
H12   H     H_    0.847792 0.327293 0.569812 0.218826
H13   H     H_    0.446816 0.002144 0.921788 0.180877
H14   H     H_    0.424218 0.996517 0.047955 0.185007
H15   H     H_    0.946848 0.502102 0.921794 0.181007
H16   H     H_    0.924263 0.496467 0.047961 0.185236
O1    O     O_R   0.787510 0.042610 0.670410 -0.432422
O2    O     O_R   0.212490 0.042610 0.329590 -0.414832
O3    O     O_R   0.287510 0.542610 0.670410 -0.432423
O4    O     O_R   0.712490 0.542610 0.329590 -0.414814
O5    O     O_R   0.556450 0.252890 0.823790 -0.434981
O6    O     O_R   0.443550 0.252890 0.176210 -0.408294
O7    O     O_R   0.056450 0.752890 0.823790 -0.435033
O8    O     O_R   0.943550 0.752890 0.176210 -0.408384
O9    O     O_R   0.545750 0.051070 0.830560 -0.495093
O10   O     O_R   0.454250 0.051070 0.169440 -0.516631
O11   O     O_R   0.045750 0.551070 0.830560 -0.495053
O12   O     O_R   0.954250 0.551070 0.169440 -0.516544
O13   O     O_R   0.681210 0.959150 0.825320 -0.497879
O14   O     O_R   0.318790 0.959150 0.174680 -0.509780
O15   O     O_R   0.181210 0.459150 0.825320 -0.497784
O16   O     O_R   0.818790 0.459150 0.174680 -0.509749
O17   O     O_3   0.667820 0.167810 0.749960 -0.334758
O18   O     O_3   0.332180 0.167810 0.250040 -0.344848
O19   O     O_3   0.167820 0.667810 0.749960 -0.334769
O20   O     O_3   0.832180 0.667810 0.250040 -0.344877
O21   O     O_R   0.765670 0.292090 0.675090 -0.503625
O22   O     O_R   0.234330 0.292090 0.324910 -0.495280
O23   O     O_R   0.265670 0.792090 0.675090 -0.503634
O24   O     O_R   0.734330 0.792090 0.324910 -0.495264
O25   O     O_R   0.670220 0.409020 0.668560 -0.491322
O26   O     O_R   0.329780 0.409020 0.331440 -0.501197
O27   O     O_R   0.170220 0.909020 0.668560 -0.491318
O28   O     O_R   0.829780 0.909020 0.331440 -0.501189
O29   O     O_R   0.556580 0.251590 0.674980 -0.490694
O30   O     O_R   0.443420 0.251590 0.325020 -0.489194
O31   O     O_R   0.056580 0.751590 0.674980 -0.490715
O32   O     O_R   0.943420 0.751590 0.325020 -0.489176
O33   O     O_R   0.545890 0.049670 0.670030 -0.496072
O34   O     O_R   0.454110 0.049670 0.329970 -0.507987
O35   O     O_R   0.045890 0.549670 0.670030 -0.496080
O36   O     O_R   0.954110 0.549670 0.329970 -0.507973
O37   O     O_R   0.681340 0.957860 0.676500 -0.442265
O38   O     O_R   0.318660 0.957860 0.323500 -0.444463
O39   O     O_R   0.181340 0.457860 0.676500 -0.442239
O40   O     O_R   0.818660 0.457860 0.323500 -0.444451
O41   O     O_R   0.787380 0.044010 0.830940 -0.419685
O42   O     O_R   0.212620 0.044010 0.169060 -0.411925
O43   O     O_R   0.287380 0.544010 0.830940 -0.419681
O44   O     O_R   0.712620 0.544010 0.169060 -0.411883
O45   O     O_R   0.765540 0.293390 0.823910 -0.470042
O46   O     O_R   0.234460 0.293390 0.176090 -0.449526
O47   O     O_R   0.265540 0.793390 0.823910 -0.470119
O48   O     O_R   0.734460 0.793390 0.176090 -0.449622
O49   O     O_R   0.670090 0.410410 0.829090 -0.398935
O50   O     O_R   0.329910 0.410410 0.170910 -0.444952
O51   O     O_R   0.170090 0.910410 0.829090 -0.398992
O52   O     O_R   0.829910 0.910410 0.170910 -0.444889
O53   O     O_3   0.875128 0.920103 0.909949 -0.644669
H17   H     H_    0.919061 0.925397 0.938472 0.397283
O54   O     O_3   0.174420 0.121793 0.054131 -0.605718
H18   H     H_    0.142269 0.157171 0.018014 0.400317
O55   O     O_3   0.375076 0.419869 0.909937 -0.644734
H19   H     H_    0.419018 0.425142 0.938448 0.397209
O56   O     O_3   0.674013 0.621284 0.054192 -0.605045
H20   H     H_    0.641864 0.656640 0.018064 0.400569
F1    F     F_    0.889108 0.901342 0.055498 -0.597663
F2    F     F_    0.183541 0.096503 0.909211 -0.627647
F3    F     F_    0.389090 0.400966 0.055479 -0.597922
F4    F     F_    0.683277 0.596332 0.909268 -0.627604
O57   O     O_3   0.635735 0.893808 0.087397 -0.646446
H21   H     H_    0.591123 0.899931 0.059937 0.381844
O58   O     O_3   0.333135 0.744947 0.933983 -0.636255
H22   H     H_    0.362062 0.701326 0.969732 0.396747
O59   O     O_3   0.135725 0.394354 0.087484 -0.646582
H23   H     H_    0.091108 0.400647 0.060045 0.381816
O60   O     O_3   0.833512 0.245570 0.933865 -0.636232
H24   H     H_    0.862558 0.202115 0.969588 0.396834
O61   O     O_3   0.619859 0.887746 0.940066 -0.674832
H25   H     H_    0.623144 0.824546 0.902754 0.385603
O62   O     O_3   0.325217 0.762996 0.081167 -0.668957
H26   H     H_    0.299360 0.754695 0.126802 0.346520
O63   O     O_3   0.119778 0.388447 0.940155 -0.675033
H27   H     H_    0.122939 0.325044 0.902949 0.385393
O64   O     O_3   0.825528 0.263330 0.081061 -0.668780
H28   H     H_    0.799653 0.254772 0.126671 0.346580
F5    F     F_    0.597367 0.346602 0.420092 -0.634157
F6    F     F_    0.515339 0.480078 0.566622 -0.554336
F7    F     F_    0.097342 0.846647 0.420096 -0.634140
F8    F     F_    0.015295 0.980083 0.566629 -0.554347
O65   O     O_3   0.620679 0.876714 0.565349 -0.621806
H29   H     H_    0.590055 0.828954 0.532963 0.362819
O66   O     O_3   0.369021 0.851328 0.431238 -0.639825
H30   H     H_    0.398460 0.800166 0.463173 0.372331
O67   O     O_3   0.120677 0.376722 0.565349 -0.621818
H31   H     H_    0.090055 0.328957 0.532964 0.362819
O68   O     O_3   0.869022 0.351329 0.431238 -0.639818
H32   H     H_    0.898460 0.300166 0.463173 0.372333
O69   O     O_3   0.839010 0.096343 0.412951 -0.601069
H33   H     H_    0.819064 0.116000 0.365593 0.349442
O70   O     O_3   0.170082 0.109273 0.589612 -0.563734
H34   H     H_    0.189384 0.118415 0.638213 0.342078
O71   O     O_3   0.339014 0.596334 0.412954 -0.601070
H35   H     H_    0.319070 0.615997 0.365598 0.349444
O72   O     O_3   0.670085 0.609277 0.589613 -0.563707
H36   H     H_    0.689387 0.618416 0.638215 0.342047
F9    F     F_    0.835668 0.115982 0.553356 -0.586899
F10   F     F_    0.173261 0.133115 0.448582 -0.598737
F11   F     F_    0.335669 0.615981 0.553357 -0.586913
F12   F     F_    0.673263 0.633119 0.448582 -0.598749
F13   F     F_    0.547795 0.348814 0.084431 -0.542117
F14   F     F_    0.572303 0.357317 0.942990 -0.570388
F15   F     F_    0.047738 0.848875 0.084416 -0.542075
F16   F     F_    0.072249 0.857371 0.942978 -0.570429

loop_
_geom_bond_atom_site_label_1
_geom_bond_atom_site_label_2
_ccdc_geom_bond_type
C2    O22   A    
Cr5   O25   S    
O62   H26   S    
C56   F4    S    
C58   C62   A    
C93   C94   A    
C88   O44   A    
C55   C59   A    
C34   C37   A    
C42   F14   S    
C41   C42   A    
C7    H5    S    
Cr1   O45   S    
C95   C96   A    
C8    C96   S    
O66   H30   S    
C83   O11   A    
C97   C98   A    
Cr10  O34   S    
C8    H6    S    
C7    C8    S    
Cr4   O48   S    
C46   C89   S    
C47   O31   A    
O63   H27   S    
C26   F10   S    
C15   C19   A    
C48   O32   A    
C25   F9    S    
C50   C54   A    
C15   H11   S    
C5    H7    S    
C37   C41   A    
C51   O55   S    
C87   O43   A    
C64   C68   A    
Cr9   O33   S    
C7    F7    S    
O71   H35   S    
C39   C84   S    
C38   C42   A    
C44   F16   S    
C99   H3    S    
C5    C6    S    
C30   C74   S    
C49   C53   A    
C10   O66   S    
C98   H2    S    
C29   C73   S    
Cr12  O40   S    
C75   O39   A    
C92   C96   A    
C45   O33   A    
Cr8   O52   S    
C3    C18   S    
Cr9   O9    S    
C51   C55   A    
C47   C92   S    
C57   C61   A    
Cr10  O14   S    
Cr4   O20   S    
Cr9   O37   S    
C9    C13   A    
C72   C88   S    
C33   H13   S    
C11   C15   A    
Cr5   O29   S    
C50   O54   S    
Cr6   O26   S    
C48   C91   S    
C100  H4    S    
Cr7   O7    S    
C53   F1    S    
Cr1   O41   S    
C52   O56   S    
C23   C27   A    
C91   C100  A    
C17   C21   A    
C24   O72   S    
C11   O67   S    
C90   C97   A    
C83   O7    A    
C67   O63   S    
C12   O68   S    
C9    C29   A    
Cr5   O17   S    
Cr4   O44   S    
Cr10  O18   S    
C47   O35   A    
C34   H14   S    
C48   O36   A    
C11   C31   A    
O60   H24   S    
C2    O26   A    
C49   C69   A    
C12   C32   A    
Cr3   O43   S    
C40   C83   S    
C78   O50   A    
C36   H16   S    
C51   C71   A    
C62   O58   S    
Cr12  O36   S    
C59   C78   S    
C6    H8    S    
C23   O71   S    
C75   O3    A    
C90   C94   A    
C73   O1    A    
C25   C29   A    
C4    O24   A    
C63   C67   A    
C60   C77   S    
C46   O34   A    
C62   C66   A    
Cr11  O11   S    
O64   H28   S    
C12   C16   A    
C28   C32   A    
Cr11  O35   S    
C80   O48   A    
O70   H34   S    
C73   O37   A    
C21   C25   A    
C10   C14   A    
C85   O13   A    
O68   H32   S    
C53   C57   A    
C19   C23   A    
C39   C43   A    
Cr2   O42   S    
C6    C94   S    
O67   H31   S    
O53   H17   S    
C27   C31   A    
C85   O41   A    
Cr12  O20   S    
C68   C72   A    
C35   C36   A    
C55   F3    S    
C82   O6    A    
C81   O9    A    
O54   H18   S    
C76   O4    A    
O69   H33   S    
C52   C72   A    
Cr11  O19   S    
C13   H9    S    
C10   C30   A    
Cr6   O6    S    
Cr7   O31   S    
O72   H36   S    
Cr8   O28   S    
O65   H29   S    
C16   C20   A    
Cr1   O17   S    
Cr3   O23   S    
C68   O64   S    
Cr3   O47   S    
C33   C34   A    
C45   O29   A    
C35   H15   S    
C45   C90   S    
C21   O69   S    
C58   C79   S    
Cr2   O22   S    
C6    F6    S    
C4    C17   S    
Cr10  O10   S    
C27   F11   S    
C4    O28   A    
C57   C80   S    
C26   C30   A    
C74   O2    A    
C38   C81   S    
C22   C26   A    
C71   C87   S    
C37   C82   S    
Cr11  O39   S    
C3    O27   A    
C66   O62   S    
C97   H1    S    
Cr12  O12   S    
C70   C86   S    
C61   O57   S    
C31   C75   S    
C74   O38   A    
C69   C85   S    
C86   O14   A    
Cr5   O5    S    
C54   C58   A    
C28   F12   S    
C84   O8    A    
Cr7   O19   S    
C77   O45   A    
C54   F2    S    
C65   O61   S    
Cr7   O51   S    
C2    C19   S    
C18   C22   A    
C59   C63   A    
C14   C18   A    
C36   C39   A    
Cr9   O17   S    
C24   C28   A    
Cr5   O49   S    
C1    O21   A    
C1    C20   S    
C32   C76   S    
C5    C93   S    
C81   O5    A    
Cr8   O32   S    
Cr11  O15   S    
Cr2   O46   S    
C7    C95   S    
C22   O70   S    
C3    O23   A    
C33   C38   A    
Cr6   O18   S    
Cr8   O8    S    
C13   C17   A    
C89   C98   A    
C60   C64   A    
C9    O65   S    
Cr4   O24   S    
C35   C40   A    
C50   C70   A    
O56   H20   S    
C80   O52   A    
C43   F15   S    
C99   C100  A    
Cr2   O18   S    
Cr6   O30   S    
Cr10  O38   S    
C79   O47   A    
Cr12  O16   S    
O55   H19   S    
C66   C70   A    
C41   F13   S    
C86   O42   A    
C43   C44   A    
C65   C69   A    
Cr1   O21   S    
C88   O16   A    
C76   O40   A    
C67   C71   A    
C61   C65   A    
C89   C93   A    
O59   H23   S    
C20   C24   A    
C77   O49   A    
C1    O25   A    
C91   C95   A    
O58   H22   S    
C63   O59   S    
C40   C44   A    
C79   O51   A    
C56   C60   A    
O61   H25   S    
C84   O12   A    
C82   O10   A    
O57   H21   S    
Cr4   O4    S    
C64   O60   S    
C5    F5    S    
C78   O46   A    
C14   H10   S    
Cr2   O2    S    
Cr9   O13   S    
C16   H12   S    
C87   O15   A    
C8    F8    S    
Cr3   O3    S    
Cr6   O50   S    
C49   O53   S    
Cr7   O27   S    
C52   C56   A    
C92   C99   A    
Cr1   O1    S    
Cr3   O19   S    
Cr8   O20   S    
C46   O30   A    
