data_mof_unit_54270.cif
_audit_creation_date              2012-12-10T17:02:18-0500
_audit_creation_method            fapswitch 2.2
_symmetry_space_group_name_H-M    P1
_symmetry_Int_Tables_number       1
_space_group_crystal_system       triclinic
_cell_length_a                    10.609939
_cell_length_b                    10.74326
_cell_length_c                    10.059882
_cell_angle_alpha                 92.307023
_cell_angle_beta                  89.842805
_cell_angle_gamma                 90.931662
_cell_volume                      1145.59561013

loop_
_atom_site_label
_atom_site_type_symbol
_atom_type_description
_atom_site_fract_x
_atom_site_fract_y
_atom_site_fract_z
_atom_type_partial_charge
C1    C     C_R   0.501662 0.263095 0.496525 0.765543
C2    C     C_2   0.511413 0.130931 0.482563 0.282930
C3    C     C_2   0.589554 0.553049 0.925088 0.640622
C4    C     C_R   0.259256 0.483373 0.500536 0.890790
C5    C     C_2   0.575355 0.570335 0.076610 0.124308
C6    C     C_R   0.489877 0.737004 0.503132 0.941909
C7    C     C_R   0.736274 0.474189 0.500363 0.894477
C8    C     C_R   0.123292 0.422986 0.753703 -0.060272
C9    C     C_R   0.057730 0.459420 0.869117 -0.170008
C10   C     C_R   0.927214 0.438259 0.871750 0.405779
C11   C     C_R   0.867739 0.398436 0.753309 0.043331
C12   C     C_R   0.061472 0.427696 0.628958 -0.062693
C13   C     C_R   0.929048 0.417350 0.629139 -0.054737
C14   C     C_1   0.647134 0.668609 0.144703 0.168151
C15   C     C_1   0.220043 0.331243 0.770274 0.301235
C16   C     C_1   0.124766 0.511910 0.983371 0.225583
C17   C     C_1   0.761359 0.314061 0.765889 0.268339
C18   C     C_1   0.859808 0.334430 0.279037 0.197644
C19   C     C_1   0.440206 0.920483 0.649159 0.200966
C20   C     C_1   0.296976 0.116453 0.388228 0.125086
C21   C     C_R   0.125794 0.441076 0.504962 -0.146422
C22   C     C_R   0.061590 0.407355 0.385563 0.428580
C23   C     C_R   0.929387 0.393967 0.388389 -0.143139
C24   C     C_R   0.865010 0.425477 0.506054 -0.207991
C25   C     C_2   0.429466 0.930775 0.406508 0.451292
C26   C     C_2   0.455215 0.866040 0.514618 -0.187285
C27   C     C_2   0.416554 0.064753 0.423977 -0.178593
H1    H     H_    0.075426 0.355482 0.196914 0.336008
H2    H     H_    0.687474 0.140454 0.536246 0.325543
H3    H     H_    0.749137 0.646010 0.924262 0.321730
H4    H     H_    0.340739 0.565249 0.833590 0.358056
H5    H     H_    0.416021 0.349257 0.158942 0.388718
H6    H     H_    0.906774 0.486497 0.060047 0.326193
H7    H     H_    0.407455 0.938810 0.215430 0.348502
N1    N     N_2   0.501340 0.501330 0.852150 0.070024
N2    N     N_2   0.501380 0.501360 0.147810 0.060042
N3    N     N_1   0.705266 0.747431 0.198648 -0.135746
N4    N     N_1   0.295886 0.256821 0.784743 -0.131606
N5    N     N_1   0.177593 0.556794 0.074161 -0.078972
N6    N     N_1   0.678539 0.244704 0.780934 -0.135630
N7    N     N_1   0.803121 0.284649 0.193756 -0.104788
N8    N     N_1   0.428329 0.963413 0.755751 -0.142855
N9    N     N_1   0.200130 0.154979 0.359755 -0.145401
O1    O     O_R   0.499980 0.319060 0.613040 -0.607965
O2    O     O_3   0.624634 0.074760 0.509954 -0.756327
O3    O     O_3   0.691124 0.604279 0.859359 -0.762781
O4    O     O_3   0.386687 0.522664 0.903124 -0.681996
O5    O     O_3   0.463318 0.392727 0.089285 -0.620681
O6    O     O_3   0.857085 0.444761 0.987668 -0.786446
O7    O     O_3   0.421379 0.873780 0.280853 -0.729473
O8    O     O_R   0.500020 0.319100 0.386900 -0.636995
O9    O     O_R   0.316750 0.499980 0.613090 -0.668519
O10   O     O_R   0.316790 0.500020 0.386950 -0.544311
O11   O     O_R   0.499980 0.680900 0.613100 -0.616884
O12   O     O_R   0.500020 0.680940 0.386960 -0.552976
O13   O     O_R   0.683210 0.499980 0.613050 -0.571208
O14   O     O_R   0.683250 0.500020 0.386910 -0.616359
O15   O     O_3   0.130779 0.386060 0.270454 -0.739821
Zn1   Zn    Zn3+2 0.499970 0.499970 0.650990 1.030597
Zn2   Zn    Zn3+2 0.500030 0.500030 0.349010 1.056902

loop_
_geom_bond_atom_site_label_1
_geom_bond_atom_site_label_2
_ccdc_geom_bond_type
C22   O15   S    
C23   C24   A    
C19   N8    T    
C15   N4    T    
C2    C27   D    
O9    Zn1   S    
H1    O15   S    
C4    O10   A    
C25   C27   S    
C1    O8    A    
C9    C10   A    
C1    O1    A    
O13   Zn1   S    
C3    N1    D    
C6    O12   A    
C8    C12   A    
N1    O4    S    
H4    O4    S    
O12   Zn2   S    
C14   N3    T    
C7    O14   A    
C4    C21   S    
H5    O5    S    
C5    C14   S    
C6    C26   S    
C7    O13   A    
C6    O11   A    
C20   C27   S    
O10   Zn2   S    
C4    O9    A    
N2    O5    S    
C8    C15   S    
O11   Zn1   S    
C22   C23   A    
C2    O2    S    
H3    O3    S    
H7    O7    S    
C10   C11   A    
O1    Zn1   S    
H6    O6    S    
C18   C23   S    
C5    N2    D    
C11   C13   A    
C20   N9    T    
C12   C13   A    
N1    Zn1   S    
C1    C2    S    
C18   N7    T    
C19   C26   S    
C25   O7    S    
C11   C17   S    
O14   Zn2   S    
C16   N5    T    
O8    Zn2   S    
C3    O3    S    
C3    C5    S    
C25   C26   D    
C21   C22   A    
C10   O6    S    
C12   C21   A    
C9    C16   S    
C7    C24   S    
C13   C24   A    
H2    O2    S    
C8    C9    A    
N2    Zn2   S    
C17   N6    T    
