data_mof_unit_22859.cif
_audit_creation_date              2012-12-10T20:30:08-0500
_audit_creation_method            fapswitch 2.2
_symmetry_space_group_name_H-M    P1
_symmetry_Int_Tables_number       1
_space_group_crystal_system       triclinic
_cell_length_a                    9.850694
_cell_length_b                    10.677486
_cell_length_c                    13.096077
_cell_angle_alpha                 90.001116
_cell_angle_beta                  70.658357
_cell_angle_gamma                 90.141015
_cell_volume                      1299.70662542

loop_
_atom_site_label
_atom_site_type_symbol
_atom_type_description
_atom_site_fract_x
_atom_site_fract_y
_atom_site_fract_z
_atom_type_partial_charge
C1    C     C_R   0.498582 0.740101 0.503367 0.885866
C2    C     C_R   0.370787 0.468433 0.820374 -0.115552
C3    C     C_R   0.367738 0.935700 0.520399 0.126547
C4    C     C_R   0.421056 0.490949 0.703811 0.878692
C5    C     C_R   0.490307 0.871413 0.520821 -0.106237
C6    C     C_R   0.602314 0.935563 0.542252 -0.222987
C7    C     C_R   0.601970 0.065084 0.542554 -0.237179
C8    C     C_R   0.489761 0.128559 0.521158 -0.101295
C9    C     C_R   0.367329 0.063449 0.520698 0.144877
C10   C     C_3   0.284351 0.070219 0.443682 -0.505354
C11   C     C_3   0.285272 0.928275 0.443090 -0.474360
C12   C     C_R   0.426357 0.434718 0.984947 -0.047398
C13   C     C_R   0.912099 0.600984 0.538532 0.223265
C14   C     C_R   0.947956 0.404691 0.454345 -0.129667
C15   C     C_R   0.091831 0.404592 0.454701 -0.087124
C16   C     C_R   0.498364 0.259875 0.503416 0.870310
C17   C     C_R   0.054875 0.601005 0.538378 0.217201
C18   C     C_3   0.011721 0.651584 0.650614 -0.525076
C19   C     C_3   0.857489 0.651482 0.650956 -0.506062
C20   C     C_R   0.579098 0.497286 0.295598 0.873299
C21   C     C_R   0.782110 0.371358 0.018803 -0.216108
C22   C     C_R   0.624114 0.471467 0.179985 -0.087788
C23   C     C_R   0.464710 0.420371 0.872356 0.029213
C24   C     C_R   0.230266 0.503455 0.881891 -0.295765
C25   C     C_R   0.183226 0.491738 0.993689 -0.228203
C26   C     C_R   0.278914 0.455090 0.046224 0.520445
C27   C     C_3   0.203335 0.297325 0.166927 -0.330560
C28   C     C_R   0.537248 0.429152 0.030857 0.081619
C29   C     C_R   0.673293 0.378378 0.971615 0.181427
C30   C     C_R   0.698235 0.337242 0.865993 -0.267117
C31   C     C_R   0.595772 0.359324 0.816158 -0.187175
C32   C     C_R   0.519549 0.483470 0.130657 -0.209665
C33   C     C_R   0.756494 0.415689 0.123919 -0.208350
H1    H     H_    0.837901 0.403738 0.161980 0.165344
H2    H     H_    0.055372 0.747183 0.653154 0.200600
H3    H     H_    0.787277 0.583966 0.709756 0.233678
H4    H     H_    0.799317 0.293600 0.820243 0.146730
H5    H     H_    0.812136 0.747093 0.653867 0.193158
H6    H     H_    0.885691 0.330491 0.975085 0.140812
H7    H     H_    0.423384 0.536282 0.171490 0.204227
H8    H     H_    0.155970 0.538321 0.843500 0.177186
H9    H     H_    0.072004 0.511074 0.039959 0.168536
H10   H     H_    0.619940 0.326424 0.734024 0.175630
H11   H     H_    0.694155 0.886889 0.550992 0.164353
H12   H     H_    0.693531 0.114380 0.551691 0.164088
H13   H     H_    0.308453 0.247989 0.144718 0.172129
H14   H     H_    0.137878 0.260576 0.118448 0.157307
H15   H     H_    0.143312 0.275221 0.252515 0.175941
H16   H     H_    0.175092 0.109886 0.482311 0.195155
H17   H     H_    0.347238 0.112410 0.364380 0.202179
H18   H     H_    0.176658 0.886487 0.480881 0.200544
H19   H     H_    0.349271 0.887648 0.363537 0.204221
H20   H     H_    0.909010 0.326727 0.419065 0.140375
H21   H     H_    0.161537 0.326660 0.420298 0.141397
H22   H     H_    0.030608 0.583908 0.708955 0.213014
N1    N     N_R   0.856940 0.500860 0.500710 -0.106951
N2    N     N_R   0.142580 0.500820 0.500710 -0.105741
O1    O     O_R   0.385310 0.683210 0.499990 -0.613667
O2    O     O_R   0.614650 0.683240 0.500000 -0.616023
O3    O     O_R   0.328390 0.499940 0.653610 -0.616355
O4    O     O_R   0.557730 0.499980 0.653620 -0.622075
O5    O     O_R   0.385350 0.316760 0.500000 -0.619606
O6    O     O_R   0.614690 0.316790 0.500010 -0.637412
O7    O     O_R   0.442270 0.500020 0.346380 -0.600148
O8    O     O_R   0.671610 0.500060 0.346390 -0.605428
O9    O     O_3   0.223372 0.428229 0.155504 -0.623196
Zn1   Zn    Zn3+2 0.346870 0.499980 0.499990 0.948453
Zn2   Zn    Zn3+2 0.653130 0.500020 0.500010 0.937805

loop_
_geom_bond_atom_site_label_1
_geom_bond_atom_site_label_2
_ccdc_geom_bond_type
C25   H9    S    
C20   O7    A    
C2    C4    S    
C15   H21   S    
O1    Zn1   S    
C6    C7    A    
C3    C9    A    
C19   H5    S    
O2    Zn2   S    
C9    C10   S    
C22   C32   A    
C14   N1    A    
C21   H6    S    
C3    C11   S    
C13   C17   A    
C30   C31   A    
O8    Zn2   S    
N1    Zn2   S    
C4    O3    A    
C32   H7    S    
C17   C18   S    
C7    C8    A    
C8    C16   S    
C13   N1    A    
C6    H11   S    
C1    O1    A    
C24   H8    S    
C15   N2    A    
C12   C23   A    
C17   N2    A    
C29   C30   A    
C31   H10   S    
O5    Zn1   S    
C12   C28   A    
C1    C5    S    
C18   H22   S    
C27   H13   S    
C28   C29   A    
C16   O6    A    
N2    Zn1   S    
C33   H1    S    
C19   H3    S    
C1    O2    A    
C27   H15   S    
C2    C24   A    
C5    C6    A    
C11   H18   S    
C10   C11   S    
C20   C22   S    
C10   H17   S    
O7    Zn1   S    
C7    H12   S    
C20   O8    A    
C28   C32   A    
C14   H20   S    
C21   C33   A    
C24   C25   A    
O3    Zn1   S    
C18   C19   S    
C18   H2    S    
C27   H14   S    
C2    C23   A    
C27   O9    S    
C22   C33   A    
O4    Zn2   S    
C14   C15   A    
C13   C19   S    
C11   H19   S    
C23   C31   A    
C25   C26   A    
O6    Zn2   S    
C10   H16   S    
C21   C29   A    
C4    O4    A    
C16   O5    A    
C30   H4    S    
C12   C26   A    
C8    C9    A    
C3    C5    A    
C26   O9    S    
