data_mof_unit_18582.cif
_audit_creation_date              2012-10-26T19:46:08-0400
_audit_creation_method            fapswitch 2.2
_symmetry_space_group_name_H-M    P1
_symmetry_Int_Tables_number       1
_space_group_crystal_system       triclinic
_cell_length_a                    10.831256
_cell_length_b                    9.512677
_cell_length_c                    15.889373
_cell_angle_alpha                 89.857176
_cell_angle_beta                  90.242924
_cell_angle_gamma                 89.979156
_cell_volume                      1637.12955257

loop_
_atom_site_label
_atom_site_type_symbol
_atom_type_description
_atom_site_fract_x
_atom_site_fract_y
_atom_site_fract_z
_atom_type_partial_charge
C1    C     C_R   0.262049 0.500015 0.499901 0.547239
C2    C     C_R   0.936084 0.627726 0.497903 -0.145161
C3    C     C_R   0.871786 0.499988 0.499773 0.018101
C4    C     C_R   0.128211 0.500021 0.499742 0.018320
C5    C     C_R   0.425101 0.074681 0.446371 0.009657
C6    C     C_R   0.425101 0.925817 0.446372 0.009258
C7    C     C_R   0.499913 0.500186 0.340198 0.549567
C8    C     C_R   0.574791 0.925311 0.553798 0.006700
C9    C     C_R   0.574765 0.074179 0.553815 0.007229
C10   C     C_R   0.737955 0.499987 0.499948 0.547034
C11   C     C_R   0.500246 0.499825 0.659791 0.549561
C12   C     C_3   0.629623 0.446487 0.950461 -0.174520
C13   C     C_3   0.480760 0.653627 0.048705 -0.217436
C14   C     C_3   0.404098 0.404670 0.050179 -0.213877
C15   C     C_3   0.398296 0.398410 0.952034 -0.101016
C16   C     C_3   0.465674 0.649493 0.951342 -0.087988
C17   C     C_1   0.500365 0.499312 0.749235 -0.054285
C18   C     C_3   0.510622 0.502841 0.083195 0.087986
C19   C     C_3   0.500626 0.498866 0.916808 0.074978
C20   C     C_3   0.397449 0.245662 0.915738 -0.267578
C21   C     C_3   0.301040 0.226189 0.845289 -0.302173
C22   C     C_3   0.307954 0.079032 0.807433 -0.447767
C23   C     C_3   0.642701 0.456525 0.049131 0.064049
C24   C     C_3   0.507851 0.783767 0.902816 -0.261797
C25   C     C_3   0.646603 0.811769 0.895343 -0.288645
C26   C     C_3   0.671839 0.932333 0.834149 -0.460045
C27   C     C_3   0.747794 0.568832 0.067138 -0.255619
C28   C     C_3   0.765268 0.621444 0.158366 -0.293814
C29   C     C_3   0.881558 0.711251 0.166318 -0.464506
C30   C     C_3   0.696353 0.315200 0.087613 -0.234537
C31   C     C_3   0.621167 0.178590 0.083112 -0.305232
C32   C     C_3   0.702826 0.050569 0.100189 -0.469403
C33   C     C_1   0.500156 0.498686 0.824658 -0.076093
C34   C     C_1   0.505801 0.502054 0.175299 -0.082822
C35   C     C_1   0.502246 0.500849 0.250716 -0.057683
C36   C     C_R   0.063911 0.372280 0.501470 -0.145102
C37   C     C_R   0.063797 0.627741 0.497882 -0.144989
C38   C     C_R   0.936199 0.372265 0.501494 -0.145026
Cu1   Cu    Cu3+1 0.500020 0.640660 0.500000 0.927018
Cu2   Cu    Cu3+1 0.500020 0.359340 0.500000 0.927572
H1    H     H_    0.363980 0.659372 0.941689 0.098321
H2    H     H_    0.646858 0.337417 0.929536 0.098197
H3    H     H_    0.111998 0.272426 0.502916 0.125520
H4    H     H_    0.111797 0.727597 0.496398 0.125025
H5    H     H_    0.888205 0.272406 0.502980 0.125509
H6    H     H_    0.887998 0.727580 0.496454 0.125914
H7    H     H_    0.365002 0.131021 0.403456 0.105425
H8    H     H_    0.365006 0.869873 0.403458 0.104955
H9    H     H_    0.400793 0.060030 0.780244 0.157003
H10   H     H_    0.288749 0.998428 0.856324 0.136874
H11   H     H_    0.238008 0.068809 0.756531 0.146021
H12   H     H_    0.306642 0.443258 0.934375 0.116364
H13   H     H_    0.206914 0.242535 0.871149 0.145876
H14   H     H_    0.315851 0.304278 0.794366 0.175988
H15   H     H_    0.488669 0.216967 0.890057 0.144810
H16   H     H_    0.374992 0.168141 0.965786 0.130758
H17   H     H_    0.636406 0.906422 0.770319 0.148047
H18   H     H_    0.627266 0.030327 0.856489 0.141555
H19   H     H_    0.772870 0.950726 0.830030 0.134720
H20   H     H_    0.683868 0.843832 0.957281 0.147893
H21   H     H_    0.695355 0.717953 0.871680 0.164142
H22   H     H_    0.467431 0.779740 0.838363 0.153245
H23   H     H_    0.634773 0.868972 0.596794 0.103624
H24   H     H_    0.465372 0.876669 0.933811 0.127825
H25   H     H_    0.964815 0.647548 0.152025 0.146176
H26   H     H_    0.877030 0.802158 0.122416 0.143946
H27   H     H_    0.889853 0.751600 0.231629 0.148012
H28   H     H_    0.686083 0.687961 0.177241 0.165968
H29   H     H_    0.773646 0.533211 0.203593 0.161116
H30   H     H_    0.837630 0.525096 0.045638 0.122441
H31   H     H_    0.735207 0.661874 0.027230 0.132917
H32   H     H_    0.773429 0.039528 0.050127 0.141672
H33   H     H_    0.749684 0.060473 0.162227 0.155806
H34   H     H_    0.634692 0.130101 0.596853 0.105246
H35   H     H_    0.645146 0.954272 0.101092 0.134436
H36   H     H_    0.549882 0.178905 0.132980 0.159341
H37   H     H_    0.578714 0.165100 0.020532 0.157727
H38   H     H_    0.786109 0.294388 0.056061 0.128576
H39   H     H_    0.718354 0.330126 0.155153 0.144670
H40   H     H_    0.393178 0.691911 0.077214 0.091091
H41   H     H_    0.314569 0.447910 0.072840 0.092457
H42   H     H_    0.406344 0.299472 0.078801 0.106166
H43   H     H_    0.550599 0.732163 0.067520 0.116618
H44   H     H_    0.704581 0.504237 0.918189 0.082839
N1    N     N_R   0.500030 0.852070 0.500020 -0.221932
N2    N     N_R   0.500030 0.147930 0.500020 -0.221952
O1    O     O_R   0.319660 0.618740 0.500000 -0.508368
O2    O     O_R   0.319660 0.381260 0.500000 -0.508732
O3    O     O_R   0.500020 0.618840 0.379440 -0.497899
O4    O     O_R   0.500020 0.381160 0.379440 -0.497060
O5    O     O_R   0.680370 0.618830 0.500010 -0.508023
O6    O     O_R   0.680370 0.381170 0.500010 -0.508226
O7    O     O_R   0.500010 0.618730 0.620560 -0.498083
O8    O     O_R   0.500010 0.381270 0.620560 -0.497715

loop_
_geom_bond_atom_site_label_1
_geom_bond_atom_site_label_2
_ccdc_geom_bond_type
C1    O1    A    
C4    C36   A    
C14   C18   S    
C28   H29   S    
Cu1   O1    S    
C20   H16   S    
C32   H35   S    
C32   H32   S    
C2    H6    S    
C15   C19   S    
C5    H7    S    
C12   C23   S    
C6    N1    A    
C6    H8    S    
C13   C18   S    
C5    C6    A    
C28   C29   S    
C28   H28   S    
C34   C35   T    
C30   C31   S    
C7    O3    A    
C12   H44   S    
C8    N1    A    
Cu2   N2    S    
Cu1   O7    S    
C38   H5    S    
C12   H2    S    
C29   H27   S    
C3    C38   A    
C8    C9    A    
C25   H20   S    
C23   C27   S    
C26   H19   S    
C22   H10   S    
C11   O7    A    
C1    O2    A    
C13   H40   S    
C10   O6    A    
C24   H24   S    
C21   C22   S    
C17   C33   T    
C20   H15   S    
Cu1   O5    S    
C31   H37   S    
C4    C37   A    
C15   C20   S    
C18   C23   S    
C23   C30   S    
C24   C25   S    
C19   C33   S    
C32   H33   S    
C25   C26   S    
C7    O4    A    
C9    N2    A    
C18   C34   S    
C31   C32   S    
C25   H21   S    
C15   H12   S    
Cu2   O6    S    
C26   H18   S    
C27   H30   S    
C22   H9    S    
C29   H25   S    
C30   H39   S    
C11   O8    A    
C10   O5    A    
C9    H34   S    
C5    N2    A    
Cu1   Cu2   S    
C27   H31   S    
C11   C17   S    
C24   H22   S    
C7    C35   S    
Cu2   O8    S    
C13   H43   S    
C1    C4    S    
Cu2   O2    S    
C37   H4    S    
C36   C38   A    
C2    C3    A    
C3    C10   S    
C21   H13   S    
C14   H42   S    
C2    C37   A    
C31   H36   S    
C21   H14   S    
C16   C19   S    
C12   C19   S    
C26   H17   S    
C8    H23   S    
C29   H26   S    
C30   H38   S    
C20   C21   S    
C16   C24   S    
C13   C16   S    
C27   C28   S    
Cu1   N1    S    
C14   C15   S    
C36   H3    S    
C14   H41   S    
Cu2   O4    S    
C16   H1    S    
Cu1   O3    S    
C22   H11   S    
