data_mof_unit_58791.cif
_audit_creation_date              2013-03-05T15:45:11-0500
_audit_creation_method            fapswitch 2.2
_symmetry_space_group_name_H-M    P1
_symmetry_Int_Tables_number       1
_space_group_crystal_system       triclinic
_cell_length_a                    11.495838
_cell_length_b                    11.521269
_cell_length_c                    19.485171
_cell_angle_alpha                 90.501825
_cell_angle_beta                  89.714201
_cell_angle_gamma                 60.240769
_cell_volume                      2240.17832646

loop_
_atom_site_label
_atom_site_type_symbol
_atom_site_description
_atom_site_fract_x
_atom_site_fract_y
_atom_site_fract_z
_atom_type_partial_charge
O1    O     O_R   0.267740 0.231990 0.575440 -0.495542
O2    O     O_R   0.527280 0.186680 0.570530 -0.496858
C1    C     C_R   0.640529 0.117705 0.599082 0.550843
O3    O     O_R   0.728090 0.003480 0.576380 -0.500977
O4    O     O_R   0.682970 0.789220 0.570490 -0.497601
C2    C     C_R   0.612544 0.745446 0.598455 0.546424
O5    O     O_R   0.499290 0.771920 0.575530 -0.502545
O6    O     O_R   0.285330 0.030900 0.569730 -0.491313
C3    C     C_R   0.239883 0.145650 0.597903 0.557311
O7    O     O_R   0.270980 0.227040 0.423900 -0.430920
O8    O     O_R   0.530280 0.182090 0.430050 -0.462504
C4    C     C_R   0.645242 0.110728 0.402244 0.638870
O9    O     O_R   0.731330 0.998530 0.424830 -0.451360
O10   O     O_R   0.685970 0.784630 0.430010 -0.420253
C5    C     C_R   0.622746 0.728094 0.406395 0.610155
O11   O     O_R   0.502530 0.766960 0.423990 -0.525184
O12   O     O_R   0.288330 0.026310 0.429250 -0.493336
C6    C     C_R   0.300648 0.116239 0.393623 0.612506
Cr1   Cr    Cr6+3 0.404720 0.198220 0.499960 1.129549
Cr2   Cr    Cr6+3 0.698290 0.897110 0.500380 1.132378
Cr3   Cr    Cr6+3 0.396970 0.904720 0.499610 1.081524
O13   O     O_3   0.499990 0.000020 0.499980 -0.307493
C7    C     C_1   0.671048 0.647171 0.860247 0.014146
C8    C     C_1   0.654892 0.683425 0.728313 -0.025810
C9    C     C_1   0.664026 0.666995 0.799678 -0.025855
C10   C     C_1   0.641035 0.703352 0.667795 0.015752
C11   C     C_1   0.127861 0.198518 0.859497 0.015897
C12   C     C_1   0.170833 0.170287 0.727650 -0.026293
C13   C     C_1   0.150691 0.182008 0.798986 -0.025070
C14   C     C_1   0.194012 0.161167 0.667150 0.012252
C15   C     C_1   0.678635 0.190727 0.860969 0.016871
C16   C     C_1   0.658286 0.167694 0.729015 -0.026026
C17   C     C_1   0.665566 0.180703 0.800436 -0.025168
C18   C     C_1   0.652734 0.150406 0.668491 0.014037
C19   C     C_R   0.579158 0.614496 0.313744 -0.080933
H1    H     H_    0.490137 0.628828 0.340707 0.199541
C20   C     C_R   0.586739 0.587859 0.244690 0.171647
C21   C     C_R   0.700169 0.570727 0.206863 -0.049230
C22   C     C_R   0.805962 0.573074 0.241476 -0.090367
H2    H     H_    0.896678 0.552512 0.214187 0.202365
C23   C     C_R   0.791582 0.611370 0.310419 0.269651
C24   C     C_R   0.671621 0.642382 0.345217 0.048147
C25   C     C_R   0.271057 0.233987 0.281834 0.230586
C26   C     C_R   0.229451 0.254519 0.213772 0.187689
C27   C     C_R   0.172643 0.181152 0.185065 -0.040773
C28   C     C_R   0.178284 0.072556 0.221870 0.161806
C29   C     C_R   0.222544 0.051453 0.289403 -0.108692
H3    H     H_    0.223273 0.970446 0.317589 0.200676
C30   C     C_R   0.262818 0.134765 0.320957 -0.016470
C31   C     C_R   0.634247 0.067900 0.279298 0.201142
C32   C     C_R   0.643295 0.095151 0.210398 0.237046
C33   C     C_R   0.677181 0.193190 0.195308 0.013550
C34   C     C_R   0.713512 0.253560 0.247259 -0.086025
H4    H     H_    0.754272 0.317357 0.234271 0.112618
C35   C     C_R   0.704195 0.227223 0.315544 0.204265
C36   C     C_R   0.661768 0.136489 0.331640 0.062992
O14   O     O_R   0.821500 0.119550 0.952820 -0.491611
O15   O     O_R   0.037130 0.162750 0.957360 -0.489932
C37   C     C_R   0.082767 0.230941 0.928838 0.557072
O16   O     O_R   0.056440 0.344950 0.951330 -0.489276
O17   O     O_R   0.797900 0.560570 0.957460 -0.487400
C38   C     C_R   0.683897 0.605329 0.929656 0.563781
O18   O     O_R   0.596140 0.579600 0.952720 -0.491625
O19   O     O_R   0.639070 0.321380 0.958660 -0.489408
C39   C     C_R   0.708263 0.206546 0.930294 0.563307
O20   O     O_R   0.821240 0.124490 0.104360 -0.464912
O21   O     O_R   0.036900 0.167320 0.097830 -0.461206
C40   C     C_R   0.088504 0.233100 0.123641 0.554838
O22   O     O_R   0.056190 0.349890 0.102870 -0.475705
O23   O     O_R   0.797670 0.565150 0.097930 -0.464286
C41   C     C_R   0.709779 0.547365 0.132782 0.549534
O24   O     O_R   0.595880 0.584540 0.104260 -0.421702
O25   O     O_R   0.638830 0.325960 0.099140 -0.464145
C42   C     C_R   0.707869 0.211795 0.126386 0.597727
Cr4   Cr    Cr6+3 0.926180 0.152240 0.028110 1.131660
Cr5   Cr    Cr6+3 0.921340 0.452070 0.027460 1.118210
Cr6   Cr    Cr6+3 0.626260 0.447120 0.028700 1.147061
O26   O     O_3   0.824590 0.350480 0.028090 -0.341135
N1    N     N_R   0.624319 0.020023 0.156390 0.113896
O27   O     O_R   0.558692 0.079315 0.101430 -0.285573
O28   O     O_R   0.684241 0.890164 0.158781 -0.239720
Cl1   Cl    Cl    0.752556 0.303349 0.379458 -0.600061
N2    N     N_R   0.470412 0.594648 0.213912 0.120620
O29   O     O_R   0.356588 0.705162 0.219683 -0.215752
O30   O     O_R   0.469016 0.485542 0.198518 -0.254080
Cl2   Cl    Cl    0.922965 0.624082 0.349214 -0.434377
Cl3   Cl    Cl    0.334287 0.335327 0.315308 -0.436000
N3    N     N_R   0.242956 0.352352 0.174439 0.134596
O31   O     O_R   0.179095 0.477725 0.193165 -0.195956
O32   O     O_R   0.309999 0.318063 0.116824 -0.251368
N4    N     N_R   0.136958 0.984340 0.192363 0.122233
O33   O     O_R   0.191810 0.920516 0.135263 -0.233029
O34   O     O_R   0.062209 0.950705 0.227771 -0.269142
Cl4   Cl    Cl    0.582176 0.952244 0.299255 -0.576772

loop_
_geom_bond_atom_site_label_1
_geom_bond_atom_site_label_2
_geom_bond_distance
_ccdc_geom_bond_type
O6    C3    1.273150 A    
C35   C36   1.392624 A    
O11   Cr3   2.047437 S    
C11   C13   1.199442 T    
C23   C24   1.409416 A    
C19   H1    1.084411 S    
C29   C30   1.395470 A    
O4    Cr2   1.920168 S    
C2    C10   1.423428 S    
C34   H4    1.080659 S    
C33   C34   1.401146 A    
C23   Cl2   1.761560 S    
O8    Cr1   1.919182 S    
C20   C21   1.419482 A    
Cr5   O26   1.974730 S    
C12   C13   1.402293 S    
C19   C20   1.370140 A    
C8    C10   1.199543 T    
C33   C42   1.431539 S    
C21   C22   1.405415 A    
C5    O11   1.267354 A    
O20   C42   1.256985 A    
O22   Cr5   2.046820 S    
O25   C42   1.273560 A    
C19   C24   1.396863 A    
O24   Cr6   2.049746 S    
C21   C41   1.459566 S    
C7    C38   1.423411 S    
C29   H3    1.083523 S    
C40   O22   1.275614 A    
C15   C17   1.201555 T    
O23   C41   1.313444 A    
Cr6   O26   1.979278 S    
C37   O16   1.266080 A    
Cr3   O13   1.974584 S    
O15   Cr4   1.918500 S    
O12   C6    1.316334 A    
C34   C35   1.382666 A    
O17   Cr5   1.930012 S    
O1    Cr1   2.037842 S    
O21   C40   1.273514 A    
O10   Cr2   1.931987 S    
Cr1   O13   1.982736 S    
O1    C3    1.267328 A    
C8    C9    1.402455 S    
C22   C23   1.393440 A    
O14   C39   1.268853 A    
N4    O33   1.301763 A    
N1    O28   1.301362 A    
C25   C30   1.420887 A    
C28   N4    1.435640 S    
C1    C18   1.426950 S    
C31   C32   1.396500 A    
O15   C37   1.270940 A    
O5    Cr3   2.045323 S    
O16   Cr5   2.043986 S    
C31   C36   1.414933 A    
C32   C33   1.398403 A    
C16   C18   1.201593 T    
C25   C26   1.393937 A    
C38   O18   1.265807 A    
N4    O34   1.301518 A    
N2    O29   1.299273 A    
O7    Cr1   2.048178 S    
C27   C40   1.475013 S    
O6    Cr3   1.929469 S    
N3    O31   1.301510 A    
C35   Cl1   1.761004 S    
C4    C36   1.441301 S    
C3    C14   1.423270 S    
N2    O30   1.297628 A    
N3    O32   1.300666 A    
O23   Cr5   1.927300 S    
O21   Cr4   1.930915 S    
C1    O3    1.269300 A    
C22   H2    1.083238 S    
C26   C27   1.413233 A    
O18   Cr6   2.039967 S    
C15   C39   1.426822 S    
C28   C29   1.392507 A    
O9    Cr2   2.035156 S    
O2    Cr1   1.931357 S    
C31   Cl4   1.756039 S    
C5    C24   1.460742 S    
Cr2   O13   1.979827 S    
O8    C4    1.273779 A    
C2    O5    1.265557 A    
C25   Cl3   1.775074 S    
C16   C17   1.405740 S    
O14   Cr4   2.049404 S    
C12   C14   1.199429 T    
O2    C1    1.274310 A    
C41   O24   1.288981 A    
C11   C37   1.423285 S    
O19   C39   1.275424 A    
O4    C2    1.269834 A    
O7    C6    1.283189 A    
O20   Cr4   2.034286 S    
C7    C9    1.199532 T    
O17   C38   1.272031 A    
Cr4   O26   1.983062 S    
C32   N1    1.441524 S    
N1    O27   1.300744 A    
O3    Cr2   2.049946 S    
C27   C28   1.421106 A    
C4    O9    1.260324 A    
O19   Cr6   1.932478 S    
O25   Cr6   1.920577 S    
O10   C5    1.277628 A    
C20   N2    1.434949 S    
C26   N3    1.438620 S    
C6    C30   1.469286 S    
O12   Cr3   1.927616 S    
