data_mof_unit_47392.cif
_audit_creation_date              2013-03-05T15:40:11-0500
_audit_creation_method            fapswitch 2.2
_symmetry_space_group_name_H-M    P1
_symmetry_Int_Tables_number       1
_space_group_crystal_system       triclinic
_cell_length_a                    7.45121
_cell_length_b                    8.711342
_cell_length_c                    12.95657
_cell_angle_alpha                 88.046935
_cell_angle_beta                  78.627003
_cell_angle_gamma                 101.981668
_cell_volume                      804.06365419

loop_
_atom_site_label
_atom_site_type_symbol
_atom_site_description
_atom_site_fract_x
_atom_site_fract_y
_atom_site_fract_z
_atom_type_partial_charge
O1    O     O_R   0.621060 0.286250 0.492350 -0.561671
O2    O     O_R   0.378940 0.713750 0.507650 -0.561675
O3    O     O_R   0.306310 0.256580 0.512240 -0.608342
O4    O     O_R   0.693690 0.743420 0.487760 -0.608321
C1    C     C_R   0.454258 0.200510 0.506202 0.852295
C2    C     C_R   0.545742 0.799490 0.493794 0.852312
O5    O     O_R   0.631800 0.512400 0.642670 -0.597846
O6    O     O_R   0.368200 0.487600 0.357330 -0.597854
O7    O     O_R   0.317060 0.482730 0.662570 -0.519402
O8    O     O_R   0.682940 0.517270 0.337430 -0.519447
C3    C     C_R   0.464689 0.492617 0.701685 0.852675
C4    C     C_R   0.535309 0.507385 0.298316 0.852701
Cu1   Cu    Cu3+1 0.686350 0.517570 0.488220 1.035640
Cu2   Cu    Cu3+1 0.313650 0.482430 0.511780 1.035637
N1    N     N_2   0.033570 0.455950 0.529530 -0.202004
N2    N     N_2   0.966430 0.544050 0.470470 -0.202021
C5    C     C_R   0.558101 0.517096 0.183952 -0.168498
C6    C     C_R   0.441889 0.482903 0.816052 -0.168516
C7    C     C_R   0.261267 0.391917 0.992425 -0.161401
C8    C     C_R   0.738736 0.608067 0.007580 -0.161445
C9    C     C_R   0.272151 0.403300 0.883897 0.334481
C10   C     C_R   0.727830 0.596710 0.116111 0.334532
C11   C     C_R   0.595951 0.550984 0.858019 -0.182040
C12   C     C_R   0.404052 0.448991 0.141984 -0.182039
C13   C     C_R   0.584159 0.540089 0.966208 0.092390
C14   C     C_R   0.415850 0.459881 0.033794 0.092371
H1    H     H_    0.274407 0.386893 0.193684 0.196135
H2    H     H_    0.725598 0.613077 0.806318 0.196162
H3    H     H_    0.131664 0.330206 0.044260 0.194776
H4    H     H_    0.868335 0.669793 0.955750 0.194735
H5    H     H_    0.933954 0.376232 0.582678 0.245547
H6    H     H_    0.066045 0.623767 0.417322 0.245540
C15   C     C_2   0.434410 0.035461 0.526826 -0.222546
C16   C     C_2   0.565592 0.964539 0.473165 -0.222603
N3    N     N_R   0.888059 0.670686 0.155695 0.121560
O9    O     O_R   0.944991 0.823034 0.142991 -0.341862
O10   O     O_R   0.999772 0.586016 0.181143 -0.358260
N4    N     N_R   0.111868 0.329394 0.844328 0.121508
O11   O     O_R   0.054536 0.177087 0.857302 -0.341779
O12   O     O_R   0.000408 0.414191 0.818715 -0.358239
C17   C     C_2   0.286735 0.961719 0.621065 0.397936
H7    H     H_    0.156211 0.001756 0.638906 0.108580
O13   O     O_2   0.313723 0.864230 0.682930 -0.508197
C18   C     C_2   0.713265 0.038274 0.378923 0.398003
H8    H     H_    0.843749 0.998190 0.361057 0.108680
O14   O     O_2   0.686312 0.135807 0.317077 -0.508189

loop_
_geom_bond_atom_site_label_1
_geom_bond_atom_site_label_2
_geom_bond_distance
_ccdc_geom_bond_type
C4    C5    1.455286 S    
O5    C3    1.300485 A    
O7    Cu2   1.958975 S    
C3    C6    1.455312 S    
N1    H5    1.029173 S    
N2    H6    1.029174 S    
C6    C9    1.417399 A    
C17   O13   1.221585 D    
C17   H7    1.085641 S    
C5    C10   1.417357 A    
C12   H1    1.085197 S    
O6    C4    1.300463 A    
C15   C17   1.495821 S    
C15   C16   1.353711 D    
C8    H4    1.084742 S    
Cu1   Cu2   2.684273 S    
N4    O12   1.300873 A    
C10   N3    1.431191 S    
O7    C3    1.287558 A    
O2    C2    1.285410 A    
O3    Cu2   1.956607 S    
O8    C4    1.287568 A    
C6    C11   1.396664 A    
O1    C1    1.285409 A    
C7    C9    1.391354 A    
C18   O14   1.221568 D    
C11   C13   1.385844 A    
N4    O11   1.300883 A    
O2    Cu2   1.968641 S    
C5    C12   1.396645 A    
O1    Cu1   1.968641 S    
C8    C13   1.395196 A    
C8    C10   1.391352 A    
N1    N2    1.301997 D    
C7    H3    1.084744 S    
C2    C16   1.424953 S    
O5    Cu1   1.958897 S    
C16   C18   1.495829 S    
C18   H8    1.085600 S    
O4    C2    1.285353 A    
Cu1   N2    2.017081 S    
O4    Cu1   1.956606 S    
C7    C14   1.395179 A    
Cu2   N1    2.017082 S    
O6    Cu2   1.958896 S    
N3    O10   1.300854 A    
C13   C14   1.410379 A    
C11   H2    1.085195 S    
C9    N4    1.431228 S    
N3    O9    1.300847 A    
C12   C14   1.385840 A    
O3    C1    1.285354 A    
O8    Cu1   1.958972 S    
C1    C15   1.424948 S    
