data_mof_unit_32826.cif
_audit_creation_date              2013-03-05T16:05:10-0500
_audit_creation_method            fapswitch 2.2
_symmetry_space_group_name_H-M    P1
_symmetry_Int_Tables_number       1
_space_group_crystal_system       triclinic
_cell_length_a                    11.087462
_cell_length_b                    9.651853
_cell_length_c                    11.172952
_cell_angle_alpha                 87.697836
_cell_angle_beta                  96.880412
_cell_angle_gamma                 89.32358
_cell_volume                      1185.93315547

loop_
_atom_site_label
_atom_site_type_symbol
_atom_site_description
_atom_site_fract_x
_atom_site_fract_y
_atom_site_fract_z
_atom_type_partial_charge
O1    O     O_R   0.319660 0.618740 0.499990 -0.539985
O2    O     O_R   0.319660 0.381260 0.499990 -0.540318
C1    C     C_R   0.261876 0.500617 0.497072 0.932373
O3    O     O_R   0.499990 0.618790 0.317690 -0.526719
O4    O     O_R   0.499990 0.381210 0.317690 -0.518416
C2    C     C_R   0.495805 0.502901 0.259653 0.979570
Cu1   Cu    Cu3+1 0.500020 0.640660 0.500000 1.192275
Cu2   Cu    Cu3+1 0.500020 0.359340 0.500000 1.191892
O5    O     O_R   0.680370 0.618830 0.500010 -0.538045
O6    O     O_R   0.680370 0.381170 0.500010 -0.533398
O7    O     O_R   0.500030 0.618780 0.682310 -0.522414
O8    O     O_R   0.500030 0.381220 0.682310 -0.522503
C3    C     C_R   0.737025 0.499445 0.496577 0.922291
C4    C     C_R   0.499416 0.498569 0.740151 1.014233
C5    C     C_3   0.443886 0.653612 0.058003 0.484408
C6    C     C_3   0.406681 0.386390 0.064341 0.471090
C7    C     C_3   0.463199 0.657154 0.917903 0.365413
C8    C     C_3   0.389973 0.396665 0.918485 0.405218
C9    C     C_3   0.629167 0.480413 0.089798 0.470096
C10   C     C_3   0.493937 0.507143 0.121138 -0.533878
C11   C     C_3   0.493442 0.499523 0.877967 -0.577096
C12   C     C_3   0.623976 0.450308 0.950423 0.507981
C13   C     C_R   0.065947 0.374629 0.515100 0.259315
C14   C     C_R   0.057328 0.624569 0.472028 0.238706
C15   C     C_R   0.939179 0.373735 0.510633 0.244472
C16   C     C_R   0.930356 0.624150 0.467748 0.250171
C17   C     C_R   0.869936 0.498646 0.489652 -0.302101
C18   C     C_R   0.127170 0.500476 0.496189 -0.278230
C19   C     C_R   0.419021 0.077632 0.423308 0.434686
C20   C     C_R   0.419446 0.930569 0.423411 0.437947
N1    N     N_R   0.500030 0.852070 0.500030 -0.303083
N2    N     N_R   0.500030 0.147930 0.500030 -0.309555
C21   C     C_R   0.585832 0.923156 0.573740 0.303167
C22   C     C_R   0.574965 0.069147 0.582437 0.295574
Cl1   Cl    Cl    0.508428 0.806599 0.129567 -0.236822
Cl2   Cl    Cl    0.465099 0.215728 0.117768 -0.262665
N3    N     N_R   0.694233 0.857746 0.638545 0.192817
O9    O     O_R   0.694930 0.734205 0.686944 -0.237072
O10   O     O_R   0.789913 0.931446 0.667845 -0.162320
N4    N     N_R   0.625743 0.126210 0.692213 0.199310
O11   O     O_R   0.699324 0.229440 0.691740 -0.232977
O12   O     O_R   0.621085 0.053155 0.791864 -0.146137
Cl3   Cl    Cl    0.289150 0.683901 0.083740 -0.286550
Cl4   Cl    Cl    0.264893 0.385020 0.128366 -0.309734
N5    N     N_R   0.361194 0.731521 0.838182 0.203810
O13   O     O_R   0.384355 0.832740 0.763927 -0.209361
O14   O     O_R   0.246805 0.711725 0.846791 -0.169475
N6    N     N_R   0.267270 0.443392 0.863277 0.183531
O15   O     O_R   0.255169 0.483993 0.750201 -0.354440
O16   O     O_R   0.171151 0.386272 0.898643 -0.120029
Cl5   Cl    Cl    0.593753 0.765133 0.899938 -0.251872
Cl6   Cl    Cl    0.396309 0.225101 0.857207 -0.248586
Cl7   Cl    Cl    0.728899 0.620210 0.130149 -0.290410
Cl8   Cl    Cl    0.711787 0.348042 0.188677 -0.324159
Cl9   Cl    Cl    0.752973 0.516727 0.882915 -0.271956
Cl10  Cl    Cl    0.658690 0.272327 0.937496 -0.227911
N7    N     N_R   0.130729 0.244926 0.541429 0.186207
O17   O     O_R   0.195296 0.223583 0.645641 -0.192251
O18   O     O_R   0.100325 0.138551 0.477093 -0.166501
N8    N     N_R   0.112696 0.753528 0.446003 0.185057
O19   O     O_R   0.165359 0.822120 0.535247 -0.201771
O20   O     O_R   0.075412 0.820509 0.344464 -0.146727
N9    N     N_R   0.883336 0.243541 0.533197 0.188322
O21   O     O_R   0.918084 0.173214 0.633480 -0.151454
O22   O     O_R   0.826618 0.179719 0.443184 -0.207058
N10   N     N_R   0.864824 0.753951 0.440553 0.182109
O23   O     O_R   0.903794 0.865586 0.492763 -0.166081
O24   O     O_R   0.784411 0.767813 0.346143 -0.209924
Cl11  Cl    Cl    0.301970 0.166472 0.333597 -0.300243
Cl12  Cl    Cl    0.321313 0.849482 0.317365 -0.291813

loop_
_geom_bond_atom_site_label_1
_geom_bond_atom_site_label_2
_geom_bond_distance
_ccdc_geom_bond_type
O4    Cu2   2.039358 S    
N10   O24   1.298452 A    
N1    C21   1.388205 A    
C5    C7    1.604208 S    
C19   C20   1.419340 A    
Cu2   O8    2.056265 S    
C15   C17   1.417808 A    
C8    C11   1.619216 S    
C2    C10   1.544167 S    
C6    Cl4   1.803455 S    
C16   N10   1.443896 S    
C3    C17   1.484853 S    
C9    C10   1.600359 S    
C6    C10   1.623578 S    
C14   N8    1.429126 S    
Cu1   O5    2.008205 S    
C9    Cl7   1.791994 S    
N9    O22   1.301454 A    
O2    C1    1.308900 A    
C16   C17   1.417974 A    
C5    Cl3   1.795725 S    
Cu1   Cu2   2.715259 S    
N3    O10   1.300728 A    
O1    Cu1   2.013365 S    
C11   C12   1.627207 S    
C6    Cl2   1.814470 S    
N8    O20   1.303189 A    
Cu1   O7    2.039389 S    
N6    O16   1.301193 A    
C7    Cl5   1.819389 S    
N7    O17   1.299303 A    
C12   Cl9   1.807420 S    
O3    Cu1   2.056228 S    
C22   N4    1.421547 S    
O4    C2    1.316244 A    
C9    Cl8   1.818931 S    
N4    O12   1.300415 A    
N4    O11   1.295428 A    
C20   Cl12  1.727992 S    
N3    O9    1.288901 A    
C14   C16   1.402932 A    
C21   N3    1.450594 S    
C21   C22   1.421014 A    
C19   N2    1.370605 A    
C19   Cl11  1.737020 S    
N5    O14   1.299144 A    
C20   N1    1.361551 A    
Cu2   O6    2.013153 S    
O7    C4    1.305714 A    
O2    Cu2   2.008396 S    
N7    O18   1.301499 A    
O3    C2    1.313799 A    
C1    C18   1.492419 S    
C8    Cl6   1.820873 S    
N9    O21   1.301499 A    
Cu2   N2    2.040484 S    
N5    O13   1.304055 A    
O8    C4    1.326739 A    
C13   C15   1.400584 A    
N10   O23   1.299640 A    
C4    C11   1.549534 S    
C6    C8    1.616826 S    
C9    C12   1.589960 S    
C15   N9    1.433981 S    
C5    Cl1   1.820583 S    
C13   N7    1.438116 S    
O5    C3    1.309988 A    
N6    O15   1.298499 A    
C12   Cl10  1.771339 S    
N2    C22   1.364479 A    
C13   C18   1.419162 A    
C5    C10   1.616060 S    
Cu1   N1    2.040513 S    
C7    C11   1.644576 S    
C14   C18   1.417428 A    
C7    N5    1.508572 S    
N8    O19   1.302356 A    
O1    C1    1.314000 A    
O6    C3    1.310888 A    
C8    N6    1.482180 S    
