data_mof_unit_15695.cif
_audit_creation_date              2012-12-10T17:11:28-0500
_audit_creation_method            fapswitch 2.2
_symmetry_space_group_name_H-M    P1
_symmetry_Int_Tables_number       1
_space_group_crystal_system       triclinic
_cell_length_a                    15.016189
_cell_length_b                    12.961145
_cell_length_c                    11.748764
_cell_angle_alpha                 98.84599
_cell_angle_beta                  94.261604
_cell_angle_gamma                 90.100365
_cell_volume                      2252.97940332

loop_
_atom_site_label
_atom_site_type_symbol
_atom_type_description
_atom_site_fract_x
_atom_site_fract_y
_atom_site_fract_z
_atom_type_partial_charge
C1    C     C_R   0.499596 0.300020 0.480028 0.886544
C2    C     C_R   0.501029 0.699974 0.519686 0.873857
C3    C     C_R   0.051650 0.325433 0.556387 0.158594
C4    C     C_R   0.946792 0.655987 0.407021 0.160841
C5    C     C_R   0.511807 0.811274 0.525359 -0.213696
C6    C     C_R   0.489782 0.188479 0.472379 -0.216449
C7    C     C_R   0.388827 0.039091 0.438096 0.555891
C8    C     C_R   0.614480 0.959223 0.555001 0.557088
C9    C     C_R   0.406064 0.144736 0.436168 -0.407106
C10   C     C_R   0.595593 0.854711 0.562000 -0.410748
C11   C     C_R   0.558061 0.130132 0.517819 0.459916
C12   C     C_R   0.446013 0.868281 0.472894 0.435245
C13   C     C_R   0.544787 0.021958 0.515729 -0.171726
C14   C     C_R   0.459094 0.976406 0.475675 -0.174453
C15   C     C_R   0.402534 0.423062 0.025977 -0.372262
C16   C     C_R   0.597131 0.577874 0.973880 -0.380682
C17   C     C_R   0.415475 0.422819 0.146152 0.611226
C18   C     C_R   0.583364 0.578966 0.853893 0.593711
C19   C     C_R   0.542006 0.535743 0.156108 0.605733
C20   C     C_R   0.458414 0.463874 0.843984 0.600936
C21   C     C_R   0.535566 0.528456 0.032809 -0.153628
C22   C     C_R   0.464755 0.471425 0.967166 -0.156667
C23   C     C_R   0.329131 0.500676 0.500085 0.851465
C24   C     C_R   0.671143 0.498755 0.500119 0.865283
C25   C     C_R   0.809980 0.569290 0.444926 -0.226649
C26   C     C_R   0.189133 0.414025 0.524352 -0.219617
C27   C     C_R   0.767974 0.497339 0.500224 -0.192718
C28   C     C_R   0.232782 0.501820 0.500294 -0.171867
C29   C     C_R   0.818186 0.426290 0.556581 0.506144
C30   C     C_R   0.185208 0.590366 0.477856 0.477362
C31   C     C_R   0.910299 0.416846 0.541564 -0.110530
C32   C     C_R   0.091073 0.585815 0.465073 -0.104994
C33   C     C_R   0.953514 0.496392 0.494922 -0.090092
C34   C     C_R   0.046927 0.497963 0.495105 -0.090477
C35   C     C_R   0.903158 0.574602 0.448609 0.017127
C36   C     C_R   0.096223 0.412045 0.526212 0.026590
C37   C     C_R   0.959409 0.330442 0.571564 0.455344
C38   C     C_R   0.040290 0.666364 0.423586 0.447669
Cu1   Cu    Cu3+1 0.506660 0.507730 0.615930 1.008258
Cu2   Cu    Cu3+1 0.493340 0.492270 0.384070 1.030691
H1    H     H_    0.768901 0.624954 0.406045 0.217970
H2    H     H_    0.229275 0.349040 0.544583 0.198357
H3    H     H_    0.343076 0.386192 0.979977 0.197005
H4    H     H_    0.656121 0.615916 0.019719 0.200660
H5    H     H_    0.648061 0.803970 0.587525 0.171278
H6    H     H_    0.352551 0.195440 0.413635 0.173684
N1    N     N_R   0.516670 0.519360 0.790130 -0.262376
N2    N     N_R   0.483330 0.480640 0.209870 -0.266884
O1    O     O_R   0.504720 0.354460 0.582000 -0.583956
O2    O     O_R   0.495280 0.645540 0.418000 -0.578654
O3    O     O_R   0.493480 0.341410 0.386200 -0.570103
O4    O     O_R   0.506520 0.658590 0.613800 -0.576970
O5    O     O_R   0.375880 0.506510 0.597910 -0.559782
O6    O     O_R   0.624120 0.493490 0.402090 -0.543818
O7    O     O_R   0.364640 0.493450 0.402110 -0.522316
O8    O     O_R   0.635360 0.506550 0.597890 -0.535454
O9    O     O_3   0.777091 0.368473 0.627809 -0.525205
C39   C     C_3   0.791921 0.421016 0.742531 -0.292185
H7    H     H_    0.863985 0.424142 0.772362 0.140605
H8    H     H_    0.756411 0.378455 0.800843 0.156987
H9    H     H_    0.766071 0.501831 0.751982 0.209408
O10   O     O_3   0.230792 0.682283 0.473385 -0.517822
C40   C     C_3   0.252205 0.732759 0.587928 -0.233363
H10   H     H_    0.197805 0.726918 0.646432 0.107919
H11   H     H_    0.263410 0.817135 0.586761 0.220690
H12   H     H_    0.314890 0.701455 0.624517 0.157388
O11   O     O_3   0.914218 0.244420 0.597533 -0.494055
C41   C     C_3   0.938536 0.227418 0.711931 -0.179206
H13   H     H_    0.876965 0.221892 0.757307 0.153832
H14   H     H_    0.982298 0.289430 0.764643 0.119124
H15   H     H_    0.972321 0.151166 0.709562 0.195015
O12   O     O_3   0.082637 0.748964 0.386622 -0.520756
C42   C     C_3   0.076022 0.840289 0.468619 -0.136802
H16   H     H_    0.078678 0.824965 0.559599 0.101617
H17   H     H_    0.014176 0.882990 0.449552 0.202791
H18   H     H_    0.133096 0.892903 0.461936 0.224270
Br1   Br    Br    0.114186 0.196842 0.569596 -0.568257
Br2   Br    Br    0.880797 0.752390 0.323623 -0.518235
O13   O     O_3   0.367787 0.817961 0.423603 -0.524797
C43   C     C_3   0.369681 0.797691 0.301980 -0.138721
H19   H     H_    0.397821 0.719680 0.274781 0.160234
H20   H     H_    0.406777 0.857793 0.265112 0.088762
H21   H     H_    0.299950 0.795570 0.263186 0.200923
O14   O     O_3   0.637910 0.179665 0.562039 -0.501924
C44   C     C_3   0.639476 0.201096 0.684052 -0.136304
H22   H     H_    0.598837 0.145846 0.723631 0.074699
H23   H     H_    0.617593 0.282012 0.711641 0.164811
H24   H     H_    0.709329 0.195845 0.720073 0.192894
O15   O     O_3   0.301990 0.998930 0.418804 -0.527772
C45   C     C_3   0.257901 0.027330 0.317925 -0.281955
H25   H     H_    0.302820 0.025689 0.246317 0.117088
H26   H     H_    0.226745 0.105040 0.337503 0.191996
H27   H     H_    0.203102 0.970035 0.287180 0.203250
O16   O     O_3   0.701819 0.998164 0.572178 -0.498900
C46   C     C_3   0.747408 0.969432 0.671941 -0.281061
H28   H     H_    0.776985 0.890869 0.651859 0.167470
H29   H     H_    0.704015 0.973039 0.745340 0.114483
H30   H     H_    0.803584 0.025397 0.700195 0.189080
O17   O     O_3   0.390978 0.404804 0.777279 -0.552664
C47   C     C_3   0.407428 0.296796 0.773608 -0.260745
H31   H     H_    0.389131 0.256354 0.684731 0.199919
H32   H     H_    0.363560 0.263019 0.830536 0.152259
H33   H     H_    0.478128 0.277849 0.796892 0.108348
O18   O     O_3   0.610062 0.593711 0.223030 -0.550427
C48   C     C_3   0.598210 0.702154 0.222704 -0.272976
H34   H     H_    0.534210 0.723408 0.178220 0.103037
H35   H     H_    0.654485 0.733905 0.182152 0.185058
H36   H     H_    0.601776 0.742799 0.313016 0.199866
O19   O     O_3   0.641181 0.633847 0.798229 -0.560753
C49   C     C_3   0.637659 0.741460 0.841391 -0.332745
H37   H     H_    0.669251 0.759676 0.930795 0.154085
H38   H     H_    0.567931 0.770583 0.837173 0.164704
H39   H     H_    0.676515 0.784641 0.787010 0.176960
O20   O     O_3   0.355069 0.371669 0.201957 -0.535826
C50   C     C_3   0.356746 0.263327 0.162026 -0.322464
H40   H     H_    0.425653 0.232157 0.169548 0.163925
H41   H     H_    0.326858 0.243865 0.071881 0.143791
H42   H     H_    0.315373 0.223130 0.216439 0.178833

loop_
_geom_bond_atom_site_label_1
_geom_bond_atom_site_label_2
_ccdc_geom_bond_type
C40   H11   S    
C8    C13   A    
C27   C29   A    
C42   H16   S    
C46   H28   S    
C18   O19   S    
C18   N1    A    
C6    C9    A    
O20   C50   S    
O9    C39   S    
C46   H30   S    
C15   C22   A    
C44   H22   S    
C48   H35   S    
C16   C21   A    
C19   C21   A    
C24   O6    A    
C50   H40   S    
C7    O15   S    
C12   O13   S    
C15   C17   A    
Cu2   N2    S    
C49   H37   S    
C2    O2    A    
C7    C14   A    
Cu1   O8    S    
C41   H13   S    
C50   H41   S    
C24   C27   S    
C32   C38   A    
C16   H4    S    
C17   N2    A    
C50   H42   S    
C39   H9    S    
Cu1   O4    S    
C40   H12   S    
C9    H6    S    
C21   C22   A    
C42   H17   S    
C43   H21   S    
O18   C48   S    
C17   O20   S    
C23   O5    A    
C44   H23   S    
C48   H36   S    
C38   O12   S    
C31   C33   A    
C29   O9    S    
O11   C41   S    
C8    O16   S    
O14   C44   S    
C5    C12   A    
C43   H20   S    
C25   H1    S    
Cu1   Cu2   S    
C19   N2    A    
C43   H19   S    
C39   H7    S    
C47   H33   S    
C40   H10   S    
C32   C34   A    
C4    Br2   S    
O10   C40   S    
C19   O18   S    
C45   H26   S    
O17   C47   S    
Cu2   O7    S    
C10   H5    S    
C47   H32   S    
C33   C34   A    
C16   C18   A    
C23   C28   S    
C1    O3    A    
C49   H39   S    
C2    O4    A    
C25   C35   A    
C26   C36   A    
Cu1   O1    S    
C12   C14   A    
Cu2   O6    S    
C30   O10   S    
C42   H18   S    
C2    C5    S    
C24   O8    A    
C3    Br1   S    
C6    C11   A    
C26   H2    S    
C45   H27   S    
Cu1   N1    S    
C44   H24   S    
C7    C9    A    
C8    C10   A    
C20   C22   A    
O12   C42   S    
C46   H29   S    
C23   O7    A    
C11   O14   S    
C25   C27   A    
Cu2   O3    S    
C48   H34   S    
C26   C28   A    
C28   C30   A    
C15   H3    S    
C5    C10   A    
C29   C31   A    
O19   C49   S    
C30   C32   A    
C11   C13   A    
C45   H25   S    
Cu1   O5    S    
C20   O17   S    
C1    O1    A    
C3    C36   A    
C41   H15   S    
Cu2   O2    S    
C37   O11   S    
C47   H31   S    
C33   C35   A    
C34   C36   A    
O16   C46   S    
C49   H38   S    
C4    C35   A    
C20   N1    A    
O13   C43   S    
C31   C37   A    
C3    C37   A    
C41   H14   S    
C1    C6    S    
C4    C38   A    
O15   C45   S    
C13   C14   A    
C39   H8    S    
