data_mof_unit_56176.cif
_audit_creation_date              2012-12-10T17:03:23-0500
_audit_creation_method            fapswitch 2.2
_symmetry_space_group_name_H-M    P1
_symmetry_Int_Tables_number       1
_space_group_crystal_system       triclinic
_cell_length_a                    15.065746
_cell_length_b                    11.133938
_cell_length_c                    9.98584
_cell_angle_alpha                 111.135351
_cell_angle_beta                  97.751806
_cell_angle_gamma                 91.783085
_cell_volume                      1542.30633025

loop_
_atom_site_label
_atom_site_type_symbol
_atom_type_description
_atom_site_fract_x
_atom_site_fract_y
_atom_site_fract_z
_atom_type_partial_charge
C1    C     C_R   0.490123 0.255514 0.441464 0.910822
C2    C     C_R   0.506507 0.744938 0.559088 0.863018
C3    C     C_R   0.059453 0.368620 0.649710 0.010966
C4    C     C_R   0.944138 0.658432 0.379973 -0.022885
C5    C     C_2   0.490843 0.118058 0.410945 -0.329451
C6    C     C_2   0.497034 0.882026 0.591569 -0.267533
C7    C     C_2   0.478981 0.067182 0.512157 -0.022423
C8    C     C_2   0.512217 0.939518 0.497883 -0.176037
C9    C     C_2   0.512010 0.506530 0.082041 -0.075392
C10   C     C_2   0.482616 0.543927 0.948045 -0.085589
C11   C     C_R   0.329758 0.504327 0.502648 0.862560
C12   C     C_R   0.670515 0.497869 0.498288 0.852914
C13   C     C_R   0.808955 0.574475 0.441065 -0.258386
C14   C     C_R   0.193573 0.444605 0.578977 -0.205140
C15   C     C_R   0.766996 0.492868 0.495745 -0.074737
C16   C     C_R   0.234166 0.514861 0.509761 -0.097710
C17   C     C_R   0.817627 0.416331 0.558085 -0.020580
C18   C     C_R   0.183693 0.590515 0.446110 -0.048978
C19   C     C_R   0.912265 0.425824 0.567439 0.042729
C20   C     C_R   0.090023 0.589480 0.447780 0.044826
C21   C     C_R   0.954101 0.505988 0.506875 0.053018
C22   C     C_R   0.048446 0.512689 0.512454 0.043482
C23   C     C_R   0.901709 0.578925 0.440207 0.087584
C24   C     C_R   0.101170 0.442908 0.582907 0.089976
C25   C     C_R   0.966025 0.356825 0.635701 -0.278113
C26   C     C_R   0.037137 0.664452 0.387236 -0.276803
Cu1   Cu    Cu3+1 0.515770 0.521810 0.644910 1.049686
Cu2   Cu    Cu3+1 0.484230 0.478190 0.355090 1.075932
H1    H     H_    0.768152 0.637546 0.403624 0.221866
H2    H     H_    0.234897 0.385783 0.622772 0.197354
H3    H     H_    0.936274 0.295331 0.683284 0.130335
H4    H     H_    0.067379 0.727373 0.341736 0.129590
H5    H     H_    0.466316 0.930554 0.686664 0.199916
H6    H     H_    0.514396 0.063148 0.310598 0.176942
N1    N     N_2   0.460520 0.445420 0.137370 -0.269460
N2    N     N_2   0.539480 0.554580 0.862630 -0.241945
O1    O     O_R   0.508410 0.332340 0.577400 -0.605075
O2    O     O_R   0.491590 0.667660 0.422600 -0.572670
O3    O     O_R   0.481780 0.295500 0.332650 -0.548109
O4    O     O_R   0.518220 0.704500 0.667350 -0.528001
O5    O     O_R   0.383570 0.518390 0.622380 -0.579205
O6    O     O_R   0.616430 0.481610 0.377620 -0.576284
O7    O     O_R   0.356940 0.481550 0.377630 -0.534594
O8    O     O_R   0.643060 0.518450 0.622370 -0.578322
C27   C     C_2   0.771357 0.326988 0.612479 0.389359
H7    H     H_    0.795883 0.323402 0.718048 0.083823
O9    O     O_2   0.705452 0.255787 0.538612 -0.540915
C28   C     C_2   0.228637 0.669832 0.378205 0.409024
H8    H     H_    0.199788 0.668812 0.272196 0.102823
O10   O     O_2   0.297482 0.738757 0.441681 -0.550542
C29   C     C_2   0.109507 0.302787 0.738031 0.362875
H9    H     H_    0.081149 0.211449 0.736691 0.083973
O11   O     O_2   0.179060 0.353529 0.820462 -0.536727
C30   C     C_2   0.895475 0.735543 0.304548 0.413527
H10   H     H_    0.924422 0.830785 0.319131 0.078869
O12   O     O_2   0.826851 0.690452 0.217577 -0.467930
C31   C     C_2   0.567107 0.878877 0.382429 0.974076
O13   O     O_2   0.647858 0.876777 0.415879 -0.501193
O14   O     O_R   0.527945 0.828103 0.236072 -0.697831
H11   H     H_    0.460327 0.831760 0.222263 0.306156
C32   C     C_2   0.429837 0.136653 0.633491 0.894593
O15   O     O_2   0.464676 0.163269 0.759740 -0.620394
O16   O     O_R   0.344400 0.174185 0.601407 -0.771852
H12   H     H_    0.316307 0.217902 0.691409 0.334935
C33   C     C_2   0.398515 0.610253 0.944260 0.914654
O17   O     O_2   0.337824 0.592563 0.006594 -0.613539
O18   O     O_R   0.392007 0.702465 0.879223 -0.688401
H13   H     H_    0.332675 0.743164 0.885546 0.332254
C34   C     C_2   0.607332 0.533326 0.146792 0.943933
O19   O     O_2   0.642037 0.643707 0.200544 -0.482746
O20   O     O_R   0.660281 0.428764 0.126778 -0.754986
H14   H     H_    0.726796 0.456578 0.158510 0.352307
C35   C     C_2   0.622628 0.498974 0.872403 0.668114
H15   H     H_    0.623559 0.395524 0.846258 0.048812
O21   O     O_2   0.693413 0.567015 0.907287 -0.498679
C36   C     C_2   0.383353 0.365316 0.047853 0.745199
H16   H     H_    0.368638 0.348781 0.933074 0.029855
O22   O     O_2   0.333810 0.310490 0.098745 -0.513521

loop_
_geom_bond_atom_site_label_1
_geom_bond_atom_site_label_2
_ccdc_geom_bond_type
C25   H3    S    
C26   H4    S    
C35   H15   S    
C7    C8    S    
C27   H7    S    
C1    C5    S    
C13   H1    S    
C19   C21   A    
C36   O22   D    
C31   O14   S    
C29   H9    S    
C13   C23   A    
C32   O16   S    
C14   C24   A    
C34   O20   S    
C2    O2    A    
C7    C32   S    
C12   O6    A    
Cu1   O8    S    
Cu2   N1    S    
C33   O18   S    
C11   O7    A    
C9    C10   S    
C18   C20   A    
C32   O15   D    
C1    O1    A    
C28   O10   D    
O14   H11   S    
C21   C22   A    
C35   O21   D    
C3    C24   A    
C2    C6    S    
C14   H2    S    
C27   O9    D    
C30   O12   D    
N1    C36   S    
O18   H13   S    
C3    C25   A    
C36   H16   S    
C5    C7    D    
C4    C23   A    
C3    C29   S    
C6    C8    D    
Cu2   O3    S    
C17   C27   S    
C29   O11   D    
C8    C31   S    
C11   C16   S    
Cu1   O5    S    
C12   C15   S    
Cu2   O2    S    
Cu1   O4    S    
C5    H6    S    
C28   H8    S    
C20   C22   A    
C13   C15   A    
C14   C16   A    
C10   C33   S    
C15   C17   A    
C30   H10   S    
C4    C30   S    
C9    C34   S    
C18   C28   S    
C4    C26   A    
Cu1   N2    S    
Cu2   O7    S    
C6    H5    S    
C21   C23   A    
O20   H14   S    
C12   O8    A    
C31   O13   D    
C20   C26   A    
Cu1   O1    S    
Cu2   O6    S    
C17   C19   A    
C11   O5    A    
C22   C24   A    
C34   O19   D    
C19   C25   A    
N2    C35   S    
C1    O3    A    
O16   H12   S    
C2    O4    A    
C16   C18   A    
C33   O17   D    
Cu1   Cu2   S    
C9    N1    D    
C10   N2    D    
