data_mof_unit_43969.cif
_audit_creation_date              2012-12-11T17:47:21-0500
_audit_creation_method            fapswitch 2.2
_symmetry_space_group_name_H-M    P1
_symmetry_Int_Tables_number       1
_space_group_crystal_system       triclinic
_cell_length_a                    14.978717
_cell_length_b                    15.067886
_cell_length_c                    15.254881
_cell_angle_alpha                 110.647006
_cell_angle_beta                  108.852131
_cell_angle_gamma                 108.677861
_cell_volume                      2657.40202412

loop_
_atom_site_label
_atom_site_type_symbol
_atom_type_description
_atom_site_fract_x
_atom_site_fract_y
_atom_site_fract_z
_atom_type_partial_charge
C1    C     C_R   0.917336 0.200537 0.003011 -0.024809
C2    C     C_R   0.023699 0.747562 0.936093 -0.061854
C3    C     C_R   0.322136 0.806774 0.326901 -0.039252
C4    C     C_R   0.678768 0.207485 0.672619 -0.035668
C5    C     C_R   0.311022 0.499358 0.953151 0.026625
C6    C     C_R   0.698210 0.497363 0.067230 0.040146
C7    C     C_R   0.998053 0.494488 0.317397 0.077186
C8    C     C_R   0.065728 0.500642 0.701591 0.096474
C9    C     C_R   0.946190 0.867475 0.849876 -0.102449
C10   C     C_R   0.846278 0.969460 0.933095 -0.083064
C11   C     C_R   0.131895 0.048621 0.733069 0.734710
C12   C     C_R   0.832461 0.928362 0.198317 0.837627
C13   C     C_R   0.046087 0.992778 0.744736 0.308345
C14   C     C_R   0.874893 0.928192 0.128918 0.321181
C15   C     C_R   0.650278 0.255239 0.222823 0.416890
C16   C     C_R   0.395075 0.848498 0.823620 0.437316
C17   C     C_R   0.755044 0.338617 0.304487 0.703676
C18   C     C_R   0.325147 0.737229 0.747496 0.727330
C19   C     C_R   0.842289 0.317687 0.323457 -0.370496
C20   C     C_R   0.212506 0.696103 0.697523 -0.363392
C21   C     C_R   0.823860 0.212998 0.259634 0.336479
C22   C     C_R   0.171339 0.768058 0.722766 0.379613
C23   C     C_R   0.313103 0.773843 0.225334 0.852265
C24   C     C_R   0.686440 0.235135 0.773601 0.850152
C25   C     C_R   0.719296 0.130455 0.177619 -0.192264
C26   C     C_R   0.241383 0.876791 0.803233 -0.284522
C27   C     C_R   0.632590 0.151202 0.159944 -0.168680
C28   C     C_R   0.352903 0.917442 0.852683 -0.200152
C29   C     C_R   0.980412 0.403732 0.509307 -0.135097
C30   C     C_R   0.117726 0.575787 0.506226 -0.142458
C31   C     C_R   0.068275 0.495973 0.606093 0.073818
C32   C     C_R   0.022070 0.490340 0.413524 0.070651
C33   C     C_R   0.137962 0.584464 0.604604 0.251497
C34   C     C_R   0.951723 0.403748 0.414696 0.256056
C35   C     C_R   0.061122 0.021300 0.848675 -0.212510
C36   C     C_R   0.804863 0.866799 0.016719 -0.253507
C37   C     C_R   0.252607 0.141726 0.924509 -0.121094
C38   C     C_R   0.651281 0.819762 0.046122 -0.121268
C39   C     C_R   0.107421 0.928952 0.382415 -0.119935
C40   C     C_R   0.889403 0.080733 0.596102 -0.161287
C41   C     C_R   0.212792 0.969245 0.398306 0.471699
C42   C     C_R   0.787652 0.046340 0.589090 0.486351
C43   C     C_R   0.292505 0.969896 0.479071 -0.180965
C44   C     C_R   0.705381 0.046355 0.511711 -0.171914
C45   C     C_R   0.215756 0.409035 0.914569 0.454436
C46   C     C_R   0.788583 0.588271 0.096633 0.424827
C47   C     C_R   0.267593 0.936513 0.547408 0.770424
C48   C     C_R   0.722936 0.071232 0.436193 0.747766
C49   C     C_R   0.161491 0.893517 0.528584 -0.309157
C50   C     C_R   0.823436 0.100587 0.441375 -0.331483
C51   C     C_R   0.081407 0.889430 0.446017 -0.027846
C52   C     C_R   0.907098 0.106475 0.521811 -0.043769
C53   C     C_R   0.484479 0.094301 0.553955 0.555543
C54   C     C_R   0.515854 0.922580 0.442970 0.551167
C55   C     C_R   0.587833 0.111984 0.572721 -0.115572
C56   C     C_R   0.412682 0.904894 0.424353 -0.109649
C57   C     C_R   0.602611 0.027055 0.511928 -0.002213
C58   C     C_R   0.397331 0.989947 0.483701 -0.012869
C59   C     C_R   0.235595 0.119455 0.821844 -0.236837
C60   C     C_R   0.720618 0.875523 0.157044 -0.327372
C61   C     C_R   0.845625 0.882104 0.944771 0.138563
C62   C     C_R   0.970773 0.970205 0.864739 0.174157
C63   C     C_R   0.165163 0.094956 0.938413 -0.155714
C64   C     C_R   0.693073 0.812850 0.976093 0.069148
C65   C     C_R   0.902991 0.833412 0.908183 0.053577
C66   C     C_R   0.922352 0.024868 0.911040 0.087319
C67   C     C_R   0.026834 0.587991 0.310569 -0.059361
C68   C     C_R   0.008780 0.410226 0.704654 -0.106950
C69   C     C_3   0.482474 0.391802 0.970818 -0.475988
C70   C     C_3   0.525634 0.601522 0.058998 -0.475765
C71   C     C_3   0.449395 0.446675 0.907350 0.491707
C72   C     C_3   0.558933 0.546553 0.122206 0.499212
C73   C     C_3   0.413033 0.499182 0.983965 -0.299829
C74   C     C_3   0.595333 0.494458 0.045288 -0.267344
C75   C     C_3   0.446027 0.445713 0.048424 0.733988
C76   C     C_3   0.561328 0.547666 0.980944 0.714499
C77   C     C_R   0.304337 0.590354 0.003692 0.452036
C78   C     C_R   0.701950 0.408356 0.007081 0.464454
C79   C     C_R   0.948127 0.405481 0.217256 -0.066156
C80   C     C_R   0.094911 0.590905 0.793652 -0.035997
C81   C     C_R   0.220323 0.756680 0.312684 -0.233715
C82   C     C_R   0.781952 0.254140 0.688724 -0.219765
C83   C     C_R   0.007419 0.201045 0.911597 -0.009665
C84   C     C_R   0.926677 0.741274 0.021128 -0.005883
C85   C     C_R   0.953495 0.139740 0.945594 0.062749
C86   C     C_R   0.943949 0.771010 0.949031 0.069058
H1    H     H_    0.861003 0.173796 0.029802 0.127183
H2    H     H_    0.058929 0.759431 0.887066 0.118168
H3    H     H_    0.333076 0.195931 0.993178 0.250547
H4    H     H_    0.564845 0.782259 0.013573 0.239457
H5    H     H_    0.551853 0.086626 0.096772 0.206063
H6    H     H_    0.406439 0.003142 0.911683 0.208995
H7    H     H_    0.705295 0.050516 0.127012 0.200326
H8    H     H_    0.209100 0.930049 0.825688 0.178385
H9    H     H_    0.923103 0.336552 0.507477 0.118195
H10   H     H_    0.171064 0.642380 0.503740 0.141088
H11   H     H_    0.178539 0.114584 0.018629 0.215310
H12   H     H_    0.638208 0.769739 0.890313 0.230364
H13   H     H_    0.999438 0.856886 0.432537 0.268788
H14   H     H_    0.985995 0.132301 0.527438 0.266343
H15   H     H_    0.044836 0.924788 0.318579 0.248892
H16   H     H_    0.955426 0.089421 0.660080 0.203688
H17   H     H_    0.141056 0.863072 0.577805 0.212875
H18   H     H_    0.837001 0.120867 0.384319 0.232478
H19   H     H_    0.980677 0.826009 0.810586 0.181905
H20   H     H_    0.799901 0.003523 0.959160 0.155989
H21   H     H_    0.465518 0.306511 0.936925 0.251868
H22   H     H_    0.542148 0.686248 0.099852 0.250449
H23   H     H_    0.056638 0.669271 0.373229 0.116068
H24   H     H_    0.986782 0.327128 0.653610 0.130362
H25   H     H_    0.916880 0.321111 0.191963 0.148986
H26   H     H_    0.152553 0.674231 0.827877 0.131089
H27   H     H_    0.198290 0.764196 0.373598 0.128501
H28   H     H_    0.806757 0.251932 0.629501 0.137771
H29   H     H_    0.028199 0.173269 0.850134 0.143148
H30   H     H_    0.865843 0.739310 0.043741 0.156725
H31   H     H_    0.301645 0.158820 0.810605 0.219570
H32   H     H_    0.687731 0.879243 0.211039 0.228555
N1    N     N_R   0.947560 0.293820 0.002910 -0.059451
N2    N     N_R   0.052440 0.706180 0.997090 -0.047049
N3    N     N_R   0.208960 0.706170 0.152110 -0.122147
N4    N     N_R   0.791040 0.293830 0.847890 -0.121608
N5    N     N_R   0.154330 0.443160 0.946140 -0.124590
N6    N     N_R   0.845670 0.556840 0.053860 -0.131735
N7    N     N_R   0.002190 0.556820 0.208880 -0.053166
N8    N     N_R   0.997810 0.443180 0.791120 -0.050881
N9    N     N_R   0.210550 0.556810 0.002910 -0.135577
N10   N     N_R   0.789450 0.443190 0.997090 -0.137385
N11   N     N_R   0.945970 0.443180 0.152110 -0.058506
N12   N     N_R   0.054030 0.556820 0.847890 -0.061155
N13   N     N_R   0.151530 0.706170 0.208880 -0.080852
N14   N     N_R   0.848470 0.293830 0.791120 -0.083644
N15   N     N_R   0.004980 0.293810 0.946140 -0.053822
N16   N     N_R   0.995020 0.706190 0.053860 -0.048657
Ni1   Ni    Ni4+2 0.869690 0.369690 0.000000 0.303135
Ni2   Ni    Ni4+2 0.130310 0.630310 0.000000 0.305559
Ni3   Ni    Ni4+2 0.001390 0.369680 0.869810 0.243646
Ni4   Ni    Ni4+2 0.998610 0.630320 0.130190 0.256590
F1    F     F_    0.113221 0.041906 0.637661 -0.655142
F2    F     F_    0.899507 0.982318 0.305911 -0.648707
Cl1   Cl    Cl    0.540893 0.280811 0.198322 -0.439097
Cl2   Cl    Cl    0.535558 0.904458 0.878353 -0.588266
F3    F     F_    0.771871 0.439334 0.365977 -0.578345
F4    F     F_    0.366450 0.670684 0.718687 -0.604965
Cl3   Cl    Cl    0.933227 0.187807 0.276224 -0.590696
Cl4   Cl    Cl    0.031667 0.722912 0.655032 -0.597622
Cl5   Cl    Cl    0.921383 0.888099 0.628894 -0.428584
Cl6   Cl    Cl    0.014793 0.010087 0.182996 -0.482700
F5    F     F_    0.384350 0.395348 0.084617 -0.632462
F6    F     F_    0.621091 0.596700 0.942642 -0.672632
F7    F     F_    0.389764 0.823008 0.204411 -0.615509
F8    F     F_    0.605460 0.189888 0.791597 -0.610604
Cl7   Cl    Cl    0.241477 0.008813 0.310649 -0.469877
Cl8   Cl    Cl    0.766018 0.010196 0.681112 -0.572132
F9    F     F_    0.343742 0.936697 0.625733 -0.648550
F10   F     F_    0.643880 0.070296 0.359923 -0.647212
Cl9   Cl    Cl    0.463270 0.204030 0.616123 -0.439310
Cl10  Cl    Cl    0.537601 0.812643 0.381975 -0.463019
Cl11  Cl    Cl    0.380429 0.385028 0.764753 -0.352567
Cl12  Cl    Cl    0.631185 0.609344 0.264784 -0.299994
Cl13  Cl    Cl    0.161780 0.287240 0.797169 -0.672536
Cl14  Cl    Cl    0.840923 0.717119 0.205344 -0.667800
Cl15  Cl    Cl    0.364737 0.709203 0.000704 -0.617051
Cl16  Cl    Cl    0.648303 0.285927 0.006461 -0.586644

loop_
_geom_bond_atom_site_label_1
_geom_bond_atom_site_label_2
_ccdc_geom_bond_type
C16   C28   A    
C39   C51   A    
N8    Ni3   S    
N15   Ni3   S    
C41   C43   A    
C53   C55   A    
C3    C23   A    
C78   N10   A    
C66   C85   S    
C69   H21   S    
C65   C86   S    
C39   C41   A    
C11   F1    S    
C45   N5    A    
C50   H18   S    
C84   N16   A    
N1    N15   A    
C74   C76   S    
N6    Ni4   S    
C42   Cl8   S    
C84   C86   A    
C13   C35   A    
C67   N7    A    
C14   C36   A    
C71   C76   S    
C4    C24   A    
C81   N13   A    
N8    N12   A    
C9    H19   S    
C78   Cl16  S    
C79   N11   A    
C14   Cl6   S    
C71   C73   S    
C18   C20   A    
N5    Ni3   S    
C1    N1    A    
C2    C86   A    
C1    H1    S    
C69   C71   S    
C45   Cl13  S    
C30   H10   S    
C24   F8    S    
C43   C58   S    
C15   Cl1   S    
C15   C27   A    
C67   H23   S    
C22   Cl4   S    
C49   C51   A    
C3    C81   A    
C50   C52   A    
C12   F2    S    
C27   H5    S    
C43   C47   A    
C38   C64   A    
C77   N9    A    
N6    N10   A    
C64   H12   S    
C48   F10   S    
C84   H30   S    
N11   Ni1   S    
C1    C85   A    
C73   C75   S    
C46   N6    A    
C42   C44   A    
N3    N13   A    
C72   C75   S    
C11   C59   A    
N4    N14   A    
C37   C63   A    
C6    C74   S    
C41   Cl7   S    
C10   C66   A    
C51   H13   S    
C54   C56   A    
C80   N12   A    
C62   C66   A    
C77   Cl15  S    
C83   H29   S    
N9    Ni2   S    
C82   H28   S    
C72   C74   S    
C21   C25   A    
N10   Ni1   S    
C46   Cl14  S    
C29   H9    S    
C2    N2    A    
N14   Ni3   S    
C40   C52   A    
C5    C45   A    
C29   C34   A    
C52   H14   S    
N1    Ni1   S    
C9    C62   A    
N2    Ni2   S    
C32   C34   A    
C16   Cl2   S    
C49   H17   S    
N7    N11   A    
C54   Cl10  S    
C3    C56   S    
N5    N9    A    
C76   F6    S    
C44   C57   S    
C29   C31   A    
C39   H15   S    
C80   H26   S    
C70   C73   S    
C31   C33   A    
C69   C74   S    
C28   H6    S    
C68   H24   S    
C60   H32   S    
C37   C59   A    
C23   N3    A    
C38   C60   A    
C20   C33   S    
C16   C18   A    
C83   C85   A    
C12   C14   A    
C7    C67   A    
C8    C68   A    
C26   H8    S    
C55   C57   A    
C4    C55   S    
C70   C76   S    
C2    H2    S    
C10   H20   S    
C10   C61   A    
C13   Cl5   S    
C5    C77   A    
C36   C61   S    
C68   N8    A    
C7    C79   A    
C15   C17   A    
C23   F7    S    
C7    C32   S    
C6    C46   A    
C30   C33   A    
C19   C21   A    
C8    C31   S    
C26   C28   A    
N12   Ni2   S    
C20   C22   A    
C40   C42   A    
C19   C34   S    
N16   Ni4   S    
C70   C72   S    
C53   C58   A    
C37   H3    S    
N7    Ni4   S    
C25   C27   A    
C71   Cl11  S    
C24   N4    A    
C38   H4    S    
C53   Cl9   S    
C72   Cl12  S    
C79   H25   S    
C17   F3    S    
C25   H7    S    
C18   F4    S    
C63   H11   S    
N13   Ni4   S    
C70   H22   S    
C47   C49   A    
C30   C32   A    
C11   C13   A    
C47   F9    S    
C75   F5    S    
C48   C50   A    
C17   C19   A    
C56   C58   A    
C69   C75   S    
C35   C62   S    
N2    N16   A    
N3    Ni2   S    
C5    C73   S    
C9    C65   A    
N4    Ni1   S    
C83   N15   A    
C6    C78   A    
C40   H16   S    
C12   C60   A    
C61   C65   A    
C4    C82   A    
C59   H31   S    
C22   C26   A    
C81   H27   S    
C8    C80   A    
C35   C63   A    
C36   C64   A    
C82   N14   A    
C44   C48   A    
C21   Cl3   S    
C54   C57   A    
