data_mof_unit_67415.cif
_audit_creation_date              2013-03-05T15:39:48-0500
_audit_creation_method            fapswitch 2.2
_symmetry_space_group_name_H-M    P1
_symmetry_Int_Tables_number       1
_space_group_crystal_system       triclinic
_cell_length_a                    12.130995
_cell_length_b                    12.803525
_cell_length_c                    7.629491
_cell_angle_alpha                 89.725426
_cell_angle_beta                  107.146422
_cell_angle_gamma                 90.621278
_cell_volume                      1132.2722167

loop_
_atom_site_label
_atom_site_type_symbol
_atom_site_description
_atom_site_fract_x
_atom_site_fract_y
_atom_site_fract_z
_atom_type_partial_charge
O1    O     O_R   0.398880 0.887420 0.621600 -0.606627
O2    O     O_R   0.601120 0.112580 0.378400 -0.606621
O3    O     O_R   0.601120 0.887420 0.378400 -0.591936
O4    O     O_R   0.398880 0.112580 0.621600 -0.591931
O5    O     O_R   0.898880 0.387420 0.621600 -0.585208
O6    O     O_R   0.101120 0.612580 0.378400 -0.585206
O7    O     O_R   0.101120 0.387420 0.378400 -0.609776
O8    O     O_R   0.898880 0.612580 0.621600 -0.609773
O9    O     O_R   0.369080 0.887420 0.305440 -0.582499
O10   O     O_R   0.630920 0.112580 0.694560 -0.582500
O11   O     O_R   0.630920 0.887420 0.694560 -0.563803
O12   O     O_R   0.369080 0.112580 0.305440 -0.563803
O13   O     O_R   0.869080 0.387420 0.305440 -0.589460
O14   O     O_R   0.130920 0.612580 0.694560 -0.589464
O15   O     O_R   0.130920 0.387420 0.694560 -0.562481
O16   O     O_R   0.869080 0.612580 0.305440 -0.562479
C1    C     C_R   0.346422 0.854913 0.455462 0.856515
C2    C     C_R   0.653580 0.145084 0.544538 0.856511
C3    C     C_R   0.652823 0.854294 0.544872 0.864905
C4    C     C_R   0.347176 0.145705 0.455127 0.864897
C5    C     C_R   0.845950 0.355463 0.455208 0.870080
C6    C     C_R   0.154051 0.644536 0.544792 0.870080
C7    C     C_R   0.151842 0.353360 0.545457 0.864249
C8    C     C_R   0.848158 0.646639 0.454542 0.864253
Cu1   Cu    Cu3+1 0.517640 0.000000 0.687200 0.987361
Cu2   Cu    Cu3+1 0.482360 1.000000 0.312800 0.987363
Cu3   Cu    Cu3+1 0.017640 0.500000 0.687200 0.988194
Cu4   Cu    Cu3+1 0.982360 0.500000 0.312800 0.988197
C9    C     C_2   0.251909 0.216307 0.433970 -0.071221
C10   C     C_2   0.748088 0.783691 0.566029 -0.071227
C11   C     C_2   0.751929 0.212039 0.560266 -0.055772
C12   C     C_2   0.248076 0.787956 0.439733 -0.055761
C13   C     C_2   0.754870 0.719804 0.429534 -0.050714
C14   C     C_2   0.245129 0.280195 0.570465 -0.050711
C15   C     C_2   0.252772 0.710987 0.561168 -0.096455
C16   C     C_2   0.747230 0.289011 0.438833 -0.096457
N1    N     N_2   0.455760 1.000000 0.031460 -0.092667
N2    N     N_2   0.544240 1.000000 0.968540 -0.092672
N3    N     N_2   0.955760 0.500000 0.031460 -0.089497
N4    N     N_2   0.044240 0.500000 0.968540 -0.089498
I1    I     I_    0.629023 0.706866 0.168112 -0.329899
I2    I     I_    0.370979 0.293135 0.831887 -0.329888
I3    I     I_    0.409185 0.652922 0.733346 -0.414754
I4    I     I_    0.590817 0.347078 0.266662 -0.414743
I5    I     I_    0.114058 0.190414 0.192147 -0.374693
I6    I     I_    0.885932 0.809578 0.807858 -0.374722
I7    I     I_    0.909250 0.155509 0.731510 -0.389277
I8    I     I_    0.090760 0.844478 0.268463 -0.389316
C17   C     C_3   0.345540 0.963749 0.913315 -0.052591
C18   C     C_3   0.242006 0.008320 0.960332 -0.387608
C19   C     C_3   0.131361 0.964645 0.828657 -0.776188
H1    H     H_    0.116471 0.998847 0.689492 0.271132
H2    H     H_    0.135455 0.878216 0.819671 0.278207
H3    H     H_    0.058631 0.983889 0.881768 0.310428
H4    H     H_    0.240658 0.988498 0.099536 0.289066
H5    H     H_    0.242518 0.094755 0.947015 0.272245
H6    H     H_    0.330654 0.995547 0.777273 0.220069
H7    H     H_    0.342711 0.876924 0.914604 0.199845
C20   C     C_3   0.654461 0.036248 0.086685 -0.052623
C21   C     C_3   0.757991 0.991672 0.039666 -0.387581
C22   C     C_3   0.868644 0.035287 0.171415 -0.776154
H8    H     H_    0.864564 0.121711 0.180585 0.278168
H9    H     H_    0.883535 0.000989 0.310513 0.271139
H10   H     H_    0.941368 0.016098 0.118252 0.310424
H11   H     H_    0.757442 0.905234 0.052900 0.272266
H12   H     H_    0.759363 0.011533 0.900486 0.289042
H13   H     H_    0.657296 0.123073 0.085397 0.199839
H14   H     H_    0.669344 0.004451 0.222727 0.220087
C23   C     C_3   0.840949 0.522241 0.911877 -0.071019
C24   C     C_3   0.746373 0.457960 0.957218 -0.370900
C25   C     C_3   0.634388 0.461663 0.799533 -0.787820
H15   H     H_    0.621481 0.540662 0.736889 0.278629
H16   H     H_    0.636947 0.404377 0.692175 0.262572
H17   H     H_    0.560681 0.442388 0.851582 0.310460
H18   H     H_    0.772437 0.374827 0.979700 0.267122
H19   H     H_    0.729297 0.490818 0.080500 0.280371
H20   H     H_    0.822374 0.606147 0.920250 0.205344
H21   H     H_    0.831352 0.500255 0.773468 0.226094
C26   C     C_3   0.159051 0.477758 0.088123 -0.071016
C27   C     C_3   0.253626 0.542040 0.042783 -0.370905
C28   C     C_3   0.365610 0.538335 0.200469 -0.787832
H22   H     H_    0.363045 0.595610 0.307840 0.262569
H23   H     H_    0.378522 0.459331 0.263094 0.278635
H24   H     H_    0.439316 0.557624 0.148424 0.310462
H25   H     H_    0.270703 0.509183 0.919501 0.280372
H26   H     H_    0.227562 0.625173 0.020303 0.267119
H27   H     H_    0.168647 0.499744 0.226531 0.226095
H28   H     H_    0.177625 0.393852 0.079752 0.205340

loop_
_geom_bond_atom_site_label_1
_geom_bond_atom_site_label_2
_geom_bond_distance
_ccdc_geom_bond_type
O16   Cu4   1.991471 S    
O2    C2    1.307118 A    
C23   H20   1.106053 S    
C14   I2    2.130396 S    
C26   H27   1.066561 S    
O4    Cu1   2.004172 S    
C5    C16   1.436797 S    
C6    C15   1.436799 S    
O11   C3    1.319372 A    
C27   H25   1.106861 S    
C20   H14   1.078279 S    
O11   Cu1   1.991471 S    
O6    C6    1.307650 A    
C17   H6    1.078284 S    
C22   H9    1.111726 S    
C27   H26   1.111711 S    
C20   H13   1.111915 S    
O5    Cu3   1.985062 S    
O6    Cu4   1.985060 S    
O13   Cu4   1.970177 S    
O3    C3    1.310469 A    
C24   C25   1.527183 S    
O14   Cu3   1.970175 S    
C15   I3    2.104794 S    
O15   C7    1.313794 A    
C21   H12   1.095558 S    
C20   C21   1.521484 S    
O16   C8    1.313792 A    
C11   I7    2.103273 S    
O1    Cu1   1.985062 S    
C12   I8    2.103258 S    
C23   H21   1.066564 S    
C23   C24   1.524510 S    
C26   H28   1.106054 S    
C28   H23   1.109363 S    
O9    Cu2   1.970177 S    
C28   H22   1.109539 S    
C4    C9    1.445701 S    
C19   H1    1.111704 S    
C12   C15   1.339455 D    
N3    N4    1.298589 D    
C25   H16   1.109537 S    
Cu4   N3    2.074393 S    
Cu1   Cu2   2.760765 S    
C9    C14   1.349249 D    
C18   H5    1.110946 S    
O7    Cu4   2.004172 S    
N2    C20   1.447623 S    
O12   Cu2   1.991471 S    
C21   C22   1.522386 S    
C19   H2    1.111606 S    
C22   H10   1.104453 S    
N1    N2    1.298589 D    
Cu1   N2    2.074394 S    
N1    C17   1.447624 S    
O15   Cu3   1.991471 S    
Cu3   N4    2.074394 S    
C7    C14   1.445198 S    
O12   C4    1.319370 A    
C18   C19   1.522358 S    
N3    C23   1.452645 S    
N4    C26   1.452642 S    
O13   C5    1.316767 A    
O2    Cu2   1.985060 S    
O10   Cu1   1.970175 S    
O9    C1    1.318073 A    
C21   H11   1.110951 S    
C24   H19   1.106861 S    
C16   I4    2.104792 S    
Cu3   Cu4   2.760765 S    
C28   H24   1.105318 S    
C1    C12   1.437735 S    
C10   C13   1.349246 D    
C10   I6    2.117761 S    
O3    Cu2   2.004172 S    
C18   H4    1.095546 S    
C27   C28   1.527175 S    
C25   H17   1.105320 S    
Cu2   N1    2.074393 S    
O1    C1    1.307117 A    
C8    C13   1.445197 S    
C19   H3    1.104447 S    
C13   I1    2.130379 S    
O14   C6    1.316767 A    
C25   H15   1.109362 S    
O10   C2    1.318076 A    
O7    C7    1.315810 A    
O8    C8    1.315811 A    
C22   H8    1.111630 S    
C17   H7    1.111916 S    
C26   C27   1.524509 S    
O4    C4    1.310471 A    
O5    C5    1.307647 A    
C17   C18   1.521492 S    
C9    I5    2.117787 S    
C24   H18   1.111710 S    
O8    Cu3   2.004172 S    
C11   C16   1.339456 D    
C2    C11   1.437741 S    
C3    C10   1.445696 S    
