data_mof_unit_52803.cif
_audit_creation_date              2012-10-26T19:27:49-0400
_audit_creation_method            fapswitch 2.2
_symmetry_space_group_name_H-M    P1
_symmetry_Int_Tables_number       1
_space_group_crystal_system       triclinic
_cell_length_a                    20.792338
_cell_length_b                    21.197826
_cell_length_c                    14.740263
_cell_angle_alpha                 89.999482
_cell_angle_beta                  127.817029
_cell_angle_gamma                 90.00104
_cell_volume                      5132.29991944

loop_
_atom_site_label
_atom_site_type_symbol
_atom_type_description
_atom_site_fract_x
_atom_site_fract_y
_atom_site_fract_z
_atom_type_partial_charge
C1    C     C_R   0.602261 0.913283 0.630818 0.549410
C2    C     C_R   0.706348 0.199750 0.117766 -0.108525
C3    C     C_R   0.701211 0.758534 0.939919 0.036610
C4    C     C_R   0.244495 0.708680 0.991016 0.033964
C5    C     C_R   0.798802 0.258503 0.060129 0.036616
C6    C     C_R   0.755564 0.708744 0.009078 0.033966
C7    C     C_R   0.201187 0.258514 0.939888 0.036607
C8    C     C_R   0.352214 0.781375 0.038404 -0.126478
C9    C     C_R   0.701259 0.178478 0.024530 -0.117380
C10   C     C_R   0.647935 0.781510 0.961803 -0.126450
C11   C     C_R   0.298680 0.178455 0.975438 -0.117375
C12   C     C_R   0.852102 0.281460 0.038277 -0.126458
C13   C     C_R   0.652346 0.759780 0.054223 -0.120822
C14   C     C_R   0.201318 0.678433 0.024584 -0.117365
C15   C     C_R   0.147908 0.281487 0.961766 -0.126461
C16   C     C_R   0.798705 0.678475 0.975471 -0.117411
C17   C     C_R   0.293574 0.199713 0.882183 -0.108486
C18   C     C_R   0.847690 0.259734 0.945855 -0.120822
C19   C     C_R   0.206398 0.699710 0.117812 -0.108474
C20   C     C_R   0.152322 0.259759 0.054190 -0.120835
C21   C     C_R   0.793598 0.699732 0.882214 -0.108535
C22   C     C_R   0.322289 0.001492 0.666009 -0.130671
C23   C     C_R   0.677712 0.001453 0.333992 -0.130673
C24   C     C_R   0.822288 0.501446 0.666008 -0.130676
C25   C     C_R   0.396121 0.085387 0.367170 0.552012
C26   C     C_R   0.177711 0.501496 0.333990 -0.130673
C27   C     C_R   0.351979 0.000558 0.603223 0.017215
C28   C     C_R   0.648021 0.000539 0.396777 0.017210
C29   C     C_R   0.851979 0.500535 0.603223 0.017209
C30   C     C_R   0.148021 0.500561 0.396776 0.017214
C31   C     C_R   0.487928 0.000356 0.775099 0.035243
C32   C     C_R   0.512072 0.000365 0.224901 0.035243
C33   C     C_R   0.987928 0.500366 0.775099 0.035243
C34   C     C_R   0.012071 0.500354 0.224901 0.035242
C35   C     C_R   0.461657 0.001395 0.844710 -0.050717
C36   C     C_R   0.397742 0.913278 0.369185 0.549409
C37   C     C_R   0.538344 0.001394 0.155291 -0.050723
C38   C     C_R   0.961656 0.501392 0.844709 -0.050721
C39   C     C_R   0.038343 0.501393 0.155290 -0.050721
C40   C     C_R   0.376534 0.001885 0.786629 0.050136
C41   C     C_R   0.623468 0.001851 0.213373 0.050125
C42   C     C_R   0.876532 0.501844 0.786627 0.050128
C43   C     C_R   0.123466 0.501887 0.213371 0.050131
C44   C     C_R   0.516051 0.001894 0.968500 -0.058296
C45   C     C_R   0.483951 0.001909 0.031501 -0.058283
C46   C     C_R   0.016049 0.501908 0.968498 -0.058287
C47   C     C_R   0.603882 0.085384 0.632834 0.552008
C48   C     C_R   0.983949 0.501889 0.031500 -0.058292
C49   C     C_R   0.398624 0.002695 0.968616 -0.104149
C50   C     C_R   0.601379 0.002633 0.031385 -0.104167
C51   C     C_R   0.898621 0.502621 0.968614 -0.104160
C52   C     C_R   0.101376 0.502698 0.031383 -0.104168
C53   C     C_R   0.346215 0.002829 0.849136 0.370043
C54   C     C_R   0.653787 0.002762 0.150866 0.370060
C55   C     C_R   0.846213 0.502750 0.849134 0.370052
C56   C     C_R   0.153785 0.502833 0.150864 0.370039
C57   C     C_R   0.667213 0.130898 0.712619 -0.001148
C58   C     C_R   0.102260 0.413281 0.630817 0.549412
C59   C     C_R   0.344450 0.859822 0.301643 -0.001508
C60   C     C_R   0.332794 0.130907 0.287397 -0.001150
C61   C     C_R   0.655563 0.859839 0.698374 -0.001497
C62   C     C_R   0.167233 0.630885 0.712643 -0.001150
C63   C     C_R   0.844432 0.359838 0.301630 -0.001501
C64   C     C_R   0.832801 0.630913 0.287408 -0.001150
C65   C     C_R   0.155555 0.359832 0.698364 -0.001500
C66   C     C_R   0.782174 0.197000 0.773667 -0.124343
C67   C     C_R   0.254441 0.775318 0.269708 -0.124743
C68   C     C_R   0.217831 0.197004 0.226361 -0.124351
C69   C     C_R   0.896123 0.585388 0.367172 0.552010
C70   C     C_R   0.745528 0.775312 0.730275 -0.124749
C71   C     C_R   0.282294 0.696896 0.773804 -0.124351
C72   C     C_R   0.754423 0.275338 0.269697 -0.124749
C73   C     C_R   0.717844 0.697015 0.226380 -0.124350
C74   C     C_R   0.245512 0.275300 0.730254 -0.124745
C75   C     C_R   0.721967 0.154499 0.695512 -0.130803
C76   C     C_R   0.300437 0.828398 0.331278 -0.130396
C77   C     C_R   0.278034 0.154497 0.304502 -0.130800
C78   C     C_R   0.699533 0.828389 0.668697 -0.130406
C79   C     C_R   0.222053 0.654424 0.695613 -0.130800
C80   C     C_R   0.897738 0.413282 0.369183 0.549415
C81   C     C_R   0.800434 0.328409 0.331282 -0.130398
C82   C     C_R   0.778041 0.654501 0.304512 -0.130799
C83   C     C_R   0.199523 0.328381 0.668684 -0.130402
C84   C     C_R   0.674140 0.149278 0.809295 -0.128891
C85   C     C_R   0.341807 0.837851 0.210105 -0.126777
C86   C     C_R   0.325871 0.149304 0.190733 -0.128902
C87   C     C_R   0.658255 0.837907 0.789970 -0.126766
C88   C     C_R   0.174130 0.649299 0.809283 -0.128909
C89   C     C_R   0.841757 0.337888 0.210059 -0.126776
C90   C     C_R   0.825887 0.649318 0.190754 -0.128903
C91   C     C_R   0.103883 0.585385 0.632836 0.552003
C92   C     C_R   0.158243 0.337895 0.789954 -0.126768
C93   C     C_R   0.735972 0.190347 0.891344 0.035612
C94   C     C_R   0.299007 0.782875 0.150146 0.034546
C95   C     C_R   0.264027 0.190364 0.108679 0.035612
C96   C     C_R   0.701049 0.782932 0.849938 0.034550
C97   C     C_R   0.236021 0.690313 0.891396 0.035612
C98   C     C_R   0.798949 0.282917 0.150088 0.034553
C99   C     C_R   0.764047 0.690381 0.108706 0.035613
C100  C     C_R   0.201030 0.282916 0.849912 0.034546
C101  C     C_R   0.788945 0.215680 0.870483 0.055808
C102  C     C_R   0.347823 0.759628 0.946006 -0.120848
C103  C     C_R   0.253124 0.752482 0.179246 0.051518
C104  C     C_R   0.211059 0.215696 0.129550 0.055803
C105  C     C_R   0.746883 0.752507 0.820786 0.051522
C106  C     C_R   0.289047 0.715598 0.870596 0.055809
C107  C     C_R   0.753083 0.252516 0.179208 0.051525
C108  C     C_R   0.711079 0.715713 0.129575 0.055806
C109  C     C_R   0.246863 0.252491 0.820759 0.051516
C110  C     C_R   0.744437 0.208720 0.990958 0.033977
C111  C     C_R   0.298878 0.758448 0.060210 0.036615
C112  C     C_R   0.255541 0.208724 0.009047 0.033961
Cu1   Cu    Cu3+1 0.526640 1.000000 0.436960 0.935811
Cu2   Cu    Cu3+1 0.473360 1.000000 0.563040 0.935818
Cu3   Cu    Cu3+1 0.026640 0.500000 0.436960 0.935815
Cu4   Cu    Cu3+1 0.973360 0.500000 0.563040 0.935812
F1    F     F_    0.264687 0.003784 0.794203 -0.640186
F2    F     F_    0.735316 0.003675 0.205799 -0.640168
F3    F     F_    0.764683 0.503657 0.794200 -0.640175
F4    F     F_    0.235313 0.503792 0.205797 -0.640185
H1    H     H_    0.389721 0.778425 0.932225 0.109538
H2    H     H_    0.630020 0.003416 0.990471 0.122984
H3    H     H_    0.869979 0.503398 0.009528 0.122991
H4    H     H_    0.130016 0.503521 0.990468 0.122968
H5    H     H_    0.372539 0.865279 0.185665 0.122480
H6    H     H_    0.628968 0.132293 0.817145 0.120796
H7    H     H_    0.627557 0.865361 0.814435 0.122460
H8    H     H_    0.371055 0.132342 0.182890 0.120787
H9    H     H_    0.872477 0.365326 0.185612 0.122464
H10   H     H_    0.128892 0.632393 0.817060 0.120795
H11   H     H_    0.127548 0.365349 0.814425 0.122466
H12   H     H_    0.672376 0.175262 0.140726 0.122336
H13   H     H_    0.871074 0.632359 0.182916 0.120801
H14   H     H_    0.301895 0.844556 0.402223 0.133591
H15   H     H_    0.717929 0.140539 0.621483 0.131721
H16   H     H_    0.698038 0.844521 0.597708 0.133587
H17   H     H_    0.282068 0.140522 0.378521 0.131720
H18   H     H_    0.801914 0.344554 0.402252 0.133589
H19   H     H_    0.218041 0.640436 0.621617 0.131709
H20   H     H_    0.198031 0.344516 0.597699 0.133591
H21   H     H_    0.782069 0.640521 0.378524 0.131723
H22   H     H_    0.323318 0.715456 0.758242 0.111795
H23   H     H_    0.610495 0.778616 0.068063 0.109552
H24   H     H_    0.720169 0.251923 0.293141 0.112926
H25   H     H_    0.676866 0.715612 0.241998 0.111785
H26   H     H_    0.279738 0.251866 0.706783 0.112931
H27   H     H_    0.823152 0.215605 0.758054 0.111796
H28   H     H_    0.220176 0.751909 0.293139 0.112931
H29   H     H_    0.176854 0.215602 0.241980 0.111789
H30   H     H_    0.779755 0.751877 0.706806 0.112927
H31   H     H_    0.399971 0.814914 0.093341 0.106274
H32   H     H_    0.664777 0.136831 0.982564 0.110509
H33   H     H_    0.600210 0.815080 0.906918 0.106274
H34   H     H_    0.327513 0.175201 0.859191 0.122398
H35   H     H_    0.335136 0.136796 0.017388 0.110535
H36   H     H_    0.899843 0.315015 0.093185 0.106268
H37   H     H_    0.164857 0.636776 0.982621 0.110546
H38   H     H_    0.100179 0.315053 0.906874 0.106279
H39   H     H_    0.835163 0.636817 0.017422 0.110534
H40   H     H_    0.448651 0.999815 0.188168 0.119011
H41   H     H_    0.551349 0.999799 0.811830 0.118992
H42   H     H_    0.948651 0.499796 0.188169 0.119003
H43   H     H_    0.051349 0.499819 0.811832 0.119005
H44   H     H_    0.690054 0.000411 0.489634 0.126945
H45   H     H_    0.889552 0.278564 0.932031 0.109560
H46   H     H_    0.309946 0.000437 0.510367 0.126937
H47   H     H_    0.190054 0.500441 0.489633 0.126934
H48   H     H_    0.809946 0.500406 0.510366 0.126939
H49   H     H_    0.257009 0.001942 0.619989 0.170443
H50   H     H_    0.742992 0.001882 0.380012 0.170447
H51   H     H_    0.757008 0.501871 0.619988 0.170443
H52   H     H_    0.242991 0.501949 0.380011 0.170443
H53   H     H_    0.172426 0.675219 0.140769 0.122381
H54   H     H_    0.110469 0.278594 0.068028 0.109558
H55   H     H_    0.827538 0.675220 0.859223 0.122364
H56   H     H_    0.369984 0.003515 0.009531 0.122974
N1    N     N_R   0.433280 1.000000 0.657760 -0.230560
N2    N     N_R   0.566720 0.000000 0.342240 -0.230566
N3    N     N_R   0.933280 0.500000 0.657760 -0.230563
N4    N     N_R   0.066720 0.500000 0.342240 -0.230562
O1    O     O_R   0.600040 0.935040 0.546740 -0.503407
O2    O     O_R   0.444990 0.064930 0.346780 -0.507939
O3    O     O_R   0.444990 0.935070 0.346780 -0.509305
O4    O     O_R   0.555010 0.064930 0.653220 -0.507947
O5    O     O_R   0.055010 0.435070 0.653220 -0.509302
O6    O     O_R   0.944990 0.564930 0.346780 -0.507937
O7    O     O_R   0.944990 0.435070 0.346780 -0.509312
O8    O     O_R   0.055010 0.564930 0.653220 -0.507943
O9    O     O_R   0.399960 0.064960 0.453260 -0.502285
O10   O     O_R   0.399960 0.935040 0.453260 -0.503386
O11   O     O_R   0.600040 0.064960 0.546740 -0.502278
O12   O     O_R   0.100040 0.435040 0.546740 -0.503397
O13   O     O_R   0.899960 0.564960 0.453260 -0.502285
O14   O     O_R   0.899960 0.435040 0.453260 -0.503401
O15   O     O_R   0.100040 0.564960 0.546740 -0.502279
O16   O     O_R   0.555010 0.935070 0.653220 -0.509312

loop_
_geom_bond_atom_site_label_1
_geom_bond_atom_site_label_2
_ccdc_geom_bond_type
C65   C92   A    
C79   H19   S    
C91   O8    A    
C31   H41   S    
C9    H32   S    
C16   C21   A    
Cu2   O10   S    
C70   C78   A    
C24   C42   A    
C94   C111  A    
C34   N4    A    
C70   H30   S    
C88   H10   S    
C74   C83   A    
C96   C105  A    
C3    C6    A    
C74   C109  A    
C87   H7    S    
C67   C103  A    
C55   F3    S    
C25   O2    A    
C99   C108  A    
Cu4   O8    S    
C28   H44   S    
C50   C54   A    
Cu2   O16   S    
C31   N1    A    
C37   C41   A    
C36   O10   A    
C29   H48   S    
C33   H43   S    
C77   H17   S    
C30   H47   S    
C38   C42   A    
C95   C112  A    
C82   H21   S    
C53   F1    S    
C65   C83   A    
C33   N3    A    
C5    C110  A    
C1    C61   S    
Cu3   Cu4   S    
C46   C52   A    
C2    C107  A    
C68   C77   A    
C89   H9    S    
C7    C112  A    
C72   H24   S    
C24   H51   S    
C16   H39   S    
C24   C29   A    
C68   H29   S    
C61   C87   A    
C19   C103  A    
C48   C51   A    
Cu1   O1    S    
C21   H55   S    
C50   H2    S    
C2    H12   S    
C3    C96   A    
C25   C60   S    
C64   C90   A    
C102  H1    S    
C51   C55   A    
C72   C81   A    
C11   H35   S    
C93   C110  A    
Cu4   O14   S    
C36   C59   S    
C7    C15   A    
Cu1   N2    S    
C11   C112  A    
C26   H52   S    
C100  C109  A    
Cu2   O9    S    
C4    C97   A    
C87   C96   A    
C58   O5    A    
C4    C14   A    
C56   F4    S    
C66   C101  A    
C32   N2    A    
C15   C20   A    
C12   H36   S    
C13   C108  A    
C17   H34   S    
C10   H33   S    
C71   C79   A    
C83   H20   S    
C18   H45   S    
C26   C43   A    
C63   C80   S    
C84   H6    S    
C81   H18   S    
Cu1   O11   S    
C46   C48   A    
C60   C77   A    
Cu4   O13   S    
C7    C100  A    
C14   H37   S    
C86   H8    S    
C34   C39   A    
C68   C104  A    
C62   C79   A    
C8    H31   S    
C51   H3    S    
C15   H38   S    
C8    C111  A    
C93   C101  A    
Cu3   O6    S    
C1    O1    A    
C73   C108  A    
C39   C43   A    
C23   C28   A    
C62   C88   A    
C10   C13   A    
C98   C107  A    
C73   H25   S    
C18   C101  A    
C28   N2    A    
C59   C85   A    
C42   C55   A    
C47   C57   S    
Cu3   O7    S    
C85   C94   A    
C58   C65   S    
Cu1   O2    S    
C72   C107  A    
C45   C49   A    
C61   C78   A    
Cu2   N1    S    
C22   C40   A    
C62   C91   S    
C63   C89   A    
C69   O13   A    
C57   C84   A    
C36   O3    A    
C32   C37   A    
C35   C44   A    
C64   C82   A    
C66   H27   S    
C5    C12   A    
C71   H22   S    
Cu3   O12   S    
C4    C111  A    
C63   C81   A    
C94   C103  A    
C26   C30   A    
C22   C27   A    
C54   F2    S    
C58   O12   A    
C31   C35   A    
Cu4   N3    S    
C97   C106  A    
C37   C45   A    
Cu2   O4    S    
C90   C99   A    
C95   C104  A    
C92   C100  A    
C60   C86   A    
Cu1   Cu2   S    
Cu4   O5    S    
C44   C50   A    
C9    C110  A    
C90   H13   S    
Cu3   O15   S    
C11   C17   A    
C76   H14   S    
C85   H5    S    
C14   C19   A    
C74   H26   S    
C44   C45   A    
Cu3   N4    S    
C47   O4    A    
C34   H42   S    
C70   C105  A    
C17   C109  A    
C19   H53   S    
C27   N1    A    
C92   H11   S    
C20   C104  A    
C80   O14   A    
C91   O15   A    
C33   C38   A    
C23   C41   A    
C89   C98   A    
C6    C99   A    
C57   C75   A    
C35   C40   A    
C88   C97   A    
C3    C10   A    
C25   O9    A    
C1    O16   A    
C52   H4    S    
Cu1   O3    S    
C23   H50   S    
C8    C102  A    
C49   C53   A    
C66   C75   A    
C59   C76   A    
C80   O7    A    
C73   C82   A    
C102  C106  A    
C75   H15   S    
C84   C93   A    
C13   H23   S    
C47   O11   A    
C64   C69   S    
C20   H54   S    
C41   C54   A    
C38   C46   A    
C22   H49   S    
C86   C95   A    
C27   H46   S    
C6    C16   A    
C43   C56   A    
C5    C98   A    
C40   C53   A    
C29   N3    A    
C71   C106  A    
C12   C18   A    
C67   H28   S    
C30   N4    A    
C67   C76   A    
C2    C9    A    
C78   H16   S    
C69   O6    A    
C49   H56   S    
C21   C105  A    
C52   C56   A    
C39   C48   A    
C32   H40   S    
