data_mof_unit_35039.cif
_audit_creation_date              2012-12-10T16:57:32-0500
_audit_creation_method            fapswitch 2.2
_symmetry_space_group_name_H-M    P1
_symmetry_Int_Tables_number       1
_space_group_crystal_system       triclinic
_cell_length_a                    18.620397
_cell_length_b                    18.923252
_cell_length_c                    19.118504
_cell_angle_alpha                 110.177805
_cell_angle_beta                  109.858558
_cell_angle_gamma                 108.977138
_cell_volume                      5146.61130995

loop_
_atom_site_label
_atom_site_type_symbol
_atom_type_description
_atom_site_fract_x
_atom_site_fract_y
_atom_site_fract_z
_atom_type_partial_charge
C1    C     C_R   0.621421 0.618417 0.502528 0.803511
C2    C     C_3   0.192122 0.423871 0.192730 -0.368899
C3    C     C_3   0.218120 0.463778 0.288831 -0.037852
C4    C     C_3   0.315610 0.505242 0.315988 -0.099000
C5    C     C_R   0.796490 0.639191 0.549672 0.197259
C6    C     C_R   0.887093 0.684639 0.609859 -0.126094
C7    C     C_R   0.943776 0.724201 0.584566 0.020425
C8    C     C_R   0.906867 0.742637 0.519694 -0.006462
C9    C     C_R   0.827966 0.745626 0.506258 -0.020987
C10   C     C_R   0.768472 0.687905 0.517112 -0.012275
C11   C     C_R   0.686501 0.683442 0.499037 -0.098558
C12   C     C_R   0.381877 0.501557 0.381214 0.953313
C13   C     C_R   0.666971 0.741798 0.477725 -0.044667
C14   C     C_R   0.731188 0.807133 0.478562 -0.110035
C15   C     C_R   0.811229 0.808371 0.491405 -0.118680
C16   C     C_R   0.573331 0.441691 0.738509 -0.112737
C17   C     C_R   0.541880 0.378156 0.759752 -0.101414
C18   C     C_R   0.600758 0.356128 0.800927 -0.141087
C19   C     C_R   0.690510 0.414993 0.843461 0.417473
C20   C     C_R   0.721891 0.461513 0.804527 -0.073532
C21   C     C_R   0.657381 0.467561 0.744052 0.066135
C22   C     C_R   0.677268 0.494545 0.689045 -0.086401
C23   C     C_R   0.378364 0.379544 0.496242 0.817642
C24   C     C_R   0.759901 0.520964 0.697956 -0.232845
C25   C     C_R   0.827524 0.524286 0.761240 0.367568
C26   C     C_R   0.810527 0.496351 0.817461 -0.256249
C27   C     C_R   0.177209 0.255456 0.352220 0.317798
C28   C     C_R   0.088996 0.239949 0.314676 -0.209459
C29   C     C_R   0.048161 0.243625 0.365299 0.334625
C30   C     C_R   0.083571 0.236387 0.437947 -0.209033
C31   C     C_R   0.164365 0.237662 0.465952 -0.009606
C32   C     C_R   0.220017 0.273649 0.438901 0.004962
C33   C     C_R   0.311341 0.306122 0.490836 -0.038843
C34   C     C_R   0.613499 0.495017 0.619480 0.799336
C35   C     C_R   0.335873 0.262696 0.533709 -0.077116
C36   C     C_R   0.273067 0.207618 0.542917 -0.215983
C37   C     C_R   0.187628 0.195656 0.510886 -0.052567
C38   C     C_R   0.003219 0.620556 0.120473 0.898819
C39   C     C_R   0.123978 0.503099 0.125613 0.879321
C40   C     C_R   0.006357 0.380723 0.887579 0.732125
C41   C     C_R   0.882586 0.499260 0.884296 0.829393
C42   C     C_R   0.990794 0.111311 0.616792 0.764324
C43   C     C_R   0.880371 0.879739 0.497584 0.683094
C44   C     C_R   0.007780 0.888416 0.382207 0.813160
C45   C     C_3   0.317133 0.588959 0.321363 -0.206392
C46   C     C_R   0.119345 0.123950 0.505818 0.825177
C47   C     C_R   0.919355 0.718371 0.074624 0.266269
C48   C     C_R   0.842998 0.724697 0.050254 -0.202792
C49   C     C_R   0.842229 0.790656 0.111544 0.286174
C50   C     C_R   0.916455 0.843487 0.195818 0.328902
C51   C     C_R   0.966670 0.806110 0.225271 -0.105615
C52   C     C_R   0.963866 0.737369 0.161247 -0.043333
C53   C     C_R   0.011596 0.696948 0.186721 -0.057012
C54   C     C_R   0.087471 0.749120 0.271294 -0.099087
C55   C     C_R   0.088392 0.814333 0.336690 -0.082233
C56   C     C_3   0.218007 0.545686 0.292271 0.392252
C57   C     C_R   0.020913 0.835720 0.314339 -0.047585
C58   C     C_R   0.088643 0.279253 0.920330 -0.211254
C59   C     C_R   0.112808 0.221002 0.936116 -0.023092
C60   C     C_R   0.075058 0.136987 0.867806 -0.056799
C61   C     C_R   0.020339 0.113173 0.782793 -0.022049
C62   C     C_R   0.009871 0.177620 0.765321 -0.033445
C63   C     C_R   0.033558 0.256649 0.834924 0.113917
C64   C     C_R   0.000991 0.310289 0.817405 -0.164362
C65   C     C_R   0.946104 0.284930 0.730770 -0.201439
C66   C     C_R   0.928172 0.209094 0.661486 0.395188
C67   C     C_3   0.193145 0.507217 0.196584 -0.212766
C68   C     C_R   0.973487 0.164346 0.680669 -0.262180
C69   C     C_3   0.291607 0.549265 0.225303 0.420432
C70   C     C_3   0.291663 0.466458 0.220929 -0.173568
Cu1   Cu    Cu3+1 0.500510 0.438210 0.438680 1.236713
Cu2   Cu    Cu3+1 0.499490 0.561790 0.561320 1.093031
Cu3   Cu    Cu3+1 0.942090 0.438230 0.003820 1.115863
Cu4   Cu    Cu3+1 0.065710 0.561800 0.003800 1.219620
Cu5   Cu    Cu3+1 0.937720 0.000020 0.437740 1.173266
Cu6   Cu    Cu3+1 0.062280 0.999990 0.562270 1.125232
H1    H     H_    0.772208 0.541995 0.655279 0.185708
H2    H     H_    0.579275 0.312068 0.823085 0.223334
H3    H     H_    0.366476 0.657257 0.374020 0.221996
H4    H     H_    0.047034 0.227310 0.470716 0.205855
H5    H     H_    0.289947 0.171079 0.572063 0.194645
H6    H     H_    0.796038 0.694771 0.982292 0.185973
H7    H     H_    0.113647 0.342244 0.974769 0.123165
H8    H     H_    0.086952 0.089395 0.881122 0.224769
H9    H     H_    0.326930 0.437821 0.195400 0.198923
H10   H     H_    0.138810 0.356306 0.141325 0.180403
O1    O     O_R   0.590610 0.538000 0.448220 -0.513066
O2    O     O_R   0.055390 0.642370 0.093280 -0.530178
O3    O     O_R   0.042570 0.447830 0.094680 -0.583217
O4    O     O_R   0.146970 0.552180 0.094660 -0.508460
O5    O     O_R   0.952410 0.357660 0.914340 -0.590214
O6    O     O_R   0.056810 0.462010 0.914320 -0.548474
O7    O     O_R   0.860830 0.447850 0.912960 -0.548212
O8    O     O_R   0.965230 0.552200 0.912940 -0.490553
O9    O     O_R   0.946680 0.090170 0.536920 -0.517149
O10   O     O_R   0.051870 0.090150 0.642080 -0.582043
O11   O     O_R   0.857220 0.909850 0.447420 -0.556575
O12   O     O_R   0.589760 0.642360 0.551800 -0.601162
O13   O     O_R   0.962410 0.909820 0.552580 -0.567076
O14   O     O_R   0.948130 0.909870 0.357940 -0.547970
O15   O     O_R   0.053320 0.909840 0.463100 -0.552218
O16   O     O_R   0.037590 0.090200 0.447440 -0.552419
O17   O     O_R   0.142780 0.090170 0.552600 -0.562990
O18   O     O_R   0.409560 0.447830 0.357350 -0.551726
O19   O     O_R   0.408700 0.552190 0.460930 -0.554354
O20   O     O_R   0.410240 0.357640 0.448200 -0.481395
O21   O     O_R   0.409390 0.462000 0.551780 -0.598237
O22   O     O_R   0.591300 0.447810 0.539070 -0.505580
O23   O     O_R   0.590440 0.552170 0.642650 -0.580243
O24   O     O_R   0.950990 0.538020 0.093300 -0.521365
S1    S     S_3+6 0.172568 0.597296 0.347842 0.022036
O25   O     O_2   0.236552 0.693406 0.403762 -0.308671
O26   O     O_2   0.085842 0.579527 0.283004 -0.294863
O27   O     O_3   0.155964 0.560389 0.412499 -0.503485
H11   H     H_    0.128325 0.590279 0.437389 0.395630
C71   C     C_2   0.038444 0.750658 0.629754 0.590251
H12   H     H_    0.059569 0.718814 0.663285 0.110850
O28   O     O_2   0.093938 0.810167 0.633024 -0.484697
C72   C     C_2   0.938320 0.743935 0.457953 0.528510
H13   H     H_    0.905553 0.754800 0.407113 0.014996
O29   O     O_2   0.996892 0.727668 0.459301 -0.508350
C73   C     C_2   0.717387 0.878121 0.472745 0.434312
H14   H     H_    0.766422 0.944586 0.523693 0.091363
O30   O     O_2   0.652744 0.862763 0.411238 -0.454534
C74   C     C_2   0.529352 0.493516 0.732526 0.450786
H15   H     H_    0.458597 0.462102 0.691802 0.050391
O31   O     O_2   0.572012 0.572727 0.777929 -0.498636
C75   C     C_2   0.452624 0.342544 0.750044 0.391423
H16   H     H_    0.406954 0.362521 0.723623 0.056731
O32   O     O_2   0.428308 0.289198 0.771071 -0.493725
S2    S     S_3+6 0.735483 0.458624 0.956451 0.034015
O33   O     O_2   0.812670 0.547846 0.004764 -0.356727
O34   O     O_2   0.667142 0.463914 0.979733 -0.237726
O35   O     O_3   0.765351 0.393270 0.984546 -0.497065
H17   H     H_    0.780740 0.416264 0.045770 0.384738
S3    S     S_3+6 0.931072 0.567242 0.764862 0.047920
O36   O     O_2   0.915136 0.556424 0.678333 -0.261183
O37   O     O_2   0.985108 0.662481 0.831977 -0.214084
O38   O     O_3   0.991094 0.520655 0.789272 -0.501186
H18   H     H_    0.047339 0.554602 0.793707 0.391386
C76   C     C_2   0.420320 0.261881 0.559015 0.367932
H19   H     H_    0.433569 0.225936 0.590573 0.106690
O39   O     O_2   0.474793 0.297859 0.543227 -0.513389
S4    S     S_3+6 0.217730 0.220040 0.282635 0.045201
O40   O     O_2   0.257613 0.290324 0.265512 -0.316502
O41   O     O_2   0.285059 0.197136 0.321697 -0.208083
O42   O     O_3   0.134266 0.130335 0.187763 -0.463818
H20   H     H_    0.160921 0.117275 0.151582 0.418734
C77   C     C_2   0.040004 0.216881 0.223145 0.567983
H21   H     H_    0.075391 0.240508 0.193932 0.071024
O43   O     O_2   0.960182 0.168650 0.178290 -0.411462
S5    S     S_3+6 0.951396 0.251780 0.338201 0.085476
O44   O     O_2   0.871528 0.162300 0.278893 -0.176372
O45   O     O_2   0.948878 0.295656 0.418843 -0.241046
O46   O     O_3   0.948444 0.309515 0.288304 -0.471240
H22   H     H_    0.989238 0.371105 0.335357 0.364198
C78   C     C_2   0.173131 0.750529 0.289619 0.535085
H23   H     H_    0.234319 0.805035 0.347287 0.090428
O47   O     O_2   0.178607 0.693298 0.241368 -0.498745
S6    S     S_3+6 0.983305 0.764846 0.034764 0.089569
O48   O     O_2   0.047348 0.859215 0.102418 -0.158722
O49   O     O_2   0.035048 0.722978 0.014932 -0.211155
O50   O     O_3   0.917506 0.758820 0.944429 -0.456483
H24   H     H_    0.879013 0.695790 0.901212 0.334921
S7    S     S_3+6 0.756921 0.814639 0.078276 0.126561
O51   O     O_2   0.739929 0.848638 0.150921 -0.175796
O52   O     O_2   0.783130 0.882498 0.054008 -0.188064
O53   O     O_3   0.663793 0.724130 0.992377 -0.462120
H25   H     H_    0.667753 0.721381 0.941229 0.380076
S8    S     S_3+6 0.970017 0.957396 0.235953 0.117138
O54   O     O_2   0.063317 0.002552 0.308864 -0.282018
O55   O     O_2   0.971967 0.971958 0.163971 -0.167102
O56   O     O_3   0.913379 0.999532 0.269806 -0.446779
H26   H     H_    0.936937 0.057634 0.275917 0.385815
S9    S     S_3+6 0.345406 0.606653 0.184839 0.074000
O57   O     O_2   0.301402 0.549856 0.088428 -0.274502
O58   O     O_2   0.339751 0.688167 0.205899 -0.214864
O59   O     O_3   0.451822 0.632740 0.231320 -0.465209
H27   H     H_    0.478929 0.669484 0.210981 0.403001
C79   C     C_2   0.164028 0.863278 0.426812 0.433348
H28   H     H_    0.186558 0.828371 0.455130 0.126067
O60   O     O_2   0.204733 0.942743 0.467710 -0.498487
C80   C     C_2   0.907235 0.338339 0.713493 0.610985
H29   H     H_    0.881321 0.364663 0.752276 0.022592
O61   O     O_2   0.906119 0.355409 0.657190 -0.394493
C81   C     C_2   0.175946 0.247611 0.024476 0.429387
H30   H     H_    0.214658 0.315346 0.073571 0.069336
O62   O     O_2   0.186528 0.194632 0.042844 -0.485772
C82   C     C_2   0.964269 0.019103 0.716066 0.463696
H31   H     H_    0.907075 0.997075 0.656140 -0.007359
O63   O     O_2   0.979943 0.965066 0.727998 -0.509552
S10   S     S_3+6 0.840068 0.165030 0.554092 0.078057
O64   O     O_2   0.794102 0.067596 0.503736 -0.281327
O65   O     O_2   0.771463 0.189536 0.556611 -0.232068
O66   O     O_3   0.882849 0.204461 0.502394 -0.443178
H32   H     H_    0.833620 0.171881 0.441777 0.410270
C83   C     C_2   0.177329 0.421795 0.328735 0.458899
H33   H     H_    0.106298 0.387395 0.298234 0.075051
O67   O     O_2   0.223157 0.432409 0.398742 -0.547418
C84   C     C_2   0.580193 0.736274 0.456469 0.481010
H34   H     H_    0.575699 0.794585 0.481561 0.091702
O68   O     O_2   0.512540 0.666041 0.407723 -0.551690
S11   S     S_3+6 0.759070 0.531619 0.470477 0.067910
O69   O     O_2   0.712967 0.467694 0.491295 -0.245094
O70   O     O_2   0.697012 0.510291 0.381894 -0.234715
O71   O     O_3   0.845847 0.522423 0.470013 -0.480474
H35   H     H_    0.820258 0.461032 0.425701 0.406421
C85   C     C_2   0.915064 0.717241 0.702276 0.502976
H36   H     H_    0.867051 0.692803 0.720088 0.067158
O72   O     O_2   0.990606 0.773848 0.759696 -0.450835

loop_
_geom_bond_atom_site_label_1
_geom_bond_atom_site_label_2
_ccdc_geom_bond_type
C1    O1    A    
C66   C68   A    
S11   O69   D    
Cu5   Cu6   S    
S7    O51   D    
C14   C73   S    
C13   C84   S    
C44   O14   A    
C55   C79   S    
Cu4   O8    S    
C19   C20   A    
C1    C11   S    
Cu3   O7    S    
C12   O19   A    
Cu1   O18   S    
S2    O35   S    
C75   H16   S    
C4    C70   S    
O59   H27   S    
Cu5   O9    S    
C7    C8    A    
S9    O58   D    
Cu2   O12   S    
C53   C54   A    
C52   C53   A    
Cu6   O13   S    
S11   O70   D    
C28   C29   A    
C16   C21   A    
S8    O55   D    
Cu1   O22   S    
C11   C13   A    
C42   O10   A    
C36   C37   A    
C43   O13   A    
C12   O18   A    
C80   O61   D    
C65   C80   S    
C5    C6    A    
C31   C32   A    
C77   H21   S    
S8    O54   D    
C83   H33   S    
Cu5   O11   S    
C71   H12   S    
C59   C81   S    
C83   O67   D    
C18   C19   A    
Cu3   Cu4   S    
Cu4   O6    S    
C82   O63   D    
C25   S3    S    
C50   S8    S    
O42   H20   S    
C3    C83   S    
Cu2   O23   S    
C76   H19   S    
C78   H23   S    
C41   O7    A    
S1    O25   D    
C45   C56   S    
C48   H6    S    
C84   H34   S    
C23   C33   S    
C66   S10   S    
C17   C18   A    
Cu5   O16   S    
S5    O46   S    
C51   C57   A    
C44   O15   A    
C38   O24   A    
C16   C74   S    
C44   C57   S    
C56   S1    S    
C6    C85   S    
C47   S6    S    
C30   H4    S    
Cu6   O17   S    
C81   H30   S    
C59   C60   A    
C78   O47   D    
C13   C14   A    
C61   C82   S    
C77   O43   D    
C61   C62   A    
S4    O42   S    
C5    C10   A    
C79   O60   D    
C50   C51   A    
S9    O59   S    
C4    C45   S    
C72   O29   D    
C19   S2    S    
C22   C34   S    
S11   O71   S    
C73   H14   S    
C45   C69   S    
C42   O9    A    
S6    O50   S    
C43   O11   A    
Cu3   O24   S    
C24   C25   A    
Cu3   O5    S    
S3    O37   D    
C2    C67   S    
C85   H36   S    
O71   H35   S    
C16   C17   A    
O66   H32   S    
S2    O34   D    
C25   C26   A    
O56   H26   S    
C23   O20   A    
C51   C52   A    
C38   O2    A    
C60   C61   A    
C67   C69   S    
C35   C36   A    
S3    O38   S    
C7    C71   S    
C80   H29   S    
S10   O66   S    
C49   S7    S    
C29   C30   A    
S9    O57   D    
C46   O16   A    
C3    C56   S    
C41   O8    A    
Cu2   O21   S    
C36   H5    S    
C18   H2    S    
C23   O21   A    
C20   C21   A    
C62   C63   A    
C27   S4    S    
C8    C9    A    
S1    O26   D    
C40   O6    A    
C72   H13   S    
C45   H3    S    
C47   C52   A    
C35   C76   S    
Cu1   O1    S    
S4    O41   D    
O53   H25   S    
S5    O45   D    
C49   C50   A    
S7    O53   S    
C55   C57   A    
C74   H15   S    
C22   C24   A    
C4    C12   S    
C73   O30   D    
C3    C4    S    
O46   H22   S    
C79   H28   S    
C9    C10   A    
Cu6   O15   S    
C82   H31   S    
C54   C55   A    
C48   C49   A    
C39   O4    A    
C27   C32   A    
C39   C67   S    
S6    O49   D    
C58   C63   A    
S3    O36   D    
C47   C48   A    
C75   O32   D    
C1    O12   A    
C5    S11   S    
O38   H18   S    
C17   C75   S    
O27   H11   S    
C6    C7    A    
C56   C67   S    
C46   O17   A    
O35   H17   S    
C40   C64   S    
C62   C68   A    
S4    O40   D    
C34   O22   A    
S10   O64   D    
Cu4   O4    S    
C76   O39   D    
C2    C3    S    
C58   C59   A    
Cu3   O3    S    
Cu1   Cu2   S    
C85   O72   D    
C2    C70   S    
C58   H7    S    
C32   C33   A    
C29   S5    S    
C60   H8    S    
C30   C31   A    
C38   C53   S    
C20   C26   A    
C64   C65   A    
Cu5   O14   S    
C33   C35   A    
C71   O28   D    
C2    H10   S    
S1    O27   S    
C42   C68   S    
C40   O5    A    
C9    C15   A    
C69   C70   S    
S6    O48   D    
O50   H24   S    
C10   C11   A    
C15   C43   S    
C63   C64   A    
C31   C37   A    
C24   H1    S    
C28   C77   S    
Cu2   O19   S    
C8    C72   S    
S7    O52   D    
C65   C66   A    
Cu1   O20   S    
C27   C28   A    
C74   O31   D    
C34   O23   A    
C14   C15   A    
S5    O44   D    
C69   S9    S    
Cu4   O2    S    
C37   C46   S    
C21   C22   A    
C70   H9    S    
C81   O62   D    
C39   O3    A    
C84   O68   D    
Cu6   O10   S    
S2    O33   D    
C26   C41   S    
S10   O65   D    
C54   C78   S    
S8    O56   S    
