data_mof_unit_55376.cif
_audit_creation_date              2013-03-05T16:38:05-0500
_audit_creation_method            fapswitch 2.2
_symmetry_space_group_name_H-M    P1
_symmetry_Int_Tables_number       1
_space_group_crystal_system       triclinic
_cell_length_a                    19.352851
_cell_length_b                    18.44006
_cell_length_c                    10.499461
_cell_angle_alpha                 90.325217
_cell_angle_beta                  89.466363
_cell_angle_gamma                 89.852176
_cell_volume                      3746.68299394

loop_
_atom_site_label
_atom_site_type_symbol
_atom_site_description
_atom_site_fract_x
_atom_site_fract_y
_atom_site_fract_z
_atom_type_partial_charge
O1    O     O_R   0.398180 0.560840 0.499970 -0.588908
O2    O     O_R   0.601820 0.439160 0.500030 -0.603042
O3    O     O_R   0.601820 0.560840 0.500030 -0.582024
O4    O     O_R   0.398180 0.439160 0.499970 -0.602993
C1    C     C_R   0.365524 0.500097 0.496664 0.890967
C2    C     C_R   0.634544 0.499962 0.501716 0.909561
O5    O     O_R   0.499980 0.560800 0.313940 -0.609489
O6    O     O_R   0.500020 0.439200 0.686060 -0.605285
O7    O     O_R   0.500020 0.560800 0.686060 -0.646594
O8    O     O_R   0.499980 0.439200 0.313940 -0.643470
C3    C     C_R   0.500266 0.499710 0.257134 0.924603
C4    C     C_R   0.498962 0.500178 0.742770 0.894430
Zn1   Zn    Zn3+2 0.500000 0.581210 0.500000 0.962912
Zn2   Zn    Zn3+2 0.500000 0.418790 0.500000 0.962587
C5    C     C_3   0.444301 0.538866 0.045460 -0.359339
C6    C     C_3   0.553057 0.460086 0.955424 -0.310287
C7    C     C_3   0.503349 0.569481 0.960183 -0.301833
C8    C     C_3   0.493949 0.430240 0.040014 -0.214675
C9    C     C_3   0.440520 0.470872 0.960077 0.566337
C10   C     C_3   0.557372 0.528544 0.038838 0.592635
H1    H     H_    0.400465 0.570102 0.087341 0.162705
H2    H     H_    0.596591 0.427762 0.915247 0.150730
H3    H     H_    0.506181 0.625606 0.922832 0.176949
H4    H     H_    0.488790 0.374055 0.076336 0.184717
C11   C     C_3   0.498564 0.500402 0.877193 -0.131400
C12   C     C_3   0.499393 0.498945 0.122559 -0.108422
C13   C     C_R   0.746726 0.433992 0.523844 0.445841
C14   C     C_R   0.253020 0.566167 0.498048 0.433051
C15   C     C_R   0.254595 0.435313 0.455381 0.439308
C16   C     C_R   0.747213 0.564929 0.483344 0.429886
C17   C     C_R   0.818242 0.433306 0.513373 -0.259951
C18   C     C_R   0.181595 0.565799 0.486662 -0.284923
C19   C     C_R   0.182963 0.435840 0.451792 -0.257683
C20   C     C_R   0.818971 0.563322 0.482395 -0.284139
H5    H     H_    0.846109 0.382675 0.524161 0.166785
H6    H     H_    0.153418 0.616452 0.495745 0.160805
H7    H     H_    0.155846 0.385007 0.439123 0.164614
H8    H     H_    0.847438 0.613409 0.470183 0.168200
C21   C     C_R   0.853952 0.497731 0.494020 -0.042154
C22   C     C_R   0.146487 0.500665 0.467955 -0.031053
C23   C     C_R   0.710163 0.499763 0.503754 -0.275692
C24   C     C_R   0.290292 0.500452 0.483519 -0.294031
C25   C     C_R   0.965510 0.538581 0.575743 -0.189145
C26   C     C_R   0.034007 0.458190 0.385763 -0.193290
C27   C     C_R   0.036883 0.539572 0.568900 -0.189997
C28   C     C_R   0.962497 0.456489 0.393792 -0.183424
H9    H     H_    0.939082 0.569565 0.649555 0.143774
H10   H     H_    0.060047 0.427683 0.310957 0.134258
H11   H     H_    0.065150 0.570663 0.638985 0.133780
H12   H     H_    0.933620 0.424740 0.325467 0.145320
C29   C     C_R   0.071382 0.499852 0.473283 0.175248
C30   C     C_R   0.928483 0.497086 0.488255 0.164272
C31   C     C_R   0.547375 0.726121 0.570370 -0.010031
C32   C     C_R   0.554162 0.273558 0.446909 0.005736
C33   C     C_R   0.451895 0.725812 0.431092 0.007629
C34   C     C_R   0.445753 0.274400 0.553247 0.016993
H13   H     H_    0.585032 0.696289 0.624877 0.157696
H14   H     H_    0.596764 0.303064 0.404824 0.170721
H15   H     H_    0.414315 0.695726 0.376619 0.162694
H16   H     H_    0.403258 0.304562 0.595374 0.176611
C35   C     C_R   0.548296 0.802199 0.571396 -0.205568
C36   C     C_R   0.555240 0.197492 0.446589 -0.169832
C37   C     C_R   0.450213 0.801859 0.431333 -0.185866
C38   C     C_R   0.444406 0.198363 0.553614 -0.171173
H17   H     H_    0.587240 0.830364 0.625930 0.164258
H18   H     H_    0.599023 0.169008 0.405018 0.162734
H19   H     H_    0.411001 0.829763 0.377261 0.164952
H20   H     H_    0.400535 0.170572 0.595266 0.164418
C39   C     C_R   0.499220 0.841233 0.501296 0.251121
C40   C     C_R   0.499755 0.158827 0.500131 0.237899
N1    N     N_R   0.500000 0.689440 0.500000 -0.109138
N2    N     N_R   0.500000 0.310560 0.500000 -0.117587
C41   C     C_R   0.503960 0.961202 0.384639 0.189818
C42   C     C_R   0.495485 0.039107 0.616588 0.189759
C43   C     C_R   0.494674 0.962274 0.616796 0.193073
C44   C     C_R   0.503545 0.038065 0.384364 0.190481
C45   C     C_R   0.499630 0.077465 0.500355 -0.233926
C46   C     C_R   0.499270 0.922735 0.500892 -0.231634
O9    O     O_3   0.381696 0.435257 0.911686 -0.648635
C47   C     C_3   0.330470 0.485576 0.875227 0.073627
H21   H     H_    0.309852 0.467622 0.781839 0.164767
H22   H     H_    0.350354 0.541646 0.860868 0.119275
C48   C     C_3   0.271371 0.485415 0.973256 -0.351546
H23   H     H_    0.248658 0.430229 0.977977 0.237635
H24   H     H_    0.291578 0.499505 0.068930 0.212939
C49   C     C_3   0.214525 0.539043 0.938603 -0.970925
H25   H     H_    0.234840 0.595269 0.939460 0.265226
H26   H     H_    0.171766 0.535539 0.009536 0.273340
H27   H     H_    0.193707 0.526215 0.842825 0.260806
O10   O     O_3   0.619227 0.554837 0.092438 -0.671802
C50   C     C_3   0.656529 0.597965 0.004563 0.071230
H28   H     H_    0.696796 0.626791 0.059531 0.167244
H29   H     H_    0.623904 0.640838 0.961391 0.139704
C51   C     C_3   0.692991 0.552195 0.901216 -0.398726
H30   H     H_    0.718003 0.504409 0.945566 0.234388
H31   H     H_    0.654673 0.533203 0.830626 0.199505
C52   C     C_3   0.747780 0.595920 0.830178 -0.902870
H32   H     H_    0.723467 0.642272 0.780250 0.281610
H33   H     H_    0.774017 0.560559 0.758713 0.263654
H34   H     H_    0.787244 0.616590 0.897297 0.256067
O11   O     O_3   0.713501 0.368950 0.547441 -0.631998
C53   C     C_3   0.694918 0.364695 0.678087 0.133483
H35   H     H_    0.647259 0.331396 0.684953 0.188781
H36   H     H_    0.681871 0.418336 0.721802 0.094065
C54   C     C_3   0.751975 0.327497 0.754064 -0.395271
H37   H     H_    0.764931 0.274442 0.708974 0.247543
H38   H     H_    0.799062 0.361818 0.753658 0.216074
C55   C     C_3   0.729325 0.315013 0.891816 -0.895708
H39   H     H_    0.717585 0.367526 0.939647 0.249766
H40   H     H_    0.771545 0.287735 0.944215 0.272566
H41   H     H_    0.682725 0.279998 0.895281 0.286959
O12   O     O_3   0.286369 0.631231 0.521173 -0.617895
C56   C     C_3   0.277034 0.650657 0.650661 0.057822
H42   H     H_    0.280673 0.602714 0.714212 0.122225
H43   H     H_    0.225540 0.676705 0.664404 0.146264
C57   C     C_3   0.333393 0.704177 0.689234 -0.295334
H44   H     H_    0.384935 0.679080 0.672092 0.245225
H45   H     H_    0.329440 0.753907 0.630329 0.240165
C58   C     C_3   0.327279 0.724888 0.829838 -0.890610
H46   H     H_    0.275749 0.749133 0.850647 0.264777
H47   H     H_    0.367702 0.765138 0.853926 0.317629
H48   H     H_    0.334864 0.676420 0.890502 0.242165
O13   O     O_3   0.288192 0.369226 0.443645 -0.631873
C59   C     C_3   0.313438 0.359739 0.317541 0.148760
H49   H     H_    0.361656 0.327101 0.323297 0.189865
H50   H     H_    0.328030 0.411545 0.269718 0.098701
C60   C     C_3   0.261056 0.318270 0.236757 -0.433657
H51   H     H_    0.239813 0.272092 0.292182 0.254434
H52   H     H_    0.217737 0.355073 0.211823 0.207431
C61   C     C_3   0.294455 0.288854 0.114649 -0.851571
H53   H     H_    0.319872 0.333149 0.060861 0.285281
H54   H     H_    0.254377 0.263734 0.053759 0.268098
H55   H     H_    0.333744 0.247018 0.137684 0.295011
O14   O     O_3   0.714306 0.631451 0.475452 -0.626850
C62   C     C_3   0.712638 0.653743 0.346861 0.079618
H56   H     H_    0.668858 0.626471 0.298533 0.202169
H57   H     H_    0.761459 0.640918 0.293772 0.120716
C63   C     C_3   0.701718 0.735815 0.342879 -0.337911
H58   H     H_    0.653476 0.750301 0.394924 0.250209
H59   H     H_    0.745638 0.763129 0.390709 0.224806
C64   C     C_3   0.696637 0.763338 0.206541 -0.855046
H60   H     H_    0.743535 0.747954 0.150778 0.236741
H61   H     H_    0.692223 0.823372 0.207528 0.304798
H62   H     H_    0.650114 0.740573 0.159985 0.275305
N3    N     N_R   0.508901 0.922341 0.265855 0.243278
O15   O     O_R   0.556442 0.873168 0.248531 -0.385437
O16   O     O_R   0.466048 0.936235 0.174337 -0.277859
N4    N     N_R   0.491736 0.078130 0.735350 0.246256
O17   O     O_R   0.537927 0.126784 0.762847 -0.353246
O18   O     O_R   0.442275 0.064916 0.816680 -0.287378
N5    N     N_R   0.489054 0.924490 0.735702 0.243777
O19   O     O_R   0.440518 0.876801 0.753172 -0.386675
O20   O     O_R   0.531930 0.938238 0.827415 -0.280763
N6    N     N_R   0.507411 0.076051 0.265362 0.246472
O21   O     O_R   0.461468 0.125002 0.237685 -0.360727
O22   O     O_R   0.556701 0.061541 0.183945 -0.290805

loop_
_geom_bond_atom_site_label_1
_geom_bond_atom_site_label_2
_geom_bond_distance
_ccdc_geom_bond_type
C62   C63   1.528420 S    
C1    C24   1.463757 S    
O11   C53   1.417483 S    
C33   H15   1.081694 S    
C15   C24   1.418239 A    
C55   H39   1.110287 S    
C61   H54   1.110232 S    
C63   H58   1.108663 S    
C8    C12   1.535326 S    
O3    C2    1.287781 A    
C52   H32   1.111016 S    
C62   H56   1.111561 S    
C14   O12   1.385121 S    
C5    C9    1.539495 S    
C54   H38   1.110807 S    
C7    H3    1.110127 S    
C8    H4    1.110462 S    
C38   H20   1.082859 S    
C42   N4    1.437290 S    
N4    O18   1.301217 A    
C64   H61   1.110082 S    
C53   H36   1.115456 S    
C49   H26   1.110384 S    
C25   C30   1.396371 A    
C27   C29   1.402411 A    
C15   C19   1.387153 A    
C7    C10   1.537548 S    
C57   H44   1.111232 S    
C36   C40   1.405231 A    
C53   C54   1.531287 S    
C5    C7    1.554428 S    
C8    C9    1.534357 S    
C44   N6    1.437302 S    
O7    Zn1   1.991554 S    
C52   H33   1.109817 S    
C31   C35   1.403031 A    
C37   C39   1.405977 A    
C43   N5    1.436545 S    
C16   O14   1.383919 S    
C42   C45   1.415747 A    
C33   C37   1.402589 A    
O6    Zn2   1.987359 S    
N5    O19   1.300830 A    
C34   C38   1.402461 A    
C16   C23   1.417244 A    
C38   C40   1.405116 A    
N6    O22   1.301215 A    
O3    Zn1   2.005040 S    
C6    C10   1.535234 S    
C51   H31   1.109281 S    
C56   C57   1.528701 S    
N5    O20   1.301242 A    
C21   C30   1.443117 S    
C40   C45   1.500340 S    
C39   C46   1.502931 S    
O2    C2    1.289226 A    
C47   C48   1.531540 S    
O2    Zn2   2.006943 S    
O12   C56   1.413825 S    
N3    O16   1.301253 A    
C26   C28   1.386163 A    
N3    O15   1.300953 A    
C58   H47   1.109682 S    
C49   H27   1.111250 S    
C54   C55   1.526257 S    
C37   H19   1.082729 S    
C19   C22   1.395400 A    
C42   C43   1.416930 A    
C16   C20   1.388896 A    
C13   C17   1.387398 A    
C20   C21   1.391080 A    
O13   C59   1.416777 S    
C36   H18   1.082854 S    
N4    O17   1.301294 A    
C47   H22   1.114718 S    
O8    Zn2   1.991554 S    
C64   H62   1.110673 S    
C50   H28   1.109024 S    
C31   H13   1.081906 S    
C49   H25   1.109809 S    
O4    C1    1.288585 A    
C5    C12   1.533871 S    
C32   C36   1.402762 A    
C3    C12   1.413215 S    
C34   N2    1.362441 A    
C43   C46   1.417033 A    
C41   C46   1.417512 A    
C10   O10   1.413218 S    
C13   O11   1.384806 S    
C19   H7    1.083589 S    
C34   H16   1.081376 S    
C41   N3    1.437132 S    
C2    C23   1.463783 S    
O5    C3    1.271625 A    
C60   H52   1.111360 S    
C50   H29   1.111739 S    
C13   C23   1.420353 A    
C48   H23   1.110738 S    
C14   C18   1.388580 A    
O6    C4    1.269399 A    
C27   H11   1.083409 S    
C51   H30   1.110967 S    
C44   C45   1.415876 A    
C9    O9    1.412896 S    
C25   C27   1.382652 A    
N6    O21   1.301333 A    
C63   H59   1.111582 S    
C59   C60   1.531175 S    
C26   C29   1.401790 A    
C48   H24   1.111036 S    
C41   C44   1.417387 A    
O1    C1    1.287975 A    
C5    H1    1.110173 S    
C61   H55   1.110988 S    
O1    Zn1   2.006945 S    
C60   H51   1.111636 S    
C31   N1    1.361671 A    
C18   H6    1.083640 S    
C52   H34   1.110705 S    
C59   H50   1.117431 S    
C56   H42   1.113115 S    
C32   H14   1.081332 S    
C58   H48   1.110655 S    
C35   C39   1.406183 A    
C6    C11   1.535756 S    
C62   H57   1.116629 S    
C6    H2    1.109499 S    
C20   H8    1.084268 S    
Zn2   N2    1.995766 S    
C47   H21   1.111096 S    
C63   C64   1.525447 S    
C50   C51   1.536214 S    
C58   H46   1.111148 S    
C55   H41   1.110949 S    
O14   C62   1.414190 S    
C22   C29   1.454165 S    
Zn1   N1    1.995766 S    
C54   H37   1.111491 S    
C28   H12   1.083556 S    
C51   C52   1.525522 S    
C57   C58   1.526219 S    
C4    C11   1.411297 S    
C7    C11   1.542710 S    
C61   H53   1.109148 S    
C60   C61   1.526615 S    
C64   H60   1.110813 S    
C28   C30   1.397949 A    
O10   C50   1.415549 S    
C55   H40   1.110273 S    
C10   C12   1.523104 S    
C15   O13   1.384116 S    
C14   C24   1.415396 A    
C57   H45   1.111868 S    
C17   H5    1.084024 S    
C18   C22   1.395286 A    
O4    Zn2   2.005042 S    
C53   H35   1.111367 S    
C9    C11   1.518563 S    
O7    C4    1.269653 A    
O8    C3    1.268200 A    
O9    C47   1.413031 S    
C35   H17   1.082726 S    
O5    Zn1   1.987359 S    
C48   C49   1.525306 S    
C32   N2    1.362381 A    
C6    C8    1.545992 S    
C17   C21   1.390902 A    
C25   H9    1.083828 S    
C33   N1    1.361918 A    
C26   H10   1.083264 S    
C59   H49   1.111401 S    
C56   H43   1.112993 S    
