data_mof_unit_8098.cif
_audit_creation_date              2012-10-26T18:26:38-0400
_audit_creation_method            fapswitch 2.2
_symmetry_space_group_name_H-M    P1
_symmetry_Int_Tables_number       1
_space_group_crystal_system       triclinic
_cell_length_a                    15.828482
_cell_length_b                    8.72842
_cell_length_c                    7.453214
_cell_angle_alpha                 102.986451
_cell_angle_beta                  93.361653
_cell_angle_gamma                 92.908418
_cell_volume                      999.490397198

loop_
_atom_site_label
_atom_site_type_symbol
_atom_type_description
_atom_site_fract_x
_atom_site_fract_y
_atom_site_fract_z
_atom_type_partial_charge
C1    C     C_R   0.497454 0.199776 0.453318 0.547254
C2    C     C_3   0.981883 0.648902 0.585899 -0.179368
C3    C     C_1   0.250310 0.491256 0.510683 0.013251
C4    C     C_1   0.749690 0.508744 0.489317 0.013251
C5    C     C_3   0.029498 0.532587 0.677413 0.371871
C6    C     C_3   0.970502 0.467413 0.322587 0.371872
C7    C     C_3   0.082835 0.488850 0.509419 -0.018213
C8    C     C_3   0.917165 0.511150 0.490581 -0.018213
C9    C     C_1   0.174667 0.487489 0.513304 0.035438
C10   C     C_1   0.825332 0.512511 0.486696 0.035438
C11   C     C_3   0.973564 0.195067 0.734884 0.043349
C12   C     C_R   0.502546 0.800224 0.546682 0.547254
C13   C     C_3   0.920864 0.082520 0.818940 -0.342231
C14   C     C_3   0.026437 0.804933 0.265116 0.043349
C15   C     C_3   0.079136 0.917480 0.181061 -0.342231
C16   C     C_R   0.339926 0.497165 0.503199 0.546564
C17   C     C_R   0.660074 0.502835 0.496801 0.546564
C18   C     C_2   0.496247 0.031968 0.427198 -0.148391
C19   C     C_2   0.503753 0.968032 0.572801 -0.148390
C20   C     C_3   0.964769 0.397378 0.583285 0.260563
C21   C     C_3   0.035231 0.602622 0.416715 0.260563
C22   C     C_3   0.018117 0.351098 0.414101 -0.179368
Cu1   Cu    Cu3+1 0.509330 0.517380 0.684380 0.984738
Cu2   Cu    Cu3+1 0.490670 0.482620 0.315620 0.984738
F1    F     F_    0.938567 0.438346 0.140715 -0.608813
F2    F     F_    0.061433 0.561654 0.859284 -0.608813
H1    H     H_    0.034213 0.230942 0.347424 0.103058
H2    H     H_    0.962438 0.000401 0.868340 0.081521
H3    H     H_    0.888336 0.149041 0.937196 0.221082
H4    H     H_    0.993193 0.875847 0.379717 0.092782
H5    H     H_    0.978907 0.736743 0.156942 0.224197
H6    H     H_    0.111665 0.850959 0.062806 0.221081
H7    H     H_    0.037562 0.999598 0.131660 0.081521
H8    H     H_    0.127404 0.986744 0.286290 0.147500
H9    H     H_    0.965787 0.769058 0.652575 0.103058
H10   H     H_    0.489172 0.960568 0.286742 0.137675
H11   H     H_    0.510828 0.039432 0.713258 0.137675
H12   H     H_    0.434234 0.377675 0.949385 0.242243
H13   H     H_    0.565766 0.622325 0.050615 0.242243
H14   H     H_    0.021094 0.263257 0.843057 0.224196
H15   H     H_    0.006807 0.124152 0.620282 0.092782
H16   H     H_    0.872596 0.013257 0.713712 0.147500
N1    N     N_2   0.476600 0.456420 0.038510 -0.252269
N2    N     N_2   0.523400 0.543580 0.961490 -0.252269
O1    O     O_R   0.506070 0.286130 0.619780 -0.506589
O2    O     O_3   0.081249 0.704222 0.329792 -0.512948
O3    O     O_R   0.493930 0.713870 0.380220 -0.506588
O4    O     O_R   0.490300 0.256770 0.308360 -0.498407
O5    O     O_R   0.509700 0.743230 0.691640 -0.498407
O6    O     O_R   0.386960 0.514660 0.655680 -0.499498
O7    O     O_R   0.613040 0.485340 0.344320 -0.499498
O8    O     O_R   0.371190 0.485310 0.344260 -0.486359
O9    O     O_R   0.628810 0.514690 0.655740 -0.486359
O10   O     O_3   0.918751 0.295778 0.670208 -0.512948

loop_
_geom_bond_atom_site_label_1
_geom_bond_atom_site_label_2
_ccdc_geom_bond_type
C2    H9    S    
Cu2   O8    S    
N1    N2    D    
C1    O4    A    
Cu1   O9    S    
H13   N2    S    
Cu1   O1    S    
C7    C22   S    
C15   H8    S    
C14   H5    S    
Cu1   Cu2   S    
Cu2   O4    S    
C17   O7    A    
C2    C21   S    
C12   O5    A    
C15   H6    S    
C13   H2    S    
C5    C20   S    
C6    C21   S    
C11   C13   S    
C1    O1    A    
C1    C18   S    
C8    C20   S    
C11   O10   S    
C14   H4    S    
C12   O3    A    
C3    C9    T    
C4    C17   S    
C12   C19   S    
C13   H3    S    
C13   H16   S    
C16   O6    A    
C11   H15   S    
C5    C7    S    
C22   H1    S    
C11   H14   S    
Cu1   O5    S    
C2    C5    S    
C3    C16   S    
C4    C10   T    
C5    F2    S    
C6    F1    S    
C17   O9    A    
H12   N1    S    
C20   O10   S    
C18   C19   D    
C7    C9    S    
Cu2   N1    S    
C14   C15   S    
Cu2   O7    S    
Cu1   O6    S    
C6    C8    S    
C19   H11   S    
C7    C21   S    
Cu2   O3    S    
C18   H10   S    
C15   H7    S    
C8    C10   S    
C2    C8    S    
Cu1   N2    S    
C16   O8    A    
C20   C22   S    
C14   O2    S    
C21   O2    S    
C6    C22   S    
