data_mof_unit_35715.cif
_audit_creation_date              2012-12-11T14:50:45-0500
_audit_creation_method            fapswitch 2.2
_symmetry_space_group_name_H-M    P1
_symmetry_Int_Tables_number       1
_space_group_crystal_system       triclinic
_cell_length_a                    10.858765
_cell_length_b                    10.962027
_cell_length_c                    18.719989
_cell_angle_alpha                 90.105131
_cell_angle_beta                  89.880329
_cell_angle_gamma                 60.448415
_cell_volume                      1938.4245898

loop_
_atom_site_label
_atom_site_type_symbol
_atom_type_description
_atom_site_fract_x
_atom_site_fract_y
_atom_site_fract_z
_atom_type_partial_charge
C1    C     C_R   0.234786 0.645074 0.608921 0.552301
C2    C     C_R   0.540552 0.208603 0.795920 -0.154867
C3    C     C_R   0.525770 0.234518 0.724349 -0.175571
C4    C     C_R   0.657979 0.628410 0.598017 0.539525
C5    C     C_R   0.624428 0.255638 0.686932 0.021833
C6    C     C_R   0.218037 0.541145 0.723937 -0.187750
C7    C     C_R   0.206063 0.554634 0.797991 -0.187239
C8    C     C_R   0.164765 0.685237 0.829783 -0.012731
C9    C     C_R   0.131558 0.802589 0.785256 0.098769
C10   C     C_R   0.119033 0.790059 0.712145 0.113402
C11   C     C_R   0.180032 0.659212 0.681313 -0.016189
C12   C     C_3   0.643824 0.622491 0.800826 -0.220210
C13   C     C_R   0.806210 0.603964 0.295373 -0.121730
C14   C     C_R   0.825343 0.622602 0.223944 -0.132857
C15   C     C_R   0.709748 0.713121 0.181794 0.021557
C16   C     C_R   0.594938 0.289493 0.610824 0.563908
C17   C     C_R   0.575941 0.793449 0.213282 -0.136920
C18   C     C_R   0.556279 0.774082 0.285057 -0.134858
C19   C     C_R   0.670373 0.674355 0.325514 0.031314
C20   C     C_R   0.561908 0.135544 0.290116 -0.137390
C21   C     C_R   0.559575 0.126937 0.217233 -0.141583
C22   C     C_R   0.647904 0.158156 0.175572 0.027044
C23   C     C_3   0.728919 0.700564 0.806165 0.005036
C24   C     C_R   0.733438 0.205004 0.206972 -0.144409
C25   C     C_R   0.731490 0.219193 0.280201 -0.091211
C26   C     C_R   0.645881 0.183863 0.321881 0.070308
C27   C     C_R   0.065249 0.797226 0.306641 0.213644
C28   C     C_R   0.219989 0.648852 0.402302 0.585352
C29   C     C_R   0.042097 0.811108 0.234163 -0.093889
C30   C     C_R   0.109614 0.692930 0.189334 -0.008223
C31   C     C_R   0.187910 0.558893 0.216958 -0.175766
C32   C     C_R   0.210648 0.544209 0.289491 -0.180527
C33   C     C_R   0.156141 0.664166 0.333705 0.042077
C34   C     C_3   0.680934 0.669284 0.671303 0.060849
C35   C     C_R   0.697028 0.109516 0.898650 0.542714
C36   C     C_R   0.757068 0.712575 0.883093 0.550219
C37   C     C_R   0.115397 0.709626 0.904176 0.549035
C38   C     C_R   0.673676 0.108562 0.103430 0.540385
C39   C     C_R   0.732952 0.718173 0.105296 0.564992
C40   C     C_R   0.644801 0.625559 0.393557 0.531947
C41   C     C_R   0.085242 0.713973 0.114544 0.544208
C42   C     C_R   0.617347 0.229945 0.394708 0.588153
C43   C     C_3   0.644386 0.846814 0.768477 -0.196178
C44   C     C_3   0.619335 0.829317 0.687505 0.090013
C45   C     C_3   0.842985 0.601611 0.686533 -0.247899
C46   C     C_3   0.870176 0.616410 0.765648 -0.253502
C47   C     C_3   0.605071 0.616643 0.723218 -0.203061
C48   C     C_R   0.740713 0.250666 0.724824 0.216914
C49   C     C_R   0.759305 0.215511 0.797054 -0.098376
C50   C     C_R   0.663956 0.186319 0.831607 -0.021732
Cl1   Cl    Cl    0.870940 0.280106 0.686088 -0.576698
Cl2   Cl    Cl    0.985009 0.947663 0.361381 -0.605213
Cl3   Cl    Cl    0.435004 0.937312 0.666439 -0.560500
Cr1   Cr    Cr6+3 0.392930 0.397900 0.502230 1.043862
Cr2   Cr    Cr6+3 0.398240 0.708600 0.501260 1.124489
Cr3   Cr    Cr6+3 0.708800 0.393470 0.496460 1.115303
Cr4   Cr    Cr6+3 0.937620 0.938540 0.007640 1.038914
Cr5   Cr    Cr6+3 0.625150 0.937450 0.994520 1.024557
Cr6   Cr    Cr6+3 0.937990 0.625080 0.001190 1.016277
H1    H     H_    0.704460 0.904397 0.773004 0.107592
H2    H     H_    0.541416 0.911010 0.796297 0.198906
H3    H     H_    0.896266 0.528007 0.325757 0.142157
H4    H     H_    0.929722 0.561326 0.200747 0.140147
H5    H     H_    0.485482 0.865322 0.181868 0.134693
H6    H     H_    0.450403 0.829909 0.307336 0.147798
H7    H     H_    0.493609 0.109957 0.321377 0.141311
H8    H     H_    0.493645 0.088874 0.193958 0.137759
H9    H     H_    0.803486 0.227244 0.175151 0.134387
H10   H     H_    0.794353 0.260561 0.303872 0.166991
H11   H     H_    0.973295 0.914595 0.212647 0.164815
H12   H     H_    0.626960 0.510624 0.709684 0.137424
H13   H     H_    0.235265 0.467392 0.182469 0.135644
H14   H     H_    0.280560 0.439972 0.309847 0.153908
H15   H     H_    0.676153 0.870224 0.654382 0.149362
H16   H     H_    0.930443 0.673375 0.769871 0.124417
H17   H     H_    0.887925 0.654622 0.653401 0.109481
H18   H     H_    0.707175 0.513836 0.821705 0.158173
H19   H     H_    0.545277 0.676477 0.833473 0.153081
H20   H     H_    0.488229 0.681727 0.717465 0.179211
H21   H     H_    0.935210 0.510378 0.789289 0.181487
H22   H     H_    0.905007 0.490779 0.670785 0.228929
H23   H     H_    0.849393 0.207317 0.825540 0.180535
H24   H     H_    0.459889 0.192486 0.821234 0.167151
H25   H     H_    0.437972 0.232941 0.698177 0.183042
H26   H     H_    0.253088 0.440350 0.699616 0.153820
H27   H     H_    0.227085 0.464353 0.830121 0.146825
I1    I     I_    0.141694 0.983666 0.818764 -0.249551
I2    I     I_    0.977323 0.955037 0.646073 -0.178039
O1    O     O_R   0.507430 0.255570 0.581420 -0.499072
O2    O     O_R   0.837200 0.593290 0.915250 -0.506814
O3    O     O_R   0.065330 0.635370 0.931590 -0.518419
O4    O     O_R   0.280190 0.527390 0.578910 -0.533447
O5    O     O_R   0.068300 0.828790 0.091860 -0.515002
O6    O     O_R   0.798730 0.057480 0.079370 -0.510632
O7    O     O_R   0.584680 0.080480 0.076790 -0.532359
O8    O     O_R   0.626790 0.809640 0.067050 -0.494495
O9    O     O_R   0.816010 0.596460 0.076500 -0.505708
O10   O     O_R   0.045680 0.638310 0.081070 -0.523697
O11   O     O_3   0.833590 0.833690 0.001120 -0.297138
O12   O     O_R   0.524460 0.695920 0.424060 -0.503668
O13   O     O_R   0.260310 0.739740 0.584580 -0.438907
O14   O     O_R   0.532250 0.695150 0.573830 -0.453804
O15   O     O_R   0.744930 0.503430 0.576380 -0.487091
O16   O     O_R   0.699250 0.276390 0.571950 -0.411299
O17   O     O_R   0.499020 0.256400 0.419850 -0.527955
O18   O     O_R   0.272400 0.528160 0.429140 -0.527140
O19   O     O_R   0.251910 0.740570 0.423020 -0.449792
O20   O     O_R   0.736530 0.504260 0.414810 -0.525714
O21   O     O_R   0.691460 0.277160 0.422180 -0.474653
O22   O     O_3   0.499990 0.499990 0.499980 -0.313169
O23   O     O_R   0.089490 0.825610 0.930610 -0.478263
O24   O     O_R   0.818370 0.054540 0.929880 -0.487216
O25   O     O_R   0.605870 0.077310 0.915530 -0.534742
O26   O     O_R   0.646440 0.806700 0.917570 -0.493079

loop_
_geom_bond_atom_site_label_1
_geom_bond_atom_site_label_2
_ccdc_geom_bond_type
C27   C29   A    
Cr6   O11   S    
C1    C11   S    
C47   H20   S    
Cr5   O7    S    
C36   O26   A    
C7    C8    A    
C45   C46   S    
C27   C33   A    
C18   H6    S    
Cr2   O14   S    
C10   I2    S    
C6    H26   S    
C45   H17   S    
C20   H7    S    
C42   O21   A    
C17   H5    S    
C30   C31   A    
C39   O9    A    
C7    H27   S    
C28   O19   A    
C22   C38   S    
C4    O15   A    
C23   C43   S    
Cr1   O22   S    
C18   C19   A    
Cr5   O8    S    
Cr3   O20   S    
C5    C16   S    
C2    C50   A    
C44   Cl3   S    
C16   O16   A    
C48   Cl1   S    
C41   O5    A    
C13   H3    S    
C28   O18   A    
C8    C9    A    
C12   H19   S    
C38   O7    A    
Cr5   O25   S    
C30   C41   S    
C9    C10   A    
C40   O20   A    
C16   O1    A    
C23   C46   S    
Cr4   O5    S    
C13   C14   A    
C21   H8    S    
C2    H24   S    
C12   C47   S    
Cr3   O22   S    
C46   H16   S    
C5    C48   A    
C4    C34   S    
Cr1   O18   S    
C34   C44   S    
C24   C25   A    
Cr3   O16   S    
Cr1   O1    S    
C10   C11   A    
C6    C11   A    
C37   O3    A    
C13   C19   A    
C25   C26   A    
C4    O14   A    
Cr6   O2    S    
C49   H23   S    
Cr2   O12   S    
C43   C44   S    
Cr1   O4    S    
C29   C30   A    
C31   C32   A    
C12   C23   S    
C47   H12   S    
C12   H18   S    
C38   O6    A    
C35   C50   S    
C17   C18   A    
C34   C45   S    
Cr6   O3    S    
C44   H15   S    
C15   C39   S    
C43   H1    S    
C48   C49   A    
C28   C33   S    
C23   C36   S    
C1    O4    A    
Cr4   O6    S    
Cr2   O22   S    
Cr6   O9    S    
C22   C24   A    
C25   H10   S    
C8    C37   S    
C1    O13   A    
Cr3   O21   S    
C32   H14   S    
C27   Cl2   S    
C43   H2    S    
C29   H11   S    
C36   O2    A    
C15   C17   A    
C31   H13   S    
Cr1   O17   S    
C14   C15   A    
C45   H22   S    
Cr5   O11   S    
Cr3   O15   S    
C3    C5    A    
C40   O12   A    
C6    C7    A    
Cr2   O13   S    
C32   C33   A    
C2    C3    A    
C9    I1    S    
C46   H21   S    
Cr4   O23   S    
C20   C26   A    
C14   H4    S    
C35   O25   A    
C26   C42   S    
C42   O17   A    
C39   O8    A    
C37   O23   A    
C19   C40   S    
C24   H9    S    
Cr4   O24   S    
C20   C21   A    
C49   C50   A    
Cr2   O19   S    
C3    H25   S    
Cr5   O26   S    
Cr6   O10   S    
C41   O10   A    
C34   C47   S    
C21   C22   A    
C35   O24   A    
Cr4   O11   S    
