data_mof_unit_7369.cif
_audit_creation_date              2012-10-26T18:32:01-0400
_audit_creation_method            fapswitch 2.2
_symmetry_space_group_name_H-M    P1
_symmetry_Int_Tables_number       1
_space_group_crystal_system       triclinic
_cell_length_a                    12.362974
_cell_length_b                    13.216151
_cell_length_c                    14.04494
_cell_angle_alpha                 93.567291
_cell_angle_beta                  107.698757
_cell_angle_gamma                 117.09726
_cell_volume                      1890.94802584

loop_
_atom_site_label
_atom_site_type_symbol
_atom_type_description
_atom_site_fract_x
_atom_site_fract_y
_atom_site_fract_z
_atom_type_partial_charge
C1    C     C_R   0.652590 0.714848 0.511400 0.525795
C2    C     C_R   0.184904 0.464240 0.994420 0.029375
C3    C     C_R   0.161158 0.510920 0.074476 0.029582
C4    C     C_R   0.617058 0.515355 0.687378 0.564641
C5    C     C_R   0.285992 0.435671 0.018766 0.120782
C6    C     C_R   0.361055 0.451983 0.122826 0.064995
C7    C     C_R   0.220335 0.505954 0.174771 -0.116065
C8    C     C_R   0.113710 0.972717 0.337629 -0.100703
C9    C     C_R   0.248547 0.160645 0.460478 0.049770
C10   C     C_R   0.746749 0.922856 0.593453 -0.126226
C11   C     C_R   0.843227 0.039580 0.617447 -0.142468
C12   C     C_R   0.869938 0.533119 0.925959 0.022482
C13   C     C_R   0.940909 0.072887 0.577052 -0.094570
C14   C     C_R   0.942098 0.989511 0.509701 0.047937
C15   C     C_R   0.832712 0.874873 0.473695 0.010271
C16   C     C_R   0.345340 0.284914 0.484884 0.577343
C17   C     C_R   0.044425 0.018134 0.471996 0.045430
C18   C     C_R   0.022306 0.940571 0.384616 -0.001473
C19   C     C_R   0.907183 0.832902 0.342772 -0.114193
C20   C     C_R   0.814339 0.799853 0.387266 -0.101962
C21   C     C_R   0.168232 0.120988 0.518101 0.095677
C22   C     C_R   0.222462 0.084810 0.370875 0.104342
C23   C     C_R   0.872679 0.614223 0.998450 0.012390
C24   C     C_R   0.742050 0.839282 0.523173 -0.002316
C25   C     C_R   0.257483 0.687594 0.666115 0.117536
C26   C     C_R   0.653537 0.340334 0.363052 0.068113
C27   C     C_R   0.729807 0.302766 0.332478 0.017749
C28   C     C_R   0.383525 0.485386 0.311894 0.535733
C29   C     C_R   0.866262 0.363898 0.385097 -0.136210
C30   C     C_R   0.927431 0.461608 0.468179 -0.025954
C31   C     C_R   0.844029 0.495055 0.496231 0.182241
C32   C     C_R   0.067802 0.526792 0.524674 -0.026678
C33   C     C_R   0.120868 0.622814 0.608695 0.068698
C34   C     C_R   0.978401 0.514716 0.948754 0.043193
C35   C     C_R   0.037211 0.654003 0.633561 -0.163958
C36   C     C_R   0.903028 0.591779 0.579201 -0.105048
C37   C     C_R   0.158761 0.501576 0.501444 0.044879
C38   C     C_R   0.340190 0.657784 0.637968 0.054721
C39   C     C_R   0.688155 0.533466 0.797246 -0.028016
C40   C     C_R   0.322406 0.480978 0.201552 -0.068111
C41   C     C_R   0.782189 0.653306 0.969799 -0.130134
C42   C     C_R   0.696254 0.618790 0.868072 -0.174501
C43   C     C_R   0.760812 0.476949 0.831440 0.028538
C44   C     C_3   0.402738 0.475585 0.902329 -0.278713
C45   C     C_R   0.070487 0.552582 0.051142 0.018204
C46   C     C_3   0.248889 0.163691 0.225019 -0.281246
C47   C     C_3   0.247022 0.108823 0.695029 -0.288819
C48   C     C_3   0.312559 0.751607 0.847380 -0.309562
C49   C     C_2   0.667015 0.199095 0.245970 0.562249
C50   C     C_2   0.479224 0.439554 0.145525 0.592671
C51   C     C_2   0.707171 0.350968 0.782520 0.552733
C52   C     C_2   0.183532 0.707058 0.221421 0.544991
C53   C     C_R   0.070309 0.633141 0.124011 0.043055
C54   C     C_R   0.970434 0.661248 0.096437 -0.120935
C55   C     C_R   0.004190 0.470007 0.869803 -0.099241
C56   C     C_R   0.107883 0.448509 0.892101 -0.135666
Cu1   Cu    Cu3+1 0.416420 0.526630 0.522910 0.929412
Cu2   Cu    Cu3+1 0.583580 0.473370 0.477090 0.997077
H1    H     H_    0.972949 0.725632 0.150031 0.117769
H2    H     H_    0.075174 0.728144 0.695990 0.149109
H3    H     H_    0.127097 0.430601 0.438896 0.126323
H4    H     H_    0.548505 0.294776 0.323047 0.178723
H5    H     H_    0.922608 0.333126 0.360296 0.148096
H6    H     H_    0.849097 0.623105 0.605543 0.173787
H7    H     H_    0.124024 0.416592 0.827949 0.113376
H8    H     H_    0.785106 0.717696 0.023763 0.116249
H9    H     H_    0.637720 0.660330 0.844413 0.121085
H10   H     H_    0.947035 0.455273 0.789518 0.124964
H11   H     H_    0.231730 0.321202 0.882304 0.248892
H12   H     H_    0.888517 0.773840 0.275176 0.134528
H13   H     H_    0.357517 0.523041 0.859411 0.117906
H14   H     H_    0.427372 0.431143 0.849564 0.162846
H15   H     H_    0.494723 0.539065 0.967267 0.175450
H16   H     H_    0.323851 0.061302 0.287732 0.284691
H17   H     H_    0.318679 0.197629 0.185344 0.204244
H18   H     H_    0.154003 0.091022 0.169025 0.137157
H19   H     H_    0.234040 0.235267 0.252432 0.145963
H20   H     H_    0.291131 0.262576 0.648047 0.274935
H21   H     H_    0.278211 0.155748 0.775249 0.162232
H22   H     H_    0.327796 0.096907 0.687765 0.178716
H23   H     H_    0.095405 0.914495 0.269637 0.132005
H24   H     H_    0.159362 0.021864 0.679484 0.164418
H25   H     H_    0.403158 0.851011 0.758125 0.249445
H26   H     H_    0.379574 0.715921 0.872811 0.132868
H27   H     H_    0.212304 0.685499 0.839837 0.161538
H28   H     H_    0.346938 0.830120 0.907019 0.173827
H29   H     H_    0.689872 0.092031 0.154918 0.347265
H30   H     H_    0.556653 0.340930 0.117970 0.351407
H31   H     H_    0.704281 0.198929 0.798521 0.333120
H32   H     H_    0.379899 0.802290 0.294571 0.349437
H33   H     H_    0.676925 0.897643 0.631126 0.126955
H34   H     H_    0.011594 0.165011 0.596135 0.154832
H35   H     H_    0.844309 0.104190 0.669648 0.128053
H36   H     H_    0.725050 0.717162 0.349831 0.192228
H37   H     H_    0.444861 0.706738 0.681020 0.110654
H38   H     H_    0.185101 0.520272 0.233016 0.159839
N1    N     N_R   0.290690 0.566960 0.557640 -0.246092
N2    N     N_R   0.709100 0.433710 0.442970 -0.240769
N3    N     N_2   0.312785 0.389307 0.939837 -0.482807
N4    N     N_2   0.301122 0.122425 0.310667 -0.504147
N5    N     N_2   0.217556 0.176492 0.624714 -0.547029
N6    N     N_2   0.312591 0.783927 0.750834 -0.541881
O1    O     O_R   0.545970 0.684450 0.528810 -0.496491
O2    O     O_R   0.744037 0.163812 0.214356 -0.701197
O3    O     O_2   0.586720 0.521388 0.200464 -0.538592
O4    O     O_R   0.468749 0.337173 0.098986 -0.677055
O5    O     O_2   0.621524 0.304421 0.696567 -0.510475
O6    O     O_R   0.748642 0.282820 0.838667 -0.694817
O7    O     O_2   0.164876 0.730323 0.298571 -0.530076
O8    O     O_R   0.311432 0.753255 0.224055 -0.688142
O9    O     O_R   0.687130 0.639470 0.490120 -0.523143
O10   O     O_R   0.519670 0.535100 0.660030 -0.520175
O11   O     O_R   0.660830 0.490120 0.621340 -0.483707
O12   O     O_R   0.312870 0.360530 0.509880 -0.524719
O13   O     O_R   0.454030 0.315550 0.471190 -0.445314
O14   O     O_R   0.339170 0.509880 0.378660 -0.496426
O15   O     O_R   0.480330 0.464900 0.339970 -0.475242
O16   O     O_2   0.547769 0.143896 0.202155 -0.526473

loop_
_geom_bond_atom_site_label_1
_geom_bond_atom_site_label_2
_ccdc_geom_bond_type
C55   C56   A    
C29   H5    S    
C47   N5    S    
H25   N6    S    
C27   C29   A    
C41   C42   A    
C19   C20   A    
Cu2   N2    S    
C47   H21   S    
C9    C21   A    
C49   O2    S    
C37   N1    A    
C55   H10   S    
C53   C54   A    
C7    H38   S    
C12   C23   A    
C26   C27   A    
C9    C16   S    
C12   C43   A    
C3    C7    A    
C28   O15   A    
C31   C36   A    
C30   C31   A    
C44   N3    S    
C9    C22   A    
C31   N2    A    
Cu1   O10   S    
C42   H9    S    
C28   C40   S    
C56   H7    S    
C44   H13   S    
C18   C19   A    
C47   H24   S    
C8    H23   S    
C20   H36   S    
C28   O14   A    
C5    N3    S    
C51   O6    S    
C38   H37   S    
C50   O3    D    
C8    C22   A    
C7    C40   A    
C39   C42   A    
C1    O1    A    
C21   N5    S    
C11   H35   S    
C4    O10   A    
Cu1   N1    S    
C34   C55   A    
C13   C14   A    
H20   N5    S    
C14   C17   A    
C47   H22   S    
C38   N1    A    
C46   H18   S    
C46   H17   S    
Cu1   O14   S    
C54   H1    S    
C15   C20   A    
Cu1   O1    S    
C22   N4    S    
Cu2   O9    S    
C4    O11   A    
C39   C43   A    
C10   C24   A    
C3    C45   A    
Cu2   O15   S    
C8    C18   A    
C48   H26   S    
C35   H2    S    
C35   C36   A    
C29   C30   A    
C25   C38   A    
Cu2   O11   S    
H30   O4    S    
C37   H3    S    
C49   O16   D    
C4    C39   S    
C52   O8    S    
C48   N6    S    
C17   C18   A    
C34   C45   A    
C32   C37   A    
C6    C50   S    
Cu1   O12   S    
C26   N2    A    
H11   N3    S    
C15   C24   A    
C10   H33   S    
C13   H34   S    
Cu2   O13   S    
C48   H28   S    
C2    C5    A    
H32   O8    S    
C12   C34   A    
C16   O13   A    
C52   C53   S    
C23   C54   A    
C46   N4    S    
C48   H27   S    
C16   O12   A    
C46   H19   S    
H16   N4    S    
C41   H8    S    
C23   C41   A    
C32   C33   A    
C2    C3    A    
C26   H4    S    
C2    C56   A    
C1    O9    A    
C30   C32   A    
C11   C13   A    
C43   C51   S    
Cu1   Cu2   S    
C5    C6    A    
C52   O7    D    
H31   O6    S    
C33   C35   A    
C44   H14   S    
C6    C40   A    
C44   H15   S    
C25   N6    S    
C17   C21   A    
C10   C11   A    
C45   C53   A    
H29   O2    S    
C1    C24   S    
C51   O5    D    
C50   O4    S    
C14   C15   A    
C19   H12   S    
C36   H6    S    
C27   C49   S    
C25   C33   A    
