data_mof_unit_21000.cif
_audit_creation_date              2012-12-11T14:14:07-0500
_audit_creation_method            fapswitch 2.2
_symmetry_space_group_name_H-M    P1
_symmetry_Int_Tables_number       1
_space_group_crystal_system       triclinic
_cell_length_a                    17.051261
_cell_length_b                    7.247457
_cell_length_c                    16.999515
_cell_angle_alpha                 90.470257
_cell_angle_beta                  99.378958
_cell_angle_gamma                 89.580208
_cell_volume                      2072.57989554

loop_
_atom_site_label
_atom_site_type_symbol
_atom_type_description
_atom_site_fract_x
_atom_site_fract_y
_atom_site_fract_z
_atom_type_partial_charge
O1    O     O_R   0.414560 0.494370 0.416770 -0.530248
O2    O     O_R   0.585440 0.994370 0.583230 -0.542871
O3    O     O_R   0.578370 0.819590 0.429320 -0.549665
O4    O     O_R   0.421630 0.319590 0.570680 -0.531933
C1    C     C_R   0.604225 0.654286 0.413801 0.780035
C2    C     C_R   0.395999 0.156481 0.586595 0.782437
O5    O     O_R   0.414740 0.823790 0.407360 -0.517318
O6    O     O_R   0.585260 0.323790 0.592640 -0.506312
O7    O     O_R   0.420650 0.998510 0.561120 -0.540556
O8    O     O_R   0.579350 0.498510 0.438880 -0.523098
C3    C     C_R   0.387351 0.655455 0.386124 0.741559
C4    C     C_R   0.612787 0.155615 0.613717 0.741293
O9    O     O_3   0.502130 0.662240 0.550470 -0.382282
O10   O     O_3   0.497870 0.162240 0.449530 -0.381119
V1    V     V_3+5 0.499600 0.935390 0.490640 1.521702
V2    V     V_3+5 0.500400 0.435390 0.509360 1.569644
C5    C     C_2   0.793194 0.263003 0.776985 0.369532
C6    C     C_2   0.206360 0.761290 0.223407 0.361611
C7    C     C_2   0.813571 0.114920 0.825028 -0.069302
C8    C     C_2   0.187126 0.614694 0.173583 -0.049861
C9    C     C_2   0.713638 0.280685 0.725457 0.216775
C10   C     C_2   0.285934 0.779672 0.274680 0.202653
C11   C     C_2   0.685789 0.143728 0.674043 -0.227582
C12   C     C_2   0.314726 0.642910 0.325222 -0.236425
H1    H     H_    0.720573 0.017746 0.673162 0.163125
H2    H     H_    0.280870 0.516360 0.324887 0.180512
C13   C     C_R   0.332279 0.153492 0.636598 -0.212925
C14   C     C_R   0.667729 0.640055 0.363821 -0.215234
C15   C     C_R   0.166935 0.114915 0.863262 -0.215516
C16   C     C_R   0.833595 0.626682 0.137092 -0.214103
C17   C     C_R   0.303223 0.041630 0.846690 0.266756
C18   C     C_R   0.698800 0.718768 0.151791 0.267589
C19   C     C_R   0.243380 0.050163 0.894529 0.052406
C20   C     C_R   0.758432 0.696754 0.104440 0.056336
C21   C     C_R   0.150060 0.174753 0.783546 0.369083
C22   C     C_R   0.849362 0.575479 0.218010 0.373645
C23   C     C_R   0.210660 0.171352 0.733860 -0.092956
C24   C     C_R   0.788781 0.592684 0.267331 -0.091343
C25   C     C_R   0.287919 0.100091 0.765671 -0.005813
C26   C     C_R   0.712957 0.669154 0.233876 -0.007800
C27   C     C_R   0.348036 0.090252 0.715891 0.135495
C28   C     C_R   0.653101 0.693492 0.283158 0.141162
C29   C     C_R   0.257344 0.226435 0.606201 0.285303
C30   C     C_R   0.741171 0.561584 0.395933 0.278308
C31   C     C_R   0.196943 0.236418 0.653610 0.179041
C32   C     C_R   0.801153 0.536497 0.348804 0.180125
O11   O     O_R   0.920750 0.773600 0.061260 -0.539687
O12   O     O_R   0.079250 0.273600 0.938740 -0.528342
O13   O     O_R   0.085340 0.439850 0.092570 -0.531878
O14   O     O_R   0.914660 0.939850 0.907430 -0.539851
C33   C     C_R   0.112674 0.608435 0.114038 0.771317
C34   C     C_R   0.887407 0.108450 0.885677 0.769870
O15   O     O_R   0.921720 0.444130 0.070790 -0.530407
O16   O     O_R   0.078280 0.944130 0.929210 -0.543887
O17   O     O_R   0.914480 0.269530 0.916840 -0.520546
O18   O     O_R   0.085520 0.769530 0.083160 -0.528274
C35   C     C_R   0.896489 0.613527 0.086204 0.778502
C36   C     C_R   0.103728 0.111323 0.913942 0.775419
O19   O     O_3   0.997840 0.601520 0.949550 -0.362690
O20   O     O_3   0.002160 0.101520 0.050450 -0.363987
V3    V     V_3+5 0.000400 0.328340 0.009360 1.591614
V4    V     V_3+5 0.999600 0.828340 0.990640 1.557072
Cl1   Cl    Cl    0.859091 0.448447 0.771818 -0.536372
Cl2   Cl    Cl    0.138121 0.942737 0.231952 -0.552806
Cl3   Cl    Cl    0.050055 0.241644 0.748824 -0.517163
Cl4   Cl    Cl    0.948367 0.503483 0.254740 -0.526279
N1    N     N_3   0.758817 0.964477 0.822789 -0.706013
H3    H     H_    0.788040 0.842720 0.810798 0.286681
H4    H     H_    0.742286 0.953441 0.879026 0.231327
N2    N     N_3   0.243431 0.466529 0.172497 -0.704897
H5    H     H_    0.216447 0.344075 0.185699 0.281227
H6    H     H_    0.256546 0.454597 0.114685 0.219241
N3    N     N_3   0.668646 0.448786 0.728758 -0.588189
H7    H     H_    0.699439 0.539373 0.770778 0.246470
H8    H     H_    0.616569 0.415302 0.750397 0.201490
N4    N     N_3   0.329487 0.948599 0.272593 -0.591819
H9    H     H_    0.297737 0.039045 0.231386 0.248685
H10   H     H_    0.381723 0.916373 0.250476 0.211426
N5    N     N_3   0.425953 0.019370 0.746073 -0.605623
H11   H     H_    0.468016 0.120996 0.740919 0.205945
H12   H     H_    0.437200 0.904473 0.711956 0.239334
N6    N     N_3   0.576458 0.768747 0.251013 -0.610088
H13   H     H_    0.567646 0.891555 0.281101 0.238858
H14   H     H_    0.532446 0.674504 0.259376 0.207030
Cl5   Cl    Cl    0.238002 0.305816 0.506440 -0.604340
Cl6   Cl    Cl    0.759441 0.495252 0.497557 -0.592157
N7    N     N_3   0.380098 0.973002 0.881743 -0.591037
H15   H     H_    0.402272 0.056332 0.930730 0.250943
H16   H     H_    0.373795 0.838731 0.901801 0.250285
N8    N     N_3   0.623374 0.792546 0.115153 -0.591866
H17   H     H_    0.632329 0.923130 0.092554 0.249616
H18   H     H_    0.599618 0.706155 0.067782 0.251715
N9    N     N_3   0.122334 0.317898 0.619731 -0.518174
H19   H     H_    0.132072 0.453132 0.602806 0.278903
H20   H     H_    0.097924 0.241802 0.569232 0.298001
N10   N     N_3   0.873791 0.448541 0.384249 -0.519675
H21   H     H_    0.900200 0.527424 0.433108 0.298700
H22   H     H_    0.860868 0.317628 0.403978 0.277226
N11   N     N_3   0.262082 0.992430 0.976168 -0.676379
H23   H     H_    0.249251 0.100949 0.013054 0.221889
H24   H     H_    0.226595 0.879696 0.984648 0.237511
N12   N     N_3   0.740910 0.747446 0.021930 -0.682791
H25   H     H_    0.777622 0.856980 0.012445 0.233399
H26   H     H_    0.752942 0.634846 0.986825 0.223654

loop_
_geom_bond_atom_site_label_1
_geom_bond_atom_site_label_2
_ccdc_geom_bond_type
N7    H15   S    
N9    H19   S    
C9    N3    S    
N3    H7    S    
O1    C3    A    
C10   N4    S    
C31   N9    S    
O11   V4    S    
O12   V3    S    
C25   C27   A    
O5    C3    A    
C28   N6    S    
C4    C11   S    
C20   N12   S    
C21   C23   A    
N4    H10   S    
C8    C33   S    
C22   Cl4   S    
C21   Cl3   S    
C16   C35   S    
C15   C19   A    
C3    C12   S    
C33   O18   A    
C14   C28   A    
O15   V3    S    
C7    C34   S    
C18   N8    S    
N11   H23   S    
O13   C33   A    
N10   H22   S    
O14   C34   A    
C17   C19   A    
C7    N1    S    
N2    H5    S    
C34   O17   A    
O18   V4    S    
O5    V1    S    
O2    C4    A    
N9    H20   S    
N3    H8    S    
C8    N2    S    
C2    O7    A    
C30   Cl6   S    
C30   C32   A    
C17   N7    S    
C16   C20   A    
N1    H3    S    
C29   Cl5   S    
O13   V3    S    
N4    H9    S    
O4    C2    A    
N5    H12   S    
O15   C35   A    
O16   V4    S    
C14   C30   A    
C5    C9    S    
O20   V3    S    
C19   N11   S    
C18   C20   A    
O4    V2    S    
O11   C35   A    
C1    C14   S    
C13   C27   A    
N8    H18   S    
C2    C13   S    
O6    C4    A    
N10   H21   S    
O1    V2    S    
N12   H26   S    
O2    V1    S    
C29   C31   A    
N11   H24   S    
N6    H14   S    
C9    C11   D    
O14   V4    S    
C10   C12   D    
C23   C31   A    
O3    V1    S    
O16   C36   A    
O19   V4    S    
C6    C10   S    
C12   H2    S    
O3    C1    A    
C27   N5    S    
O12   C36   A    
C15   C21   A    
C16   C22   A    
C22   C24   A    
O7    V1    S    
C1    O8    A    
C23   C25   A    
O8    V2    S    
C5    Cl1   S    
C24   C26   A    
C6    Cl2   S    
N8    H17   S    
O17   V3    S    
C26   C28   A    
C5    C7    D    
C17   C25   A    
C6    C8    D    
C18   C26   A    
N12   H25   S    
C24   C32   A    
N5    H11   S    
C13   C29   A    
C11   H1    S    
C32   N10   S    
C15   C36   S    
O6    V2    S    
N6    H13   S    
O9    V2    S    
N7    H16   S    
O10   V1    S    
N2    H6    S    
N1    H4    S    
