data_mof_unit_48222.cif
_audit_creation_date              2012-12-10T18:04:52-0500
_audit_creation_method            fapswitch 2.2
_symmetry_space_group_name_H-M    P1
_symmetry_Int_Tables_number       1
_space_group_crystal_system       triclinic
_cell_length_a                    10.808268
_cell_length_b                    9.753568
_cell_length_c                    17.660203
_cell_angle_alpha                 89.667271
_cell_angle_beta                  93.303677
_cell_angle_gamma                 89.242017
_cell_volume                      1858.42721591

loop_
_atom_site_label
_atom_site_type_symbol
_atom_type_description
_atom_site_fract_x
_atom_site_fract_y
_atom_site_fract_z
_atom_type_partial_charge
C1    C     C_R   0.262692 0.500328 0.500270 0.765636
C2    C     C_R   0.737059 0.498960 0.500035 0.760625
C3    C     C_1   0.517928 0.500464 0.966335 -0.069985
C4    C     C_1   0.520378 0.501205 0.034274 -0.069971
C5    C     C_R   0.068374 0.385832 0.530222 -0.179078
C6    C     C_R   0.930673 0.607327 0.467703 -0.177855
C7    C     C_R   0.939857 0.384634 0.529731 -0.191083
C8    C     C_R   0.058460 0.609475 0.469522 -0.209923
C9    C     C_R   0.503271 0.500439 0.356053 0.770030
C10   C     C_R   0.500171 0.499884 0.643925 0.770025
C11   C     C_R   0.870913 0.496628 0.499255 -0.004518
C12   C     C_R   0.128262 0.499385 0.500713 -0.013075
C13   C     C_R   0.571786 0.603760 0.846378 -0.158290
C14   C     C_R   0.572319 0.392769 0.157545 -0.159944
C15   C     C_R   0.468308 0.614414 0.151356 -0.159031
C16   C     C_R   0.448429 0.397792 0.845581 -0.159014
C17   C     C_R   0.566369 0.604199 0.767350 -0.201605
C18   C     C_R   0.568587 0.392854 0.236339 -0.199227
C19   C     C_R   0.464566 0.614386 0.230048 -0.204005
C20   C     C_R   0.442914 0.398125 0.766541 -0.206139
C21   C     C_R   0.502985 0.500503 0.726943 -0.019260
C22   C     C_R   0.511541 0.502035 0.273168 -0.026931
C23   C     C_R   0.446779 0.071213 0.440918 0.165470
C24   C     C_R   0.574975 0.925133 0.550838 0.186317
C25   C     C_R   0.553440 0.069309 0.559938 0.200734
C26   C     C_R   0.421914 0.929973 0.451881 0.200006
C27   C     C_R   0.513307 0.500224 0.885389 0.147288
C28   C     C_R   0.520862 0.502896 0.115113 0.149088
Cu1   Cu    Cu3+1 0.500000 0.640660 0.500000 0.927763
Cu2   Cu    Cu3+1 0.500000 0.359340 0.500000 0.925916
H1    H     H_    0.621556 0.683834 0.877000 0.129624
H2    H     H_    0.615227 0.307100 0.129794 0.129772
H3    H     H_    0.429538 0.700867 0.118798 0.129816
H4    H     H_    0.401647 0.318308 0.875601 0.130394
H5    H     H_    0.613081 0.684324 0.737904 0.127208
H6    H     H_    0.612643 0.309105 0.268180 0.132793
H7    H     H_    0.423973 0.701565 0.256850 0.145631
H8    H     H_    0.390020 0.320030 0.736575 0.130257
H9    H     H_    0.120745 0.299084 0.554393 0.141995
H10   H     H_    0.878666 0.691069 0.440355 0.144906
H11   H     H_    0.894800 0.297341 0.553751 0.136949
H12   H     H_    0.101504 0.695802 0.444864 0.154839
N1    N     N_R   0.500000 0.852070 0.500000 -0.213798
N2    N     N_R   0.500000 0.147930 0.500000 -0.209756
O1    O     O_R   0.319640 0.618740 0.499990 -0.579926
O2    O     O_R   0.680360 0.381260 0.500010 -0.582721
O3    O     O_R   0.680360 0.618740 0.500010 -0.583291
O4    O     O_R   0.319640 0.381260 0.499990 -0.587199
O5    O     O_R   0.500000 0.618830 0.391250 -0.567522
O6    O     O_R   0.500000 0.381170 0.608750 -0.574060
O7    O     O_R   0.500000 0.618830 0.608750 -0.596979
O8    O     O_R   0.500000 0.381170 0.391250 -0.571290
C29   C     C_3   0.440247 0.116867 0.358914 -0.305563
C30   C     C_3   0.320120 0.193113 0.333381 -0.784209
H13   H     H_    0.243919 0.119662 0.322100 0.226048
H14   H     H_    0.291117 0.266747 0.376450 0.275589
H15   H     H_    0.333650 0.249557 0.279795 0.234002
H16   H     H_    0.525653 0.170311 0.346879 0.202123
H17   H     H_    0.448668 0.027140 0.321189 0.155880
C31   C     C_3   0.683836 0.859097 0.596670 -0.333829
C32   C     C_3   0.805091 0.894142 0.561195 -0.846554
H18   H     H_    0.826346 0.004309 0.569083 0.241057
H19   H     H_    0.882417 0.831776 0.588203 0.241943
H20   H     H_    0.797843 0.873708 0.499456 0.256190
H21   H     H_    0.690710 0.891811 0.656468 0.160432
H22   H     H_    0.676685 0.748510 0.602985 0.246864
C33   C     C_3   0.556500 0.116785 0.641628 -0.317707
C34   C     C_3   0.676518 0.188794 0.667903 -0.780328
H23   H     H_    0.753362 0.113656 0.678554 0.219248
H24   H     H_    0.705167 0.263763 0.625427 0.268587
H25   H     H_    0.662874 0.242890 0.721946 0.235736
H26   H     H_    0.470432 0.173076 0.651967 0.202441
H27   H     H_    0.544264 0.029488 0.680978 0.140541
C35   C     C_3   0.288077 0.891720 0.434210 -0.332790
C36   C     C_3   0.263394 0.816229 0.359371 -0.827967
H28   H     H_    0.310618 0.865202 0.312722 0.231349
H29   H     H_    0.290894 0.707070 0.364476 0.270570
H30   H     H_    0.162696 0.820711 0.343010 0.215004
H31   H     H_    0.251497 0.838915 0.483233 0.206771
H32   H     H_    0.229377 0.986295 0.430989 0.170970

loop_
_geom_bond_atom_site_label_1
_geom_bond_atom_site_label_2
_ccdc_geom_bond_type
C14   C18   A    
C25   C33   S    
C29   H17   S    
Cu1   O5    S    
C29   C30   S    
C2    O2    A    
C7    C11   A    
C1    C12   S    
Cu1   O3    S    
Cu2   O4    S    
C8    H12   S    
C9    C22   S    
C10   O7    A    
C33   H26   S    
C23   C26   A    
C32   H19   S    
C19   H7    S    
C16   H4    S    
C34   H23   S    
C33   H27   S    
C16   C20   A    
C16   C27   A    
Cu2   O6    S    
C31   H22   S    
C35   H32   S    
Cu1   N1    S    
Cu2   N2    S    
C9    O8    A    
C2    C11   S    
C25   N2    A    
C4    C28   S    
C13   H1    S    
C26   N1    A    
C23   C29   S    
C10   C21   S    
C30   H14   S    
C35   C36   S    
C33   C34   S    
C19   C22   A    
C9    O5    A    
C24   C25   A    
C5    C12   A    
C6    C11   A    
C5    C7    A    
C6    C8    A    
C17   C21   A    
C23   N2    A    
Cu1   O1    S    
C31   C32   S    
C32   H20   S    
C15   C19   A    
C36   H28   S    
Cu1   Cu2   S    
C20   H8    S    
C8    C12   A    
C36   H29   S    
C31   H21   S    
C35   H31   S    
C5    H9    S    
C6    H10   S    
C3    C4    T    
C10   O6    A    
Cu1   O7    S    
Cu2   O8    S    
C30   H13   S    
C18   C22   A    
Cu2   O2    S    
C14   H2    S    
C29   H16   S    
C1    O4    A    
C2    O3    A    
C13   C17   A    
C3    C27   S    
C1    O1    A    
C15   C28   A    
C34   H25   S    
C26   C35   S    
C7    H11   S    
C32   H18   S    
C36   H30   S    
C20   C21   A    
C34   H24   S    
C24   N1    A    
C13   C27   A    
C24   C31   S    
C17   H5    S    
C14   C28   A    
C18   H6    S    
C15   H3    S    
C30   H15   S    
