data_mof_unit_44134.cif
_audit_creation_date              2012-10-26T21:24:46-0400
_audit_creation_method            fapswitch 2.2
_symmetry_space_group_name_H-M    P1
_symmetry_Int_Tables_number       1
_space_group_crystal_system       triclinic
_cell_length_a                    9.645964
_cell_length_b                    10.839529
_cell_length_c                    16.004743
_cell_angle_alpha                 89.737103
_cell_angle_beta                  71.222307
_cell_angle_gamma                 90.743836
_cell_volume                      1584.14945828

loop_
_atom_site_label
_atom_site_type_symbol
_atom_type_description
_atom_site_fract_x
_atom_site_fract_y
_atom_site_fract_z
_atom_type_partial_charge
C1    C     C_R   0.997885 0.262762 0.502322 0.550623
C2    C     C_R   0.230165 0.613539 0.057689 0.031312
C3    C     C_R   0.336104 0.579123 0.096489 0.043682
C4    C     C_R   0.914234 0.499377 0.671271 0.545514
C5    C     C_R   0.082978 0.608589 0.107706 -0.083011
C6    C     C_R   0.037589 0.567203 0.193866 -0.159341
C7    C     C_R   0.290109 0.528610 0.183135 0.202394
C8    C     C_R   0.109043 0.066111 0.522101 0.019397
C9    C     C_R   0.990599 0.129758 0.512299 0.012267
C10   C     C_R   0.863382 0.062813 0.515236 -0.150904
C11   C     C_R   0.864910 0.934082 0.514609 -0.147627
C12   C     C_R   0.669740 0.574140 0.901542 0.003338
C13   C     C_R   0.993717 0.871090 0.510847 0.014464
C14   C     C_R   0.110872 0.939059 0.521478 0.025929
C15   C     C_3   0.270486 0.938569 0.470225 -0.275790
C16   C     C_R   0.999569 0.737585 0.501696 0.543727
C17   C     C_3   0.267988 0.078225 0.471402 -0.249109
C18   C     C_R   0.612448 0.539167 0.427572 0.177537
C19   C     C_R   0.537134 0.449313 0.567734 -0.005133
C20   C     C_R   0.388986 0.449585 0.567892 -0.014044
C21   C     C_R   0.466029 0.537816 0.427204 0.215197
C22   C     C_3   0.484216 0.661574 0.384543 -0.267229
C23   C     C_R   0.777621 0.592207 0.942842 0.080728
C24   C     C_3   0.640606 0.664230 0.385901 -0.271835
C25   C     C_R   0.085971 0.502611 0.328735 0.577287
C26   C     C_R   0.861557 0.513005 0.767643 -0.033705
C27   C     C_R   0.139247 0.528302 0.233298 0.018492
C28   C     C_R   0.920719 0.551941 0.901210 0.253046
C29   C     C_R   0.963920 0.520302 0.812280 -0.161712
C30   C     C_R   0.710987 0.526953 0.815191 0.216463
C31   C     C_R   0.522375 0.594593 0.952032 0.047922
C32   C     C_R   0.484281 0.592397 0.045006 0.015056
C33   C     C_R   0.591910 0.627786 0.081966 -0.049390
C34   C     C_R   0.735770 0.643756 0.027482 0.250153
C35   C     C_R   0.415727 0.629914 0.914517 -0.085294
C36   C     C_R   0.273026 0.649349 0.968619 -0.120227
Cl1   Cl    Cl    0.828802 0.775711 0.046566 -0.629146
Cl2   Cl    Cl    0.414942 0.442798 0.220284 -0.616079
Cu1   Cu    Cu3+1 0.140670 0.499980 0.500000 0.982773
Cu2   Cu    Cu3+1 0.859330 0.500020 0.500000 0.965580
H1    H     H_    0.001428 0.633543 0.080135 0.248729
H2    H     H_    0.475766 0.658697 0.317018 0.167805
H3    H     H_    0.414484 0.729671 0.428765 0.133875
H4    H     H_    0.721959 0.663850 0.318769 0.144265
H5    H     H_    0.660562 0.735532 0.430527 0.141811
H6    H     H_    0.921570 0.565690 0.229442 0.151807
H7    H     H_    0.195404 0.686844 0.939688 0.184247
H8    H     H_    0.077540 0.498511 0.778709 0.126449
H9    H     H_    0.560494 0.661637 0.148953 0.161121
H10   H     H_    0.443887 0.652078 0.845019 0.176802
H11   H     H_    0.097633 0.484003 0.914576 0.328101
H12   H     H_    0.765711 0.109150 0.513178 0.140083
H13   H     H_    0.636940 0.405044 0.752773 0.330064
H14   H     H_    0.767709 0.884866 0.512589 0.133837
H15   H     H_    0.336261 0.900624 0.509768 0.136338
H16   H     H_    0.292818 0.900520 0.402825 0.143677
H17   H     H_    0.331576 0.119517 0.511456 0.143019
H18   H     H_    0.288951 0.120544 0.404942 0.176701
H19   H     H_    0.561508 0.409044 0.623121 0.134091
H20   H     H_    0.304324 0.409842 0.623720 0.122623
N1    N     N_R   0.648210 0.500930 0.499430 -0.240727
N2    N     N_R   0.352300 0.500890 0.499430 -0.239071
O1    O     O_R   0.118810 0.319640 0.500000 -0.495968
O2    O     O_3   0.603789 0.484695 0.782142 -0.713149
O3    O     O_R   0.881230 0.319680 0.499990 -0.510407
O4    O     O_R   0.055580 0.499970 0.629840 -0.521314
O5    O     O_R   0.818000 0.500010 0.629830 -0.485289
O6    O     O_R   0.118770 0.680320 0.500010 -0.507245
O7    O     O_R   0.881190 0.680360 0.500000 -0.511384
O8    O     O_R   0.182000 0.499990 0.370170 -0.445905
O9    O     O_R   0.944420 0.500030 0.370160 -0.512566
O10   O     O_3   0.010241 0.529194 0.950758 -0.715725

loop_
_geom_bond_atom_site_label_1
_geom_bond_atom_site_label_2
_ccdc_geom_bond_type
Cu2   O9    S    
C30   O2    S    
C34   Cl1   S    
Cu1   O6    S    
C19   C20   A    
C10   H12   S    
C12   C23   A    
C18   C24   S    
C24   H5    S    
C28   C29   A    
C3    C7    A    
C5    C6    A    
H13   O2    S    
C33   H9    S    
C18   C21   A    
C7    C27   A    
C36   H7    S    
Cu1   O8    S    
C22   H3    S    
C8    C9    A    
Cu2   O5    S    
C1    O3    A    
C16   O6    A    
C20   H20   S    
C9    C10   A    
C17   H18   S    
C13   C14   A    
C28   O10   S    
C1    O1    A    
Cu2   O7    S    
C29   H8    S    
C1    C9    S    
Cu1   Cu2   S    
C19   H19   S    
Cu2   N1    S    
C35   C36   A    
C15   H15   S    
C6    C27   A    
C23   C34   A    
C35   H10   S    
C33   C34   A    
C23   C28   A    
C21   N2    A    
C11   H14   S    
C25   O9    A    
C26   C30   A    
Cu2   O3    S    
C12   C31   A    
C24   H4    S    
Cu1   O4    S    
C31   C35   A    
C2    C5    A    
H11   O10   S    
C2    C36   A    
C15   C17   S    
Cu1   N2    S    
C5    H1    S    
C8    C14   A    
C6    H6    S    
C12   C30   A    
C31   C32   A    
C16   O7    A    
C4    O5    A    
C4    C26   S    
C18   N1    A    
C25   C27   S    
Cu1   O1    S    
C8    C17   S    
C15   H16   S    
C2    C3    A    
C32   C33   A    
C4    O4    A    
C11   C13   A    
C22   H2    S    
C19   N1    A    
C7    Cl2   S    
C22   C24   S    
C20   N2    A    
C3    C32   A    
C10   C11   A    
C26   C29   A    
C13   C16   S    
C14   C15   S    
C25   O8    A    
C21   C22   S    
C17   H17   S    
