data_mof_unit_24670.cif
_audit_creation_date              2012-12-11T15:37:18-0500
_audit_creation_method            fapswitch 2.2
_symmetry_space_group_name_H-M    P1
_symmetry_Int_Tables_number       1
_space_group_crystal_system       triclinic
_cell_length_a                    16.494987
_cell_length_b                    7.062427
_cell_length_c                    15.484233
_cell_angle_alpha                 89.999948
_cell_angle_beta                  94.826572
_cell_angle_gamma                 89.999953
_cell_volume                      1797.43369189

loop_
_atom_site_label
_atom_site_type_symbol
_atom_type_description
_atom_site_fract_x
_atom_site_fract_y
_atom_site_fract_z
_atom_type_partial_charge
O1    O     O_R   0.578230 0.505720 0.424270 -0.532101
O2    O     O_R   0.421770 0.005720 0.575730 -0.532097
O3    O     O_R   0.412470 0.173950 0.404530 -0.543538
O4    O     O_R   0.587530 0.673950 0.595470 -0.543539
C1    C     C_R   0.382301 0.344988 0.384781 0.655132
C2    C     C_R   0.617699 0.844987 0.615219 0.655133
O5    O     O_R   0.577030 0.175880 0.413670 -0.535105
O6    O     O_R   0.422970 0.675880 0.586330 -0.535105
O7    O     O_R   0.587510 0.007580 0.584940 -0.545248
O8    O     O_R   0.412490 0.507580 0.415060 -0.545251
C3    C     C_R   0.604256 0.344658 0.393992 0.726970
C4    C     C_R   0.395744 0.844658 0.606008 0.726971
O9    O     O_3   0.503240 0.339850 0.556180 -0.378577
O10   O     O_3   0.496760 0.839850 0.443820 -0.378578
V1    V     V_3+5 0.499400 0.064230 0.489580 1.363823
V2    V     V_3+5 0.500600 0.564230 0.510420 1.363819
C5    C     C_1   0.331149 0.853994 0.665802 -0.195125
C6    C     C_1   0.668851 0.353994 0.334199 -0.195121
C7    C     C_1   0.276999 0.863074 0.715330 -0.005937
C8    C     C_1   0.723001 0.363074 0.284670 -0.005932
C9    C     C_1   0.213873 0.875219 0.774497 -0.007195
C10   C     C_1   0.786127 0.375218 0.225503 -0.007194
C11   C     C_1   0.161611 0.886674 0.826185 -0.185527
C12   C     C_1   0.838389 0.386674 0.173815 -0.185531
C13   C     C_3   0.770522 0.676843 0.809484 -0.035371
C14   C     C_3   0.229478 0.176843 0.190516 -0.035372
H1    H     H_    0.821756 0.575406 0.806755 0.131019
H2    H     H_    0.178245 0.075405 0.193245 0.131016
C15   C     C_3   0.710925 0.656637 0.725184 -0.034320
C16   C     C_3   0.289075 0.156637 0.274816 -0.034317
H3    H     H_    0.651455 0.602870 0.744209 0.093810
H4    H     H_    0.348546 0.102871 0.255791 0.093808
H5    H     H_    0.883553 0.831626 0.707587 0.134283
H6    H     H_    0.116449 0.331614 0.292414 0.134288
H7    H     H_    0.783607 0.896316 0.591047 0.131044
H8    H     H_    0.216394 0.396319 0.408953 0.131044
C17   C     C_3   0.838067 0.937324 0.725450 -0.363186
C18   C     C_3   0.161932 0.437318 0.274550 -0.363192
C19   C     C_3   0.738621 0.023238 0.832222 -0.355556
C20   C     C_3   0.261378 0.523239 0.167779 -0.355556
C21   C     C_3   0.808451 0.884414 0.815502 0.079535
C22   C     C_3   0.191549 0.384412 0.184498 0.079537
H9    H     H_    0.762332 0.170508 0.830940 0.126698
H10   H     H_    0.237666 0.670508 0.169062 0.126700
H11   H     H_    0.719442 0.004070 0.898553 0.136824
H12   H     H_    0.280556 0.504075 0.101447 0.136819
C23   C     C_3   0.688275 0.857915 0.686252 0.060770
C24   C     C_3   0.311725 0.357916 0.313748 0.060774
C25   C     C_3   0.766137 0.948144 0.653757 -0.375772
C26   C     C_3   0.233863 0.448145 0.346243 -0.375774
C27   C     C_3   0.665918 0.000633 0.760335 -0.052470
C28   C     C_3   0.334082 0.500633 0.239665 -0.052469
H13   H     H_    0.660622 0.142202 0.728875 0.130927
H14   H     H_    0.339379 0.642203 0.271124 0.130925
H15   H     H_    0.869693 0.076666 0.729270 0.146108
H16   H     H_    0.130304 0.576656 0.270731 0.146108
H17   H     H_    0.753385 0.097958 0.638811 0.155207
H18   H     H_    0.246613 0.597960 0.361186 0.155208
O11   O     O_R   0.087480 0.241090 0.084980 -0.545401
O12   O     O_R   0.912520 0.741090 0.915020 -0.545399
O13   O     O_R   0.922960 0.569060 0.086330 -0.538448
O14   O     O_R   0.077040 0.069060 0.913670 -0.538449
C29   C     C_R   0.899344 0.399053 0.109922 0.705417
C30   C     C_R   0.100656 0.899053 0.890078 0.705421
O15   O     O_R   0.087520 0.570920 0.095480 -0.539883
O16   O     O_R   0.912480 0.070920 0.904520 -0.539883
O17   O     O_R   0.078240 0.739160 0.924260 -0.530501
O18   O     O_R   0.921760 0.239160 0.075740 -0.530500
C31   C     C_R   0.118048 0.401187 0.115900 0.641207
C32   C     C_R   0.881952 0.901187 0.884100 0.641204
O19   O     O_3   0.996740 0.404980 0.943840 -0.370385
O20   O     O_3   0.003260 0.904980 0.056160 -0.370386
V3    V     V_3+5 0.000600 0.680640 0.010420 1.381158
V4    V     V_3+5 0.999400 0.180640 0.989580 1.381158
C33   C     C_3   0.720462 0.613192 0.886010 -0.432482
C34   C     C_3   0.759414 0.635792 0.977576 -0.249016
C35   C     C_3   0.696997 0.605578 0.043138 -0.825860
H19   H     H_    0.644939 0.703210 0.028569 0.228208
H20   H     H_    0.675216 0.456646 0.041530 0.237867
H21   H     H_    0.724296 0.640836 0.108960 0.238091
H22   H     H_    0.807073 0.527158 0.985714 0.209628
H23   H     H_    0.784577 0.779230 0.989636 0.191146
H24   H     H_    0.661450 0.686573 0.882150 0.192492
H25   H     H_    0.705074 0.460753 0.876663 0.162111
C36   C     C_3   0.279539 0.113193 0.113990 -0.432488
C37   C     C_3   0.240585 0.135791 0.022425 -0.249031
C38   C     C_3   0.302997 0.105543 0.956861 -0.825852
H26   H     H_    0.355071 0.203122 0.971438 0.228217
H27   H     H_    0.324751 0.956592 0.958457 0.237861
H28   H     H_    0.275704 0.140845 0.891042 0.238089
H29   H     H_    0.192919 0.027173 0.014292 0.209641
H30   H     H_    0.215430 0.279236 0.010363 0.191142
H31   H     H_    0.338550 0.186576 0.117849 0.192489
H32   H     H_    0.294927 0.960754 0.123338 0.162121
C39   C     C_3   0.736317 0.491105 0.664192 -0.366707
C40   C     C_3   0.783726 0.540101 0.585826 -0.286701
C41   C     C_3   0.807939 0.365461 0.536070 -0.806367
H33   H     H_    0.851815 0.277820 0.577072 0.227745
H34   H     H_    0.753422 0.280691 0.513992 0.222983
H35   H     H_    0.838038 0.410509 0.477926 0.226004
H36   H     H_    0.744584 0.626869 0.539371 0.195324
H37   H     H_    0.840865 0.614353 0.607620 0.198751
H38   H     H_    0.772093 0.385059 0.704073 0.153930
H39   H     H_    0.680720 0.413604 0.638643 0.185988
C42   C     C_3   0.263684 0.991106 0.335809 -0.366705
C43   C     C_3   0.216282 0.040103 0.414179 -0.286698
C44   C     C_3   0.192075 0.865463 0.463939 -0.806358
H40   H     H_    0.148191 0.777825 0.422944 0.227742
H41   H     H_    0.246594 0.780688 0.486006 0.222981
H42   H     H_    0.161988 0.910510 0.522091 0.226004
H43   H     H_    0.255426 0.126875 0.460630 0.195325
H44   H     H_    0.159141 0.114351 0.392390 0.198748
H45   H     H_    0.227904 0.885063 0.295929 0.153929
H46   H     H_    0.319281 0.913599 0.361353 0.185986
C45   C     C_3   0.582464 0.966807 0.798011 -0.387101
C46   C     C_3   0.526046 0.139184 0.783687 -0.313560
C47   C     C_3   0.451662 0.119696 0.834383 -0.785146
H47   H     H_    0.419804 0.984343 0.818437 0.241939
H48   H     H_    0.470927 0.122421 0.904820 0.227456
H49   H     H_    0.409396 0.239384 0.818358 0.227354
H50   H     H_    0.558810 0.270571 0.805736 0.182350
H51   H     H_    0.506354 0.153931 0.713774 0.229405
H52   H     H_    0.551344 0.840241 0.768371 0.157511
H53   H     H_    0.590230 0.941591 0.868879 0.186361
C48   C     C_3   0.417535 0.466801 0.201987 -0.387108
C49   C     C_3   0.473959 0.639164 0.216320 -0.313551
C50   C     C_3   0.548344 0.619669 0.165625 -0.785143
H54   H     H_    0.580188 0.484288 0.181553 0.241931
H55   H     H_    0.529083 0.622446 0.095188 0.227460
H56   H     H_    0.590623 0.739324 0.181669 0.227360
H57   H     H_    0.441201 0.770563 0.194276 0.182346
H58   H     H_    0.493650 0.653895 0.286234 0.229409
H59   H     H_    0.448650 0.340221 0.231620 0.157509
H60   H     H_    0.409767 0.441605 0.131117 0.186365

loop_
_geom_bond_atom_site_label_1
_geom_bond_atom_site_label_2
_ccdc_geom_bond_type
C48   H60   S    
C19   C27   S    
C38   H26   S    
C3    C6    S    
C49   C50   S    
C40   H37   S    
C39   C40   S    
O1    C3    A    
O2    C4    A    
C2    O7    A    
C41   H33   S    
O15   V3    S    
C23   C25   S    
C43   H44   S    
C36   C37   S    
C24   C26   S    
O5    C3    A    
C46   H51   S    
C15   C23   S    
C42   H45   S    
C7    C9    S    
C18   C22   S    
C37   H29   S    
C47   H48   S    
C33   H25   S    
C43   C44   S    
O18   V4    S    
C45   C46   S    
O16   V4    S    
O12   V3    S    
C25   H17   S    
C46   C47   S    
C16   C24   S    
O13   C29   A    
O14   C30   A    
C36   H31   S    
C39   H38   S    
C4    C5    S    
H7    C25   S    
C44   H40   S    
O17   V3    S    
O12   C32   A    
C20   H10   S    
C35   H19   S    
C19   H11   S    
C20   C22   S    
O6    V2    S    
C40   H36   S    
C44   H41   S    
C41   H34   S    
C28   H14   S    
C43   H43   S    
C35   H20   S    
C13   C15   S    
C1    C24   S    
C45   H52   S    
C2    C23   S    
C26   H18   S    
C30   O17   A    
C42   H46   S    
C34   C35   S    
O20   V4    S    
C46   H50   S    
C47   H49   S    
C34   H23   S    
O19   V3    S    
C37   C38   S    
C19   H9    S    
O13   V3    S    
C20   C28   S    
C22   C31   S    
C27   C45   S    
C13   C33   S    
O4    V2    S    
C20   H12   S    
C33   C34   S    
C50   H55   S    
C17   C25   S    
C36   H32   S    
C49   H58   S    
O6    C4    A    
C40   C41   S    
O1    V2    S    
O2    V1    S    
O11   V4    S    
O11   C31   A    
O4    C2    A    
C11   C30   S    
C8    C10   S    
C14   C16   S    
C12   C29   S    
C9    C11   T    
C16   C42   S    
C48   C49   S    
C44   H42   S    
C10   C12   T    
O9    V2    S    
C13   C21   S    
C50   H54   S    
C41   H35   S    
H8    C26   S    
C39   H39   S    
C14   C22   S    
C15   C39   S    
C35   H21   S    
C48   H59   S    
C29   O18   A    
C45   H53   S    
H6    C18   S    
O20   V3    S    
O3    C1    A    
C34   H22   S    
O19   V4    S    
C23   C27   S    
C28   C48   S    
C18   C26   S    
C13   H1    S    
C42   C43   S    
C14   H2    S    
C38   H27   S    
O7    V1    S    
C50   H56   S    
C1    O8    A    
C15   H3    S    
O8    V2    S    
C47   H47   S    
C16   H4    S    
C33   H24   S    
O16   C32   A    
C49   H57   S    
C14   C36   S    
O15   C31   A    
O5    V1    S    
C5    C7    T    
C6    C8    T    
C17   C21   S    
H5    C17   S    
C17   H15   S    
C24   C28   S    
C18   H16   S    
C19   C21   S    
C38   H28   S    
O10   V1    S    
O14   V4    S    
O3    V1    S    
C37   H30   S    
C27   H13   S    
C21   C32   S    
