data_mof_unit_29857.cif
_audit_creation_date              2012-12-11T15:44:59-0500
_audit_creation_method            fapswitch 2.2
_symmetry_space_group_name_H-M    P1
_symmetry_Int_Tables_number       1
_space_group_crystal_system       triclinic
_cell_length_a                    6.922518
_cell_length_b                    16.853033
_cell_length_c                    17.046836
_cell_angle_alpha                 100.425845
_cell_angle_beta                  91.204188
_cell_angle_gamma                 88.96706
_cell_volume                      1955.30494658

loop_
_atom_site_label
_atom_site_type_symbol
_atom_type_description
_atom_site_fract_x
_atom_site_fract_y
_atom_site_fract_z
_atom_type_partial_charge
O1    O     O_R   0.494370 0.415690 0.413450 -0.539387
O2    O     O_R   0.819420 0.429360 0.578420 -0.542311
O3    O     O_R   0.994280 0.584310 0.586550 -0.539672
C1    C     C_R   0.654633 0.413580 0.605425 0.704215
O4    O     O_R   0.823790 0.406230 0.413570 -0.542385
O5    O     O_R   0.998670 0.561000 0.420530 -0.540104
C2    C     C_R   0.654693 0.383019 0.384863 0.690584
O6    O     O_R   0.489970 0.439000 0.579470 -0.534851
O7    O     O_3   0.662300 0.550810 0.502470 -0.374989
V1    V     V_3+5 0.935380 0.490570 0.499540 1.393641
O8    O     O_R   0.328650 0.570640 0.421580 -0.542429
C3    C     C_R   0.155743 0.586859 0.395319 0.693335
O9    O     O_R   0.324290 0.593770 0.586430 -0.545325
C4    C     C_R   0.153975 0.618995 0.613074 0.679749
V2    V     V_3+5 0.435930 0.509430 0.500460 1.380603
O10   O     O_3   0.159140 0.449190 0.497530 -0.364730
C5    C     C_R   0.297408 0.706395 0.733452 -0.191616
H1    H     H_    0.427729 0.669507 0.725245 0.122224
C6    C     C_R   0.288289 0.769013 0.799584 -0.158899
H2    H     H_    0.412209 0.779239 0.839794 0.126454
C7    C     C_R   0.120110 0.816586 0.814789 -0.066891
C8    C     C_R   0.963931 0.802309 0.760759 -0.176812
H3    H     H_    0.836648 0.840929 0.770903 0.112883
C9    C     C_R   0.972241 0.741463 0.692149 0.086802
C10   C     C_R   0.140142 0.690187 0.679539 -0.063985
C11   C     C_R   0.126179 0.640550 0.335361 -0.068354
C12   C     C_R   0.137742 0.860982 0.166122 -0.071275
C13   C     C_R   0.359191 0.808086 0.258935 -0.202378
C14   C     C_R   0.317354 0.861904 0.207280 -0.159912
C15   C     C_R   0.998181 0.805774 0.179754 -0.242676
C16   C     C_R   0.040232 0.750869 0.231519 0.160633
C17   C     C_R   0.222718 0.751577 0.271041 0.163728
C18   C     C_R   0.265244 0.696225 0.322320 -0.247750
C19   C     C_R   0.945837 0.640279 0.294853 -0.157865
C20   C     C_R   0.903549 0.694527 0.243753 -0.207455
H4    H     H_    0.403824 0.697886 0.353340 0.123458
H5    H     H_    0.834862 0.598235 0.303214 0.133184
H6    H     H_    0.499324 0.810221 0.288796 0.119509
H7    H     H_    0.763158 0.692619 0.214158 0.122370
H8    H     H_    0.428221 0.903956 0.198806 0.130848
H9    H     H_    0.859844 0.803840 0.148484 0.124792
C21   C     C_R   0.665055 0.360813 0.666986 -0.070794
C22   C     C_R   0.599757 0.139316 0.833109 -0.070620
C23   C     C_R   0.399710 0.196624 0.736244 -0.200367
C24   C     C_R   0.426895 0.141669 0.787969 -0.162043
C25   C     C_R   0.747803 0.192611 0.823659 -0.241166
C26   C     C_R   0.720369 0.248859 0.771930 0.160015
C27   C     C_R   0.544466 0.251239 0.728134 0.160050
C28   C     C_R   0.517022 0.307502 0.676418 -0.240590
C29   C     C_R   0.837940 0.358434 0.712105 -0.161625
C30   C     C_R   0.865136 0.303465 0.763813 -0.199911
H10   H     H_    0.383993 0.307876 0.641755 0.123528
H11   H     H_    0.954960 0.398789 0.706595 0.129265
H12   H     H_    0.264269 0.196881 0.703202 0.122477
H13   H     H_    0.000590 0.303195 0.796844 0.123008
H14   H     H_    0.309888 0.101307 0.793475 0.127959
H15   H     H_    0.880834 0.192239 0.858320 0.123272
C31   C     C_R   0.812269 0.276372 0.282366 -0.156042
H16   H     H_    0.953396 0.295694 0.306182 0.116784
C32   C     C_R   0.801297 0.212588 0.217247 -0.151825
H17   H     H_    0.934458 0.184602 0.193039 0.118033
C33   C     C_R   0.621241 0.185294 0.184004 -0.047085
C34   C     C_R   0.452458 0.223544 0.217755 -0.156155
H18   H     H_    0.311333 0.204224 0.193934 0.116493
C35   C     C_R   0.463429 0.287329 0.282875 -0.151551
H19   H     H_    0.330272 0.315319 0.307081 0.118645
C36   C     C_R   0.643488 0.314626 0.316112 -0.048259
O11   O     O_R   0.774880 0.061150 0.920630 -0.537022
O12   O     O_R   0.440980 0.093710 0.086500 -0.543628
O13   O     O_R   0.266190 0.938890 0.079390 -0.541627
C37   C     C_R   0.610061 0.116923 0.115229 0.686393
O14   O     O_R   0.445420 0.070740 0.921670 -0.543207
O15   O     O_R   0.270660 0.915760 0.913380 -0.539849
C38   C     C_R   0.610199 0.086554 0.894674 0.702225
O16   O     O_R   0.770400 0.084270 0.086640 -0.541110
O17   O     O_3   0.602590 0.949210 0.997500 -0.367963
V3    V     V_3+5 0.329470 0.009420 0.000470 1.399531
O18   O     O_R   0.940650 0.906250 0.913470 -0.542831
C39   C     C_R   0.109725 0.883422 0.884759 0.692382
O19   O     O_R   0.936210 0.929220 0.078300 -0.539627
C40   C     C_R   0.108952 0.913585 0.105096 0.701854
V4    V     V_3+5 0.828930 0.990510 0.999490 1.400054
O20   O     O_3   0.105680 0.050790 0.002500 -0.368877
C41   C     C_3   0.803085 0.737068 0.633143 -0.362993
C42   C     C_3   0.862725 0.761643 0.554642 -0.280406
C43   C     C_3   0.690271 0.762394 0.497435 -0.752443
H20   H     H_    0.624675 0.701809 0.483165 0.243585
H21   H     H_    0.579293 0.806975 0.524303 0.217019
H22   H     H_    0.738808 0.779303 0.441062 0.212335
H23   H     H_    0.925221 0.823049 0.567572 0.187217
H24   H     H_    0.974361 0.719425 0.524625 0.185269
H25   H     H_    0.737862 0.676480 0.622680 0.202189
H26   H     H_    0.684560 0.778727 0.658572 0.163068

loop_
_geom_bond_atom_site_label_1
_geom_bond_atom_site_label_2
_ccdc_geom_bond_type
C9    C10   A    
C34   C35   A    
C12   C14   A    
C19   H5    S    
O12   V3    S    
C6    H2    S    
C1    O6    A    
C42   H24   S    
C42   C43   S    
O14   V3    S    
C13   C14   A    
C6    C7    A    
O5    C3    A    
C15   C16   A    
C43   H21   S    
V3    O20   S    
C31   C32   A    
V2    O10   S    
C18   H4    S    
C32   C33   A    
C19   C20   A    
O12   C37   A    
O13   C40   A    
C16   C20   A    
O8    V2    S    
C11   C19   A    
C26   C27   A    
C24   H14   S    
C35   C36   A    
C15   H9    S    
O1    V2    S    
O7    V1    S    
C22   C38   S    
O9    C4    A    
C12   C15   A    
C13   C17   A    
C5    H1    S    
C29   H11   S    
C12   C40   S    
C41   C42   S    
O19   V4    S    
O17   V4    S    
O4    C2    A    
C43   H20   S    
C26   C30   A    
C31   H16   S    
C3    C11   S    
C32   H17   S    
C20   H7    S    
C33   C34   A    
O18   V4    S    
C11   C18   A    
C16   C17   A    
C13   H6    S    
C42   H23   S    
C28   H10   S    
C7    C39   S    
C29   C30   A    
O15   C39   A    
O17   V3    S    
C22   C24   A    
O3    C4    A    
C21   C29   A    
O14   C38   A    
C27   C28   A    
V4    O20   S    
O6    V2    S    
O9    V2    S    
C25   H15   S    
C8    C9    A    
O2    V1    S    
C23   C24   A    
C25   C26   A    
O1    C2    A    
O19   C40   A    
C43   H22   S    
O5    V1    S    
O8    C3    A    
O16   V4    S    
C5    C10   A    
C17   C18   A    
C9    C41   S    
O11   V4    S    
O4    V1    S    
O3    V1    S    
V1    O10   S    
C37   O16   A    
O18   C39   A    
C1    C21   S    
O2    C1    A    
C14   H8    S    
C5    C6    A    
C33   C37   S    
C30   H13   S    
C41   H26   S    
C4    C10   S    
O7    V2    S    
C22   C25   A    
C21   C28   A    
C2    C36   S    
C34   H18   S    
C23   H12   S    
C31   C36   A    
C35   H19   S    
O15   V3    S    
C8    H3    S    
C41   H25   S    
C7    C8    A    
O11   C38   A    
C23   C27   A    
O13   V3    S    
