data_mof_unit_44440.cif
_audit_creation_date              2012-12-10T19:42:58-0500
_audit_creation_method            fapswitch 2.2
_symmetry_space_group_name_H-M    P1
_symmetry_Int_Tables_number       1
_space_group_crystal_system       triclinic
_cell_length_a                    10.884111
_cell_length_b                    13.001638
_cell_length_c                    11.671004
_cell_angle_alpha                 99.902843
_cell_angle_beta                  94.31683
_cell_angle_gamma                 90.559916
_cell_volume                      1621.92188807

loop_
_atom_site_label
_atom_site_type_symbol
_atom_type_description
_atom_site_fract_x
_atom_site_fract_y
_atom_site_fract_z
_atom_type_partial_charge
C1    C     C_R   0.498104 0.299008 0.478569 0.815831
C2    C     C_R   0.501862 0.700960 0.521413 0.794364
C3    C     C_R   0.872106 0.512654 0.502995 -0.091957
C4    C     C_R   0.128211 0.510409 0.497722 -0.099104
C5    C     C_R   0.948230 0.530137 0.608565 0.019736
C6    C     C_R   0.052699 0.508493 0.392790 0.032845
C7    C     C_R   0.503359 0.814349 0.533768 -0.049384
C8    C     C_R   0.496526 0.185539 0.466147 -0.051286
C9    C     C_R   0.480615 0.014699 0.344082 -0.212543
C10   C     C_R   0.519295 0.985140 0.655788 -0.218763
C11   C     C_R   0.482591 0.122856 0.355105 -0.195525
C12   C     C_R   0.517559 0.877011 0.644790 -0.202513
C13   C     C_R   0.508706 0.139372 0.566195 -0.269276
C14   C     C_R   0.490868 0.860459 0.433685 -0.273584
C15   C     C_R   0.506973 0.031320 0.555896 0.177230
C16   C     C_R   0.492718 0.968506 0.443968 0.177062
C17   C     C_R   0.432201 0.374033 0.019868 -0.333918
C18   C     C_R   0.559432 0.628014 0.979757 -0.334251
C19   C     C_R   0.431888 0.389796 0.142169 0.097292
C20   C     C_R   0.561500 0.612108 0.857756 0.094172
C21   C     C_R   0.518968 0.559546 0.157774 -0.003880
C22   C     C_R   0.480033 0.440525 0.842027 0.057392
C23   C     C_R   0.262098 0.503486 0.499581 0.798700
C24   C     C_R   0.737989 0.505064 0.501068 0.802495
C25   C     C_R   0.519181 0.547600 0.034734 0.070431
C26   C     C_R   0.477586 0.452865 0.965031 0.114248
C27   C     C_R   0.203842 0.628853 0.163944 -0.242045
C28   C     C_R   0.880892 0.562977 0.925978 -0.234194
C29   C     C_R   0.162874 0.614085 0.270680 -0.175635
C30   C     C_R   0.907686 0.515955 0.813816 -0.167653
C31   C     C_R   0.101079 0.521000 0.280315 0.133627
C32   C     C_R   0.903855 0.573966 0.723103 0.150958
C33   C     C_R   0.081290 0.442669 0.181691 -0.274930
C34   C     C_R   0.872765 0.679374 0.745483 -0.237518
C35   C     C_R   0.122260 0.457399 0.074811 -0.217635
C36   C     C_R   0.848798 0.727076 0.857837 -0.237598
C37   C     C_R   0.180635 0.551255 0.063196 0.591008
C38   C     C_R   0.853770 0.670911 0.950257 0.567595
C39   C     C_R   0.925527 0.503526 0.396347 -0.255724
C40   C     C_R   0.074735 0.521918 0.604173 -0.246296
Cu1   Cu    Cu3+1 0.509250 0.507730 0.615930 0.947713
Cu2   Cu    Cu3+1 0.490750 0.492270 0.384070 0.940675
H1    H     H_    0.444662 0.368772 0.788113 0.111933
H2    H     H_    0.554588 0.631294 0.211540 0.121947
H3    H     H_    0.592242 0.675540 0.817547 0.131699
H4    H     H_    0.396592 0.328029 0.182587 0.124139
H5    H     H_    0.397244 0.300677 0.968773 0.128294
H6    H     H_    0.588059 0.703199 0.030601 0.175327
H7    H     H_    0.253132 0.700870 0.161323 0.126437
H8    H     H_    0.883290 0.514293 0.992292 0.133596
H9    H     H_    0.179112 0.675376 0.346114 0.137653
H10   H     H_    0.933015 0.434679 0.797996 0.140442
H11   H     H_    0.033919 0.370336 0.187531 0.154370
H12   H     H_    0.871046 0.725615 0.676539 0.144276
H13   H     H_    0.106253 0.396042 0.999501 0.148456
H14   H     H_    0.826707 0.809074 0.873525 0.153686
H15   H     H_    0.868094 0.497385 0.315297 0.158356
H16   H     H_    0.132055 0.530661 0.685417 0.187646
H17   H     H_    0.479657 0.812527 0.347638 0.144943
H18   H     H_    0.519664 0.187276 0.652250 0.144614
H19   H     H_    0.527521 0.842611 0.723068 0.147582
H20   H     H_    0.472977 0.157275 0.276828 0.148306
H21   H     H_    0.469666 0.967325 0.257793 0.131525
H22   H     H_    0.530341 0.032506 0.742071 0.131552
N1    N     N_R   0.523180 0.519350 0.790130 -0.182154
N2    N     N_R   0.476820 0.480650 0.209870 -0.174949
O1    O     O_R   0.506570 0.354460 0.582000 -0.595551
O2    O     O_R   0.493430 0.645540 0.418000 -0.597557
O3    O     O_R   0.490940 0.341410 0.386200 -0.599007
O4    O     O_R   0.509060 0.658590 0.613800 -0.603706
O5    O     O_R   0.327460 0.506540 0.597900 -0.580027
O6    O     O_R   0.672540 0.493460 0.402100 -0.588540
O7    O     O_R   0.311830 0.493480 0.402100 -0.566868
O8    O     O_R   0.688170 0.506520 0.597900 -0.570108
O9    O     O_3   0.218019 0.559548 0.953490 -0.590111
C41   C     C_3   0.220037 0.663578 0.933597 -0.336601
H23   H     H_    0.303945 0.706280 0.978244 0.162517
H24   H     H_    0.134917 0.705250 0.959671 0.167118
H25   H     H_    0.224862 0.662541 0.838887 0.193237
O10   O     O_3   0.828435 0.726638 0.058996 -0.600058
C42   C     C_3   0.844794 0.669387 0.150872 -0.370389
H26   H     H_    0.940613 0.642599 0.159437 0.186218
H27   H     H_    0.777696 0.602879 0.139360 0.164117
H28   H     H_    0.827808 0.721411 0.233676 0.197474

loop_
_geom_bond_atom_site_label_1
_geom_bond_atom_site_label_2
_ccdc_geom_bond_type
C8    C13   A    
C21   N2    A    
C27   C29   A    
C1    C8    S    
Cu1   Cu2   S    
C2    C7    S    
C41   H25   S    
C11   H20   S    
C42   H26   S    
C19   H4    S    
Cu1   O1    S    
C13   H18   S    
C14   H17   S    
C17   C26   A    
C35   C37   A    
C9    C16   A    
C41   H24   S    
C2    O2    A    
C10   C15   A    
C15   C16   A    
C39   H15   S    
C19   N2    A    
C30   H10   S    
C1    O1    A    
Cu1   O8    S    
C28   H8    S    
C7    C14   A    
C4    C40   A    
C31   C33   A    
C34   C36   A    
C20   H3    S    
Cu1   O5    S    
C5    C32   S    
C6    C31   S    
C37   O9    S    
C3    C39   A    
Cu2   O2    S    
C3    C24   S    
C18   C25   A    
C23   O7    A    
C42   H27   S    
C33   H11   S    
C7    C12   A    
C40   H16   S    
C35   H13   S    
C23   O5    A    
C20   N1    A    
C41   H23   S    
C4    C6    A    
C4    C23   S    
C17   C19   A    
Cu1   N1    S    
C25   C26   A    
Cu2   O3    S    
C1    O3    A    
C32   C34   A    
O9    C41   S    
C22   N1    A    
C36   H14   S    
C21   H2    S    
C22   H1    S    
C28   C38   A    
Cu2   O6    S    
C9    C11   A    
C10   C12   A    
C34   H12   S    
C13   C15   A    
C14   C16   A    
C42   H28   S    
C24   O6    A    
C29   H9    S    
C21   C25   A    
Cu2   O7    S    
C9    H21   S    
C10   H22   S    
C17   H5    S    
O10   C42   S    
C3    C5    A    
C18   H6    S    
C36   C38   A    
C29   C31   A    
C30   C32   A    
C12   H19   S    
C24   O8    A    
C38   O10   S    
C27   C37   A    
C8    C11   A    
C28   C30   A    
C33   C35   A    
C18   C20   A    
C22   C26   A    
C5    C40   A    
Cu2   N2    S    
C6    C39   A    
C2    O4    A    
C27   H7    S    
Cu1   O4    S    
