data_mof_unit_26175.cif
_audit_creation_date              2013-03-05T16:02:13-0500
_audit_creation_method            fapswitch 2.2
_symmetry_space_group_name_H-M    P1
_symmetry_Int_Tables_number       1
_space_group_crystal_system       triclinic
_cell_length_a                    14.015671
_cell_length_b                    13.631571
_cell_length_c                    15.003594
_cell_angle_alpha                 89.821539
_cell_angle_beta                  90.033156
_cell_angle_gamma                 83.05997
_cell_volume                      2845.50322496

loop_
_atom_site_label
_atom_site_type_symbol
_atom_site_description
_atom_site_fract_x
_atom_site_fract_y
_atom_site_fract_z
_atom_type_partial_charge
O1    O     O_R   0.580280 0.500020 0.367860 -0.626991
O2    O     O_R   0.419720 0.499980 0.632140 -0.626203
O3    O     O_R   0.419730 0.500030 0.367840 -0.621756
O4    O     O_R   0.580270 0.499970 0.632160 -0.611948
C1    C     C_R   0.499814 0.500814 0.326517 0.893725
C2    C     C_R   0.499883 0.500873 0.673514 0.894690
O5    O     O_R   0.591830 0.359650 0.500030 -0.610349
O6    O     O_R   0.408170 0.640350 0.499970 -0.599859
O7    O     O_R   0.431280 0.359660 0.500010 -0.614194
O8    O     O_R   0.568720 0.640340 0.499990 -0.614162
C3    C     C_R   0.517104 0.314109 0.500104 0.904984
C4    C     C_R   0.482894 0.685891 0.499896 0.904457
Zn1   Zn    Zn3+2 0.607200 0.499990 0.500020 0.982925
Zn2   Zn    Zn3+2 0.392800 0.500010 0.499980 0.982782
C5    C     C_1   0.469839 0.789613 0.499744 -0.137130
C6    C     C_1   0.530152 0.210383 0.500262 -0.148686
C7    C     C_2   0.458544 0.981176 0.499581 -0.139242
C8    C     C_2   0.541431 0.018819 0.500438 -0.144117
C9    C     C_1   0.538648 0.122636 0.500378 0.046461
C10   C     C_1   0.461332 0.877360 0.499635 0.053836
H1    H     H_    0.610276 0.972499 0.501168 0.176342
H2    H     H_    0.389698 0.027495 0.498851 0.178008
C11   C     C_R   0.417006 0.485654 0.815058 -0.182885
C12   C     C_R   0.578402 0.530785 0.185249 -0.192933
C13   C     C_R   0.498997 0.505436 0.769317 -0.104324
C14   C     C_R   0.498549 0.504915 0.230743 -0.103892
C15   C     C_R   0.579171 0.531559 0.814613 -0.147777
C16   C     C_R   0.416257 0.484975 0.185233 -0.139353
C17   C     C_R   0.579259 0.536653 0.907305 -0.004473
C18   C     C_R   0.412826 0.489028 0.092670 -0.018398
C19   C     C_R   0.496499 0.513464 0.953622 0.027106
C20   C     C_R   0.495313 0.512988 0.046441 0.019102
C21   C     C_R   0.415147 0.489332 0.906996 0.061644
C22   C     C_R   0.577371 0.535101 0.093193 0.079328
C23   C     C_R   0.659442 0.563190 0.955062 0.349010
C24   C     C_R   0.330227 0.468749 0.045068 0.441846
C25   C     C_R   0.657615 0.561054 0.047851 -0.266126
C26   C     C_R   0.332952 0.468447 0.952325 -0.262867
H3    H     H_    0.354869 0.465996 0.779127 0.164128
H4    H     H_    0.641346 0.547812 0.221492 0.161667
H5    H     H_    0.640927 0.547580 0.776677 0.233824
H6    H     H_    0.355987 0.464735 0.222940 0.222646
H7    H     H_    0.719167 0.579335 0.085293 0.199677
H8    H     H_    0.270936 0.451309 0.914925 0.201569
C27   C     C_R   0.805288 0.435368 0.553923 0.031130
C28   C     C_R   0.194773 0.563430 0.444983 0.018377
N1    N     N_R   0.750030 0.500040 0.500070 -0.119457
N2    N     N_R   0.249970 0.499960 0.499930 -0.118471
C29   C     C_R   0.790652 0.564094 0.446195 -0.002821
C30   C     C_R   0.209287 0.436847 0.554751 -0.001352
C31   C     C_R   0.890904 0.565567 0.445247 -0.015815
C32   C     C_R   0.109008 0.435480 0.555895 -0.019105
C33   C     C_R   0.949284 0.500695 0.501451 0.054067
C34   C     C_R   0.050447 0.501444 0.500831 0.057369
C35   C     C_R   0.906469 0.434535 0.557451 -0.089512
C36   C     C_R   0.093248 0.567522 0.444794 -0.099326
C37   C     C_R   0.933347 0.630800 0.389575 -0.244092
C38   C     C_R   0.066698 0.369597 0.610939 -0.239190
C39   C     C_R   0.033488 0.633564 0.389401 0.301095
C40   C     C_R   0.966322 0.368609 0.613017 0.329972
H9    H     H_    0.769380 0.384262 0.592967 0.183308
H10   H     H_    0.231026 0.609770 0.401118 0.188929
H11   H     H_    0.744643 0.613826 0.403725 0.133748
H12   H     H_    0.255325 0.387247 0.597307 0.134148
H13   H     H_    0.888147 0.681425 0.347089 0.186655
H14   H     H_    0.111951 0.319258 0.653631 0.186714
S1    S     S_3+6 0.762746 0.599791 0.901957 0.062380
O9    O     O_2   0.732833 0.686171 0.841497 -0.242429
O10   O     O_2   0.833512 0.629456 0.969117 -0.234545
O11   O     O_3   0.816136 0.505830 0.840651 -0.490423
H15   H     H_    0.832341 0.451171 0.883774 0.382372
S2    S     S_3+6 0.222780 0.443437 0.098507 0.046517
O12   O     O_2   0.144541 0.434582 0.031456 -0.236067
O13   O     O_2   0.242408 0.348047 0.149560 -0.300639
O14   O     O_3   0.186296 0.535625 0.169580 -0.522314
H16   H     H_    0.136083 0.510270 0.206624 0.388982
N3    N     N_R   0.072334 0.704916 0.333713 0.210016
O15   O     O_R   0.129659 0.763376 0.367424 -0.366818
O16   O     O_R   0.036903 0.723993 0.254487 -0.314858
N4    N     N_R   0.927401 0.300120 0.671821 0.206574
O17   O     O_R   0.857523 0.330603 0.725770 -0.362839
O18   O     O_R   0.972438 0.211682 0.682750 -0.344375

loop_
_geom_bond_atom_site_label_1
_geom_bond_atom_site_label_2
_geom_bond_distance
_ccdc_geom_bond_type
C29   H11   1.082873 S    
C15   C17   1.392678 A    
C22   C25   1.395848 A    
C30   H12   1.082864 S    
O7    Zn2   1.924009 S    
C39   N3    1.436672 S    
N1    C29   1.362430 A    
N3    O15   1.301208 A    
O5    C3    1.280394 A    
C28   H10   1.079680 S    
O1    C1    1.285685 A    
C23   C25   1.392687 A    
C12   C14   1.391990 A    
C37   C39   1.408593 A    
C2    C13   1.438924 S    
C38   C40   1.408883 A    
C8    H1    1.087465 S    
C7    C10   1.410985 S    
C8    C9    1.410997 S    
C27   N1    1.363706 A    
C27   H9    1.079018 S    
O4    Zn1   2.018405 S    
C38   H14   1.084001 S    
C29   C31   1.407744 A    
C30   C32   1.407953 A    
C19   C21   1.410251 A    
O11   H15   0.990589 S    
C31   C37   1.402168 A    
N3    O16   1.301296 A    
C35   C40   1.420816 A    
O2    C2    1.284669 A    
S2    O14   1.682708 S    
C32   C34   1.407469 A    
C28   N2    1.363729 A    
C33   C35   1.416348 A    
C5    C10   1.187628 T    
C32   C38   1.401756 A    
C34   C36   1.415807 A    
S1    O9    1.502908 D    
N4    O18   1.301321 A    
Zn1   N1    2.001939 S    
S2    O12   1.503516 D    
Zn2   N2    2.001942 S    
C11   C21   1.380611 A    
C33   C34   1.419180 A    
C12   C22   1.382229 A    
S1    O10   1.503627 D    
C20   C22   1.410599 A    
C25   H7    1.083598 S    
O14   H16   0.990801 S    
C26   H8    1.083643 S    
C3    C6    1.403629 S    
C15   H5    1.079952 S    
C19   C20   1.392736 A    
C4    C5    1.403588 S    
C23   S1    1.775820 S    
O6    C4    1.280379 A    
C7    C8    1.325568 D    
N2    C30   1.362539 A    
O7    C3    1.285294 A    
O3    Zn2   2.018405 S    
O8    C4    1.285313 A    
S2    O13   1.503435 D    
O4    C2    1.285314 A    
O1    Zn1   2.018228 S    
C40   N4    1.437400 S    
O6    Zn2   1.950839 S    
C16   H6    1.079643 S    
C21   C26   1.396309 A    
C37   H13   1.083990 S    
N4    O17   1.300647 A    
O3    C1    1.283753 A    
O8    Zn1   1.924009 S    
C13   C15   1.395954 A    
C17   C23   1.416394 A    
C14   C16   1.395143 A    
C7    H2    1.087462 S    
C36   C39   1.419515 A    
C18   C24   1.415734 A    
S1    O11   1.680192 S    
C16   C18   1.390281 A    
C17   C19   1.420012 A    
C18   C20   1.419543 A    
C6    C9    1.187645 T    
C11   H3    1.085199 S    
C24   C26   1.392033 A    
C12   H4    1.085145 S    
C11   C13   1.392448 A    
O2    Zn2   2.018226 S    
C1    C14   1.437877 S    
O5    Zn1   1.950840 S    
C27   C35   1.417749 A    
C28   C36   1.417287 A    
C31   C33   1.407943 A    
C24   S2    1.776241 S    
