data_mof_unit_47099.cif
_audit_creation_date              2012-10-26T19:58:20-0400
_audit_creation_method            fapswitch 2.2
_symmetry_space_group_name_H-M    P1
_symmetry_Int_Tables_number       1
_space_group_crystal_system       triclinic
_cell_length_a                    7.420427
_cell_length_b                    8.707882
_cell_length_c                    13.405611
_cell_angle_alpha                 93.978214
_cell_angle_beta                  77.447931
_cell_angle_gamma                 102.91352
_cell_volume                      823.934558346

loop_
_atom_site_label
_atom_site_type_symbol
_atom_type_description
_atom_site_fract_x
_atom_site_fract_y
_atom_site_fract_z
_atom_type_partial_charge
C1    C     C_R   0.541727 0.799507 0.508729 0.553595
C2    C     C_R   0.337307 0.494961 0.806605 -0.004162
C3    C     C_2   0.557536 0.965172 0.527061 0.037222
C4    C     C_R   0.399557 0.498032 0.694465 0.536458
C5    C     C_2   0.435084 0.033088 0.495843 -0.131163
C6    C     C_R   0.454269 0.200027 0.499820 0.569233
C7    C     C_R   0.601614 0.511103 0.305885 0.540034
C8    C     C_R   0.878929 0.676846 0.053371 -0.128184
C9    C     C_R   0.662300 0.536793 0.195785 -0.006175
C10   C     C_R   0.152726 0.415540 0.848378 -0.127220
C11   C     C_R   0.098607 0.384825 0.952005 -0.133319
C12   C     C_R   0.417526 0.506815 0.975503 0.033614
C13   C     C_R   0.229295 0.426629 0.014793 -0.122754
C14   C     C_R   0.465888 0.553328 0.872031 0.027912
C15   C     C_R   0.558842 0.543978 0.035602 0.028646
C16   C     C_R   0.738857 0.638665 0.994724 0.045995
C17   C     C_R   0.775597 0.697778 0.896824 -0.135596
C18   C     C_R   0.640452 0.658030 0.837018 -0.113670
C19   C     C_R   0.527112 0.489710 0.135287 -0.131309
C20   C     C_R   0.840486 0.626876 0.153787 -0.141072
Cu1   Cu    Cu3+1 0.321300 0.483160 0.488710 0.975578
Cu2   Cu    Cu3+1 0.678700 0.516840 0.511290 0.989153
H1    H     H_    0.946530 0.664435 0.199726 0.134131
H2    H     H_    0.955332 0.324148 0.983556 0.133972
H3    H     H_    0.673619 0.713963 0.763869 0.155880
H4    H     H_    0.323326 0.964545 0.460212 0.118826
H5    H     H_    0.011011 0.617520 0.579222 0.241464
H6    H     H_    0.988877 0.382372 0.420873 0.246353
H7    H     H_    0.909566 0.775558 0.866251 0.118374
H8    H     H_    0.016567 0.748931 0.022378 0.120431
H9    H     H_    0.396131 0.412704 0.169084 0.116959
H10   H     H_    0.051235 0.372651 0.800309 0.158179
H11   H     H_    0.176716 0.397720 0.094137 0.105067
I1    I     I_    0.765604 0.075582 0.614343 -0.350928
N1    N     N_2   0.947230 0.542220 0.528320 -0.244933
N2    N     N_2   0.052770 0.457780 0.471680 -0.242279
O1    O     O_R   0.383920 0.714220 0.492660 -0.523179
O2    O     O_R   0.685730 0.742660 0.511730 -0.480911
O3    O     O_R   0.275440 0.478800 0.636790 -0.501744
O4    O     O_R   0.577250 0.507240 0.655860 -0.495632
O5    O     O_R   0.314270 0.257340 0.488270 -0.483637
O6    O     O_R   0.616080 0.285780 0.507340 -0.470614
O7    O     O_R   0.422750 0.492760 0.344140 -0.507130
O8    O     O_R   0.724560 0.521200 0.363210 -0.511464

loop_
_geom_bond_atom_site_label_1
_geom_bond_atom_site_label_2
_ccdc_geom_bond_type
C2    C4    S    
C4    O3    A    
C13   H11   S    
C7    O7    A    
C17   H7    S    
C14   C18   A    
C9    C20   A    
N1    N2    D    
Cu1   O3    S    
C12   C15   A    
C1    O1    A    
C3    C5    D    
C4    O4    A    
Cu2   O4    S    
C8    H8    S    
C17   C18   A    
C19   H9    S    
C8    C16   A    
Cu1   N2    S    
C8    C20   A    
C7    O8    A    
C15   C19   A    
Cu2   N1    S    
C11   C13   A    
Cu2   O6    S    
C18   H3    S    
C1    O2    A    
Cu1   O5    S    
Cu1   Cu2   S    
C12   C14   A    
C5    C6    S    
C2    C14   A    
C10   C11   A    
C15   C16   A    
C2    C10   A    
C10   H10   S    
C11   H2    S    
Cu1   O1    S    
C12   C13   A    
H6    N2    S    
C6    O6    A    
C7    C9    S    
C3    I1    S    
H5    N1    S    
Cu1   O7    S    
C20   H1    S    
C9    C19   A    
Cu2   O8    S    
C5    H4    S    
C16   C17   A    
C1    C3    S    
C6    O5    A    
Cu2   O2    S    
