data_mof_unit_13981.cif
_audit_creation_date              2013-03-05T15:54:13-0500
_audit_creation_method            fapswitch 2.2
_symmetry_space_group_name_H-M    P1
_symmetry_Int_Tables_number       1
_space_group_crystal_system       triclinic
_cell_length_a                    10.484744
_cell_length_b                    10.527413
_cell_length_c                    9.965949
_cell_angle_alpha                 87.353749
_cell_angle_beta                  89.277831
_cell_angle_gamma                 93.824819
_cell_volume                      1096.25759208

loop_
_atom_site_label
_atom_site_type_symbol
_atom_site_description
_atom_site_fract_x
_atom_site_fract_y
_atom_site_fract_z
_atom_type_partial_charge
O1    O     O_R   0.500000 0.316780 0.614690 -0.604704
O2    O     O_R   0.499990 0.316750 0.385360 -0.594815
C1    C     C_R   0.528294 0.265844 0.503191 0.932461
O3    O     O_R   0.313960 0.499980 0.614650 -0.638567
O4    O     O_R   0.313940 0.499960 0.385310 -0.652779
C2    C     C_R   0.257907 0.503890 0.500363 0.892114
Zn1   Zn    Zn3+2 0.500010 0.500020 0.653130 0.966364
Zn2   Zn    Zn3+2 0.499990 0.499980 0.346870 0.976969
O5    O     O_R   0.500010 0.683250 0.614640 -0.616155
O6    O     O_R   0.500000 0.683220 0.385310 -0.573353
O7    O     O_R   0.686060 0.500040 0.614690 -0.614008
O8    O     O_R   0.686040 0.500020 0.385350 -0.628744
C3    C     C_R   0.501079 0.742547 0.497699 0.922906
C4    C     C_R   0.742371 0.504708 0.498874 0.891259
C5    C     C_3   0.039487 0.518062 0.626566 -0.155746
C6    C     C_3   0.949527 0.409726 0.573892 -0.113733
H1    H     H_    0.903685 0.327690 0.634760 0.157764
H2    H     H_    0.074330 0.526816 0.730537 0.158798
C7    C     C_3   0.877515 0.510480 0.496804 -0.066123
C8    C     C_3   0.965664 0.617756 0.548357 -0.019386
C9    C     C_3   0.051925 0.610800 0.423113 -0.254833
C10   C     C_3   0.961388 0.502420 0.370854 -0.186829
C11   C     C_3   0.035375 0.401213 0.448148 -0.089871
C12   C     C_3   0.122959 0.509154 0.500695 0.041130
H3    H     H_    0.098021 0.692804 0.362459 0.160418
H4    H     H_    0.926081 0.496381 0.266628 0.150797
H5    H     H_    0.068383 0.312229 0.407944 0.152842
C13   C     C_R   0.578554 0.109537 0.761215 -0.118436
H6    H     H_    0.633220 0.199670 0.770559 0.172264
C14   C     C_R   0.522977 0.044611 0.876078 0.031226
C15   C     C_R   0.443927 0.934081 0.859943 -0.169290
H7    H     H_    0.391096 0.887173 0.944416 0.184180
C16   C     C_R   0.429598 0.884627 0.733177 -0.096693
H8    H     H_    0.362734 0.802691 0.724980 0.169046
C17   C     C_R   0.499470 0.941510 0.620584 0.025745
C18   C     C_R   0.554064 0.063950 0.633032 0.083802
C19   C     C_R   0.576990 0.138641 0.514859 -0.300611
C20   C     C_R   0.622590 0.081216 0.402553 -0.122015
C21   C     C_R   0.595161 0.948856 0.392752 0.425155
C22   C     C_R   0.521157 0.881024 0.497794 -0.227699
H9    H     H_    0.683952 0.587877 0.118482 0.130367
C23   C     C_R   0.296137 0.378707 0.150824 -0.112763
H10   H     H_    0.308206 0.339280 0.250491 0.192769
C24   C     C_R   0.177168 0.359298 0.093858 -0.218814
H11   H     H_    0.096177 0.319956 0.154223 0.167271
C25   C     C_R   0.165866 0.376667 0.956353 -0.261697
H12   H     H_    0.075019 0.345746 0.913512 0.178939
C26   C     C_R   0.277332 0.392092 0.876235 -0.025615
C27   C     C_R   0.393664 0.445395 0.933074 0.093153
C28   C     C_R   0.397380 0.443055 0.077237 0.206273
N1    N     N_R   0.498800 0.498800 0.142780 -0.099737
C29   C     C_R   0.601043 0.549376 0.067518 -0.052300
H13   H     H_    0.684124 0.590561 0.868716 0.164689
C30   C     C_R   0.601268 0.549487 0.924828 -0.090472
N2    N     N_R   0.498760 0.498720 0.857170 -0.122504
O9    O     O_3   0.626060 0.890471 0.275414 -0.593059
C31   C     C_3   0.753717 0.853418 0.277307 0.125120
H14   H     H_    0.752130 0.747770 0.282362 0.157393
H15   H     H_    0.808946 0.885312 0.366081 0.136924
C32   C     C_3   0.826096 0.905885 0.148974 -0.318512
H16   H     H_    0.809282 0.007888 0.129786 0.252563
H17   H     H_    0.930430 0.898517 0.163094 0.193445
C33   C     C_3   0.786113 0.835759 0.024102 -0.856319
H18   H     H_    0.825570 0.740508 0.026959 0.232524
H19   H     H_    0.825920 0.889897 0.932948 0.259976
H20   H     H_    0.680298 0.826471 0.016376 0.284200
C34   C     C_2   0.274720 0.291852 0.778092 1.017122
O10   O     O_2   0.346060 0.206832 0.792461 -0.640176
O11   O     O_R   0.175299 0.279020 0.686904 -0.847476
H21   H     H_    0.180905 0.201739 0.630551 0.340757
C35   C     C_2   0.928312 0.739623 0.605309 0.855022
O12   O     O_2   0.011523 0.817440 0.640393 -0.625659
O13   O     O_R   0.799484 0.763727 0.618645 -0.834453
H22   H     H_    0.786937 0.849119 0.658201 0.337817
C36   C     C_2   0.725747 0.153448 0.322784 0.907482
O14   O     O_2   0.836541 0.127731 0.339734 -0.690604
O15   O     O_R   0.699821 0.259221 0.240865 -0.728739
H23   H     H_    0.779623 0.302719 0.196265 0.332595
C37   C     C_2   0.525533 0.106277 0.006251 0.959990
O16   O     O_2   0.585193 0.208988 0.016043 -0.626657
O17   O     O_R   0.452759 0.051915 0.115286 -0.784392
H24   H     H_    0.452440 0.109410 0.194023 0.352700

loop_
_geom_bond_atom_site_label_1
_geom_bond_atom_site_label_2
_geom_bond_distance
_ccdc_geom_bond_type
C5    H2    1.108819 S    
C33   H19   1.111377 S    
O13   H22   1.013917 S    
C7    C8    1.523097 S    
Zn1   N2    2.032737 S    
O17   H24   1.012998 S    
O15   H23   1.013920 S    
Zn1   O7    1.983189 S    
C32   C33   1.525179 S    
C13   H6    1.083737 S    
O4    C2    1.285387 A    
O7    C4    1.287214 A    
C31   H15   1.115876 S    
C5    C6    1.546020 S    
O9    C31   1.419004 S    
C32   H17   1.112053 S    
O5    C3    1.295993 A    
C3    C22   1.459006 S    
C30   N2    1.367595 A    
C21   O9    1.390527 S    
C29   C30   1.421962 A    
C6    H1    1.110738 S    
C11   C12   1.528600 S    
C15   C16   1.394542 A    
C8    C35   1.500048 S    
C11   H5    1.110081 S    
H9    C29   1.077508 S    
C33   H20   1.111181 S    
C9    C10   1.548207 S    
C23   C24   1.383666 A    
O3    Zn1   1.992738 S    
C24   C25   1.381743 A    
C16   H8    1.081417 S    
C20   C36   1.480807 S    
C5    C8    1.534977 S    
C25   C26   1.403179 A    
N1    C29   1.364535 A    
C7    C10   1.532328 S    
C20   C21   1.411967 A    
C37   O16   1.221062 D    
O3    C2    1.288464 A    
C21   C22   1.429845 A    
C37   O17   1.397831 S    
C31   C32   1.539836 S    
H13   C30   1.081513 S    
C34   O10   1.208827 D    
C32   H16   1.108113 S    
O1    C1    1.295461 A    
C17   C18   1.386586 A    
C36   O14   1.222263 D    
C19   C20   1.390779 A    
C15   H7    1.082945 S    
Zn2   O8    1.992738 S    
C2    C12   1.419633 S    
C28   N1    1.368013 A    
C36   O15   1.393687 S    
Zn2   N1    2.034751 S    
C13   C18   1.405913 A    
C23   C28   1.400741 A    
C14   C37   1.476972 S    
C5    C12   1.530510 S    
O8    C4    1.284282 A    
C6    C11   1.543151 S    
C23   H10   1.070980 S    
C24   H11   1.082470 S    
C35   O13   1.396726 S    
Zn1   O5    1.949260 S    
C9    H3    1.110423 S    
C25   H12   1.085009 S    
C18   C19   1.394701 A    
O1    Zn1   1.983981 S    
C4    C7    1.414051 S    
O2    Zn2   1.949260 S    
O6    C3    1.307173 A    
O4    Zn2   1.983188 S    
C13   C14   1.405317 A    
O2    C1    1.313825 A    
C35   O12   1.222004 D    
C27   N2    1.399571 A    
C31   H14   1.110026 S    
C14   C15   1.399549 A    
C6    C7    1.526935 S    
C26   C27   1.441841 A    
C16   C17   1.418835 A    
C17   C22   1.427899 A    
C26   C34   1.470755 S    
O11   H21   1.014146 S    
C33   H18   1.109257 S    
C8    C9    1.539510 S    
C1    C19   1.464849 S    
Zn2   O6    1.983982 S    
C27   C28   1.436861 A    
C10   H4    1.110245 S    
C9    C12   1.530354 S    
C10   C11   1.542681 S    
C34   O11   1.395406 S    
