data_mof_unit_33589.cif
_audit_creation_date              2013-03-05T16:25:44-0500
_audit_creation_method            fapswitch 2.2
_symmetry_space_group_name_H-M    P1
_symmetry_Int_Tables_number       1
_space_group_crystal_system       triclinic
_cell_length_a                    10.806865
_cell_length_b                    15.076248
_cell_length_c                    13.82474
_cell_angle_alpha                 90.148402
_cell_angle_beta                  90.649268
_cell_angle_gamma                 89.302429
_cell_volume                      2252.10478059

loop_
_atom_site_label
_atom_site_type_symbol
_atom_site_description
_atom_site_fract_x
_atom_site_fract_y
_atom_site_fract_z
_atom_type_partial_charge
O1    O     O_R   0.500010 0.371450 0.581430 -0.596583
O2    O     O_R   0.499990 0.628550 0.418570 -0.592096
O3    O     O_R   0.500010 0.371460 0.418560 -0.581916
O4    O     O_R   0.499990 0.628540 0.581440 -0.592853
C1    C     C_R   0.500310 0.329992 0.499872 0.859841
C2    C     C_R   0.503313 0.670312 0.500235 0.905617
O5    O     O_R   0.319640 0.500000 0.581430 -0.580587
O6    O     O_R   0.680360 0.500000 0.418570 -0.579357
O7    O     O_R   0.319640 0.500010 0.418560 -0.600867
O8    O     O_R   0.680360 0.499990 0.581440 -0.575364
C3    C     C_R   0.262142 0.502782 0.499434 0.857918
C4    C     C_R   0.737833 0.497702 0.500612 0.825219
Cu1   Cu    Cu3+1 0.500000 0.499990 0.596430 0.968721
Cu2   Cu    Cu3+1 0.500000 0.500010 0.403570 0.963269
H1    H     H_    0.217326 0.779340 0.159964 0.201336
H2    H     H_    0.750202 0.216426 0.818912 0.199313
C5    C     C_R   0.213845 0.747738 0.311420 -0.252568
C6    C     C_R   0.789357 0.245966 0.670396 -0.203004
H3    H     H_    0.260023 0.808122 0.332093 0.171339
H4    H     H_    0.751709 0.184349 0.643521 0.201189
C7    C     C_R   0.176976 0.687084 0.382211 0.424266
C8    C     C_R   0.839155 0.307258 0.605917 0.374986
C9    C     C_R   0.113481 0.609765 0.354038 -0.064056
C10   C     C_R   0.884764 0.388470 0.640773 -0.051318
C11   C     C_R   0.087999 0.594528 0.254817 0.375177
C12   C     C_R   0.887937 0.405679 0.740978 0.439465
C13   C     C_R   0.125952 0.655888 0.185580 -0.152184
C14   C     C_R   0.837638 0.343172 0.804825 -0.274799
H5    H     H_    0.104324 0.645135 0.109814 0.186236
H6    H     H_    0.834086 0.356377 0.881704 0.152788
C15   C     C_R   0.188989 0.731928 0.213796 -0.190144
C16   C     C_R   0.789119 0.263827 0.769449 -0.244119
C17   C     C_R   0.930293 0.547570 0.431167 -0.200455
C18   C     C_R   0.069229 0.455869 0.570510 -0.239020
H7    H     H_    0.875525 0.585299 0.379008 0.164740
H8    H     H_    0.123297 0.418009 0.622988 0.143575
C19   C     C_R   0.871601 0.497784 0.501691 -0.059802
C20   C     C_R   0.128294 0.504704 0.498995 -0.079978
C21   C     C_R   0.941190 0.451051 0.572106 0.128495
C22   C     C_R   0.058521 0.551546 0.428310 0.071293
C23   C     C_R   0.432156 0.093199 0.559643 0.464025
C24   C     C_R   0.496442 0.907901 0.416289 0.456127
C25   C     C_R   0.425087 0.186145 0.557241 -0.317491
C26   C     C_R   0.492619 0.814907 0.415877 -0.311892
H9    H     H_    0.353946 0.221554 0.596690 0.139267
H10   H     H_    0.469927 0.779519 0.350171 0.156397
C27   C     C_R   0.505984 0.233842 0.499839 -0.133123
C28   C     C_R   0.512640 0.766987 0.501056 -0.123067
C29   C     C_R   0.594642 0.190075 0.444080 -0.237105
C30   C     C_R   0.543841 0.811293 0.586771 -0.281159
H11   H     H_    0.657115 0.228243 0.400308 0.216546
H12   H     H_    0.563443 0.773788 0.652011 0.207659
C31   C     C_R   0.607549 0.097962 0.448240 0.334825
C32   C     C_R   0.554495 0.903438 0.588578 0.349330
C33   C     C_R   0.523608 0.049337 0.504682 0.006673
C34   C     C_R   0.526314 0.951907 0.503408 0.017211
C35   C     C_R   0.563855 0.562321 0.107271 -0.245764
C36   C     C_R   0.541822 0.428364 0.894009 -0.251727
H13   H     H_    0.616731 0.611830 0.069666 0.167081
H14   H     H_    0.577359 0.370771 0.932436 0.161423
C37   C     C_R   0.565137 0.561500 0.208962 0.086207
C38   C     C_R   0.543193 0.428684 0.792363 0.076646
H15   H     H_    0.618558 0.610342 0.248140 0.128621
H16   H     H_    0.578446 0.371293 0.754393 0.152819
N1    N     N_R   0.500000 0.500020 0.258690 -0.195864
N2    N     N_R   0.500000 0.499980 0.741310 -0.199224
C39   C     C_R   0.433453 0.437645 0.209857 -0.030277
C40   C     C_R   0.453867 0.572225 0.789203 -0.006665
H17   H     H_    0.381682 0.389950 0.250802 0.158572
H18   H     H_    0.416698 0.627306 0.747820 0.170116
C41   C     C_R   0.428298 0.435625 0.107552 0.240991
C42   C     C_R   0.450062 0.575633 0.891440 0.244682
C43   C     C_R   0.494620 0.499750 0.054608 0.059397
C44   C     C_R   0.494792 0.501719 0.945548 0.059792
N3    N     N_R   0.706610 0.055157 0.396305 0.117955
O9    O     O_R   0.763371 0.985835 0.432098 -0.381021
O10   O     O_R   0.750129 0.091274 0.318574 -0.391256
N4    N     N_R   0.595302 0.946285 0.676455 0.123818
O11   O     O_R   0.662801 0.017068 0.673257 -0.398844
O12   O     O_R   0.578414 0.908595 0.759791 -0.348288
N5    N     N_R   0.353557 0.369897 0.059911 0.095797
O13   O     O_R   0.292369 0.388960 0.980922 -0.402975
O14   O     O_R   0.334850 0.293902 0.101364 -0.387904
N6    N     N_R   0.397915 0.653074 0.937573 0.103580
O15   O     O_R   0.338266 0.646536 0.018387 -0.402931
O16   O     O_R   0.398357 0.729336 0.893647 -0.360462
O17   O     O_3   0.208118 0.700555 0.478413 -0.603358
C45   C     C_3   0.133899 0.769478 0.516596 0.053431
H19   H     H_    0.033630 0.754995 0.506487 0.157064
H20   H     H_    0.155396 0.834081 0.482206 0.171687
C46   C     C_3   0.160759 0.777489 0.624479 -0.702061
H21   H     H_    0.259629 0.793933 0.636844 0.253785
H22   H     H_    0.101967 0.830806 0.656070 0.211896
H23   H     H_    0.140498 0.713864 0.661101 0.248366
O18   O     O_3   0.843776 0.288717 0.508103 -0.609158
C47   C     C_3   0.939935 0.226410 0.491088 0.070668
H24   H     H_    0.904074 0.158107 0.499810 0.202737
H25   H     H_    0.021551 0.235214 0.540439 0.126201
C48   C     C_3   0.985214 0.237492 0.388178 -0.706975
H26   H     H_    0.026328 0.304197 0.379751 0.229109
H27   H     H_    0.056795 0.186226 0.372092 0.220471
H28   H     H_    0.907032 0.230543 0.336062 0.274795
O19   O     O_3   0.015928 0.524007 0.225850 -0.588747
C49   C     C_3   0.094582 0.452906 0.199587 0.083381
H29   H     H_    0.147007 0.427878 0.263987 0.144449
H30   H     H_    0.160529 0.473080 0.142542 0.175805
C50   C     C_3   0.016561 0.377861 0.159229 -0.712530
H31   H     H_    0.968620 0.399591 0.091707 0.231312
H32   H     H_    0.076578 0.319563 0.142833 0.245019
H33   H     H_    0.946202 0.358301 0.212797 0.246093
O20   O     O_3   0.933083 0.486346 0.773514 -0.575845
C51   C     C_3   0.025736 0.472980 0.845177 0.060075
H34   H     H_    0.087902 0.415526 0.827961 0.163449
H35   H     H_    0.982536 0.462507 0.916762 0.155543
C52   C     C_3   0.105248 0.555303 0.851908 -0.681767
H36   H     H_    0.046921 0.614326 0.868983 0.250482
H37   H     H_    0.175746 0.546436 0.910129 0.245213
H38   H     H_    0.152866 0.566234 0.782209 0.235515
O21   O     O_3   0.343789 0.042905 0.606160 -0.590618
C53   C     C_3   0.327665 0.071211 0.702783 0.071324
H39   H     H_    0.266055 0.130722 0.705235 0.139842
H40   H     H_    0.417710 0.086105 0.739210 0.186805
C54   C     C_3   0.265709 0.997735 0.759007 -0.686025
H41   H     H_    0.323130 0.936203 0.756624 0.277742
H42   H     H_    0.254231 0.018327 0.835592 0.213395
H43   H     H_    0.173170 0.983943 0.727024 0.236870
O22   O     O_3   0.459044 0.958449 0.336696 -0.586365
C55   C     C_3   0.509412 0.925756 0.249493 0.060228
H44   H     H_    0.454630 0.868819 0.222182 0.143903
H45   H     H_    0.608507 0.905606 0.258606 0.180983
C56   C     C_3   0.501610 0.998368 0.173408 -0.650450
H46   H     H_    0.553813 0.057363 0.198107 0.275585
H47   H     H_    0.541616 0.973853 0.104551 0.211262
H48   H     H_    0.403442 0.017994 0.160346 0.247183

loop_
_geom_bond_atom_site_label_1
_geom_bond_atom_site_label_2
_geom_bond_distance
_ccdc_geom_bond_type
C36   C38   1.405491 A    
N2    C40   1.365204 A    
O17   C45   1.410029 S    
C7    O17   1.383264 S    
C13   H5    1.082832 S    
C52   H37   1.109202 S    
C8    O18   1.381462 S    
C49   H29   1.114065 S    
O18   C47   1.413591 S    
O7    Cu2   1.962447 S    
C56   H48   1.110820 S    
C55   H44   1.111532 S    
C49   H30   1.114282 S    
N5    O13   1.301139 A    
C54   H41   1.110418 S    
C27   C29   1.395098 A    
O2    C2    1.291627 A    
O5    C3    1.287050 A    
C1    C27   1.450137 S    
C30   C32   1.395493 A    
C2    C28   1.462201 S    
O1    C1    1.287770 A    
N6    O16   1.301728 A    
C17   H7    1.085388 S    
N4    O12   1.301615 A    
C35   H13   1.083072 S    
C39   C41   1.415079 A    
C36   H14   1.083181 S    
C9    C22   1.486159 S    
C47   C48   1.520007 S    
O4    Cu1   1.949632 S    
C10   C21   1.481542 S    
C43   C44   1.508125 S    
C35   C43   1.407496 A    
C4    C19   1.445532 S    
C37   H15   1.081693 S    
C23   C33   1.410618 A    
C38   H16   1.078653 S    
C24   C34   1.409690 A    
O20   C51   1.413628 S    
C26   H10   1.079608 S    
C29   H11   1.083353 S    
C47   H25   1.117935 S    
C30   H12   1.083264 S    
C50   H31   1.110687 S    
C6    H4    1.081907 S    
C53   C54   1.521144 S    
C40   C42   1.415249 A    
C28   C30   1.398713 A    
C18   C20   1.398746 A    
Cu1   Cu2   2.666242 S    
C23   C25   1.402901 A    
C31   N3    1.440907 S    
C24   C26   1.403095 A    
C51   H35   1.111471 S    
C51   H34   1.116536 S    
N5    O14   1.301385 A    
C53   H40   1.115606 S    
Cu1   N2    2.002929 S    
C31   C33   1.415759 A    
C32   C34   1.415644 A    
C17   C22   1.388778 A    
C38   N2    1.362222 A    
C13   C15   1.393247 A    
C18   C21   1.386923 A    
C14   C16   1.396957 A    
N6    O15   1.300733 A    
C42   C44   1.420550 A    
C46   H21   1.111043 S    
C41   C43   1.420035 A    
N4    O11   1.301070 A    
C11   O19   1.381401 S    
C54   H43   1.110595 S    
N1    C39   1.363615 A    
C17   C19   1.394873 A    
C39   H17   1.081467 S    
C3    C20   1.446359 S    
N3    O9    1.301377 A    
C37   N1    1.362876 A    
C46   H22   1.110216 S    
C25   H9    1.082351 S    
C48   H26   1.111313 S    
C45   C46   1.520979 S    
O6    C4    1.287289 A    
C52   H38   1.111117 S    
C47   H24   1.111996 S    
C33   C34   1.468878 S    
C23   O21   1.390876 S    
H1    C15   1.082509 S    
N3    O10   1.301233 A    
C49   C50   1.520391 S    
C42   N6    1.440738 S    
O3    Cu2   1.949632 S    
O8    C4    1.284766 A    
C24   O22   1.393437 S    
O4    C2    1.289708 A    
C48   H27   1.110705 S    
C45   H20   1.113123 S    
O7    C3    1.285610 A    
C11   C13   1.401047 A    
C5    C15   1.393607 A    
C50   H33   1.110351 S    
C8    C10   1.407310 A    
O1    Cu1   1.948431 S    
O22   C55   1.413453 S    
C55   C56   1.521066 S    
O3    C1    1.287636 A    
C53   H39   1.111410 S    
C36   C44   1.406939 A    
O6    Cu2   1.957787 S    
C6    C8    1.401903 A    
C10   C12   1.408841 A    
C56   H47   1.110539 S    
O8    Cu1   1.962444 S    
C55   H45   1.115444 S    
O21   C53   1.413268 S    
C35   C37   1.405847 A    
H2    C16   1.082389 S    
C12   C14   1.410765 A    
C7    C9    1.411530 A    
C19   C21   1.408418 A    
C46   H23   1.111078 S    
C20   C22   1.412830 A    
C50   H32   1.110388 S    
C29   C31   1.395276 A    
C14   H6    1.081835 S    
C5    H3    1.079807 S    
Cu2   N1    2.002927 S    
C18   H8    1.085349 S    
C9    C11   1.414746 A    
C56   H46   1.110042 S    
O2    Cu2   1.948431 S    
C5    C7    1.405375 A    
C54   H42   1.110447 S    
C26   C28   1.396521 A    
O5    Cu1   1.957787 S    
C48   H28   1.109920 S    
C6    C16   1.394949 A    
C45   H19   1.115147 S    
C40   H18   1.080453 S    
O19   C49   1.409313 S    
C41   N5    1.439508 S    
C25   C27   1.394673 A    
C12   O20   1.387816 S    
C51   C52   1.520186 S    
C52   H36   1.110631 S    
C32   N4    1.441668 S    
