data_mof_unit_43195.cif
_audit_creation_date              2013-03-05T15:50:41-0500
_audit_creation_method            fapswitch 2.2
_symmetry_space_group_name_H-M    P1
_symmetry_Int_Tables_number       1
_space_group_crystal_system       triclinic
_cell_length_a                    15.136835
_cell_length_b                    10.854506
_cell_length_c                    9.646263
_cell_angle_alpha                 93.27041
_cell_angle_beta                  92.459632
_cell_angle_gamma                 95.139377
_cell_volume                      1574.12689963

loop_
_atom_site_label
_atom_site_type_symbol
_atom_site_description
_atom_site_fract_x
_atom_site_fract_y
_atom_site_fract_z
_atom_type_partial_charge
O1    O     O_R   0.499990 0.319640 0.618810 -0.588022
O2    O     O_R   0.500000 0.319660 0.381240 -0.556943
C1    C     C_R   0.503310 0.261711 0.496221 0.851445
O3    O     O_R   0.370250 0.499960 0.618800 -0.554942
O4    O     O_R   0.370260 0.499980 0.381230 -0.553847
C2    C     C_R   0.328845 0.497532 0.497068 0.845946
Cu1   Cu    Cu3+1 0.499990 0.499990 0.640660 1.045597
Cu2   Cu    Cu3+1 0.500010 0.500010 0.359340 1.076723
O5    O     O_R   0.500000 0.680340 0.618760 -0.581915
O6    O     O_R   0.500010 0.680360 0.381190 -0.518150
O7    O     O_R   0.629740 0.500020 0.618770 -0.554859
O8    O     O_R   0.629750 0.500040 0.381200 -0.564271
C3    C     C_R   0.484012 0.734179 0.503377 0.985874
C4    C     C_R   0.670667 0.489288 0.501614 0.953191
C5    C     C_R   0.824038 0.593280 0.563342 0.442182
C6    C     C_R   0.768599 0.491815 0.502732 -0.116304
C7    C     C_R   0.806169 0.396747 0.428539 -0.179027
C8    C     C_R   0.898989 0.396337 0.422544 0.020766
C9    C     C_R   0.953559 0.501777 0.479009 -0.065534
C10   C     C_R   0.915170 0.605544 0.538383 -0.039658
C11   C     C_R   0.939092 0.294455 0.361531 0.396794
C12   C     C_R   0.031933 0.296448 0.364711 -0.202249
C13   C     C_R   0.085885 0.398995 0.423625 0.064247
C14   C     C_R   0.046853 0.503355 0.477738 0.036813
C15   C     C_R   0.101194 0.609151 0.531799 -0.024296
C16   C     C_R   0.061717 0.716260 0.573037 -0.158566
C17   C     C_R   0.970199 0.716767 0.572808 0.434152
C18   C     C_R   0.178537 0.398820 0.429064 -0.247101
C19   C     C_R   0.232317 0.500940 0.489944 -0.100934
C20   C     C_R   0.193875 0.607023 0.539502 0.396349
H1    H     H_    0.761713 0.320989 0.381782 0.191318
H2    H     H_    0.062640 0.217621 0.320930 0.201214
H3    H     H_    0.209021 0.318455 0.388301 0.170629
H4    H     H_    0.101297 0.802301 0.603145 0.235630
C21   C     C_R   0.597845 0.128629 0.709444 0.424292
C22   C     C_R   0.600452 0.089432 0.844015 -0.168260
H5    H     H_    0.644676 0.138521 0.924042 0.221025
C23   C     C_R   0.544114 0.988798 0.876628 -0.232143
H6    H     H_    0.540575 0.966485 0.983897 0.211561
C24   C     C_R   0.496035 0.914159 0.771332 0.434308
C25   C     C_R   0.500078 0.946602 0.630622 -0.080879
C26   C     C_R   0.536052 0.067668 0.607739 -0.099348
C27   C     C_R   0.505859 0.125012 0.488758 -0.163094
C28   C     C_R   0.459598 0.051054 0.378348 0.290204
C29   C     C_R   0.437857 0.923414 0.391884 0.273094
C30   C     C_R   0.467757 0.868076 0.512729 -0.161493
H7    H     H_    0.400582 0.352822 0.111794 0.174163
C31   C     C_R   0.623854 0.699360 0.150971 0.245339
C32   C     C_R   0.665653 0.785055 0.058972 0.368977
C33   C     C_R   0.656592 0.767141 0.920090 -0.272091
H8    H     H_    0.688616 0.833012 0.853322 0.260331
C34   C     C_R   0.608938 0.666998 0.861308 -0.142052
H9    H     H_    0.613029 0.661025 0.754096 0.269420
C35   C     C_R   0.556399 0.584992 0.932913 0.189121
C36   C     C_R   0.559292 0.591912 0.084957 0.081970
N1    N     N_R   0.500860 0.501210 0.147910 -0.184477
C37   C     C_R   0.445838 0.418915 0.064558 0.038256
H10   H     H_    0.401105 0.352092 0.855707 0.143849
C38   C     C_R   0.445921 0.418960 0.917508 0.032050
N2    N     N_R   0.500890 0.501290 0.852040 -0.185820
Cl1   Cl    Cl    0.783327 0.691492 0.690031 -0.523989
Cl2   Cl    Cl    0.682599 0.239397 0.667840 -0.586397
Cl3   Cl    Cl    0.417317 0.801908 0.828069 -0.439787
S1    S     S_3+6 0.367078 0.835977 0.261348 0.127607
O9    O     O_2   0.319796 0.724471 0.318708 -0.252677
O10   O     O_2   0.298145 0.912993 0.203479 -0.150864
O11   O     O_3   0.428550 0.787923 0.132336 -0.447416
H11   H     H_    0.484687 0.842121 0.144084 0.332470
S2    S     S_3+6 0.672299 0.763157 0.321747 0.071004
O12   O     O_2   0.652939 0.715962 0.459333 -0.317484
O13   O     O_2   0.771550 0.765625 0.314022 -0.182533
O14   O     O_3   0.645063 0.910391 0.337892 -0.524758
H12   H     H_    0.675994 0.946570 0.425444 0.415831
Cl4   Cl    Cl    0.738518 0.922517 0.098642 -0.383053
S3    S     S_3+6 0.875682 0.163198 0.280310 0.107046
O15   O     O_2   0.934603 0.070510 0.222331 -0.159899
O16   O     O_2   0.818320 0.102888 0.385460 -0.221335
O17   O     O_3   0.811716 0.209629 0.149490 -0.482214
H13   H     H_    0.749508 0.189001 0.174147 0.371139
Cl5   Cl    Cl    0.261837 0.738457 0.607831 -0.514438
Cl6   Cl    Cl    0.930787 0.864804 0.595140 -0.374973
Cl7   Cl    Cl    0.434384 0.114706 0.217621 -0.573834

loop_
_geom_bond_atom_site_label_1
_geom_bond_atom_site_label_2
_geom_bond_distance
_ccdc_geom_bond_type
C31   C36   1.542213 A    
C36   N1    1.441755 A    
C24   C25   1.424044 A    
C8    C11   1.419327 A    
C25   C26   1.409730 A    
C9    C10   1.416525 A    
C31   S2    1.845593 S    
S3    O15   1.503277 D    
Cu2   N1    2.040880 S    
Cu1   Cu2   2.713712 S    
C35   N2    1.366066 A    
C29   C30   1.416970 A    
C28   C29   1.409802 A    
Cu1   O7    1.984284 S    
C1    C27   1.485481 S    
C16   C17   1.385702 A    
C24   Cl3   1.753813 S    
C12   H2    1.083227 S    
C22   H5    1.082945 S    
C28   Cl7   1.773547 S    
C3    C30   1.494003 S    
O7    C4    1.316253 A    
C37   C38   1.418571 A    
C5    C6    1.406360 A    
N1    C37   1.365778 A    
C8    C9    1.417654 A    
S2    O13   1.505316 D    
C21   C26   1.418280 A    
O5    C3    1.309702 A    
C16   H4    1.081384 S    
C21   C22   1.388986 A    
C6    C7    1.398664 A    
C33   C34   1.333234 A    
C25   C30   1.423408 A    
C20   Cl5   1.760576 S    
C38   N2    1.366026 A    
C32   Cl4   1.786898 S    
C11   C12   1.402535 A    
O3    Cu1   1.966093 S    
C34   C35   1.375639 A    
C33   H8    1.085477 S    
C5    C10   1.406368 A    
O11   H11   0.987700 S    
S1    O11   1.672987 S    
C17   Cl6   1.768511 S    
C23   H6    1.078544 S    
C14   C15   1.411705 A    
O3    C2    1.304882 A    
O17   H13   0.990399 S    
C15   C16   1.399668 A    
O1    C1    1.312320 A    
S1    O10   1.502910 D    
S2    O14   1.686253 S    
C27   C28   1.416626 A    
C19   C20   1.405037 A    
H7    C37   1.080550 S    
Cu2   O8    1.966092 S    
C7    C8    1.409074 A    
C5    Cl1   1.744520 S    
C13   C18   1.401369 A    
S3    O16   1.503596 D    
C31   C32   1.445698 A    
O8    C4    1.308841 A    
C18   H3    1.084910 S    
C7    H1    1.079324 S    
C4    C6    1.479748 S    
C26   C27   1.414575 A    
Cu1   N2    2.037722 S    
C34   H9    1.037374 S    
C15   C20   1.404009 A    
Cu1   O5    1.980908 S    
C35   C36   1.462865 A    
C18   C19   1.399744 A    
O1    Cu1   1.956933 S    
O2    Cu2   1.980910 S    
O14   H12   0.990945 S    
O6    C3    1.326794 A    
O4    Cu2   1.984284 S    
C10   C17   1.418427 A    
C11   S3    1.768635 S    
C29   S1    1.788802 S    
S1    O9    1.496167 D    
C22   C23   1.383746 A    
O2    C1    1.307222 A    
H10   C38   1.081705 S    
C23   C24   1.398104 A    
O4    C2    1.304928 A    
C9    C14   1.411326 A    
C21   Cl2   1.753682 S    
S2    O12   1.481148 D    
S3    O17   1.684947 S    
C13   C14   1.408413 A    
C2    C19   1.463674 S    
Cu2   O6    1.956932 S    
C32   C33   1.342054 A    
C12   C13   1.397870 A    
