data_mof_unit_61266.cif
_audit_creation_date              2013-03-05T15:54:44-0500
_audit_creation_method            fapswitch 2.2
_symmetry_space_group_name_H-M    P1
_symmetry_Int_Tables_number       1
_space_group_crystal_system       triclinic
_cell_length_a                    18.693702
_cell_length_b                    18.857522
_cell_length_c                    18.927313
_cell_angle_alpha                 109.888562
_cell_angle_beta                  109.407685
_cell_angle_gamma                 109.366057
_cell_volume                      5120.33980757

loop_
_atom_site_label
_atom_site_type_symbol
_atom_site_description
_atom_site_fract_x
_atom_site_fract_y
_atom_site_fract_z
_atom_type_partial_charge
O1    O     O_R   0.090150 0.142360 0.552170 -0.560405
O2    O     O_R   0.090180 0.037990 0.447810 -0.522609
C1    C     C_R   0.117174 0.119284 0.498496 0.872314
O3    O     O_R   0.090170 0.052200 0.642360 -0.569926
O4    O     O_R   0.090200 0.947840 0.538010 -0.555026
C2    C     C_R   0.122530 0.003466 0.618205 0.836683
Cu1   Cu    Cu3+1 0.999980 0.061790 0.561790 1.100778
Cu2   Cu    Cu3+1 0.000020 0.938210 0.438210 1.083487
O5    O     O_R   0.909820 0.962010 0.552190 -0.544334
O6    O     O_R   0.909850 0.857640 0.447830 -0.594828
O7    O     O_R   0.909800 0.052160 0.461990 -0.559674
O8    O     O_R   0.909830 0.947800 0.357640 -0.579011
C3    C     C_R   0.880178 0.881128 0.499027 0.853407
C4    C     C_R   0.881287 0.000336 0.381164 0.808822
H1    H     H_    0.095547 0.888509 0.667977 0.172822
C5    C     C_R   0.316077 0.125568 0.702562 0.254589
C6    C     C_R   0.396537 0.202763 0.761557 -0.077854
H2    H     H_    0.424960 0.245709 0.740487 0.181564
C7    C     C_R   0.442181 0.223302 0.847052 -0.168057
H3    H     H_    0.503166 0.284316 0.893362 0.162292
C8    C     C_R   0.413012 0.161934 0.870910 -0.128834
H4    H     H_    0.451460 0.178919 0.937251 0.151741
C9    C     C_R   0.335014 0.080731 0.809951 0.028031
C10   C     C_R   0.279293 0.070151 0.730910 0.038227
C11   C     C_R   0.190769 0.003320 0.683347 -0.110510
C12   C     C_R   0.163732 0.939617 0.704923 -0.211837
C13   C     C_R   0.223534 0.939096 0.771639 0.298355
C14   C     C_R   0.311532 0.009150 0.824142 -0.183445
C15   C     C_R   0.177250 0.178388 0.419139 0.236331
C16   C     C_R   0.241879 0.242627 0.419876 -0.173151
H5    H     H_    0.237061 0.235819 0.359008 0.180857
C17   C     C_R   0.313180 0.314802 0.498660 -0.107158
C18   C     C_R   0.318892 0.325142 0.577129 -0.184624
H6    H     H_    0.373402 0.382444 0.637956 0.176554
C19   C     C_R   0.253497 0.263428 0.577786 0.261537
C20   C     C_R   0.183276 0.187610 0.498453 -0.127359
C21   C     C_R   0.743162 0.921579 0.241735 -0.105806
H7    H     H_    0.736706 0.860032 0.234991 0.154001
C22   C     C_R   0.678642 0.921624 0.178275 -0.149203
H8    H     H_    0.623141 0.860100 0.122795 0.150616
C23   C     C_R   0.686765 0.000751 0.185722 -0.011423
C24   C     C_R   0.758913 0.079893 0.257638 -0.111965
H9    H     H_    0.765412 0.141391 0.264180 0.161556
C25   C     C_R   0.821959 0.079837 0.322633 -0.131506
H10   H     H_    0.877160 0.141311 0.378456 0.154711
C26   C     C_R   0.814532 0.000655 0.314402 0.004219
C27   C     C_R   0.822536 0.744193 0.498920 -0.265141
H11   H     H_    0.879473 0.740885 0.499341 0.198194
C28   C     C_R   0.759903 0.678032 0.498488 0.348531
C29   C     C_R   0.686429 0.683583 0.498397 -0.183652
C30   C     C_R   0.676029 0.753385 0.497080 -0.229231
H12   H     H_    0.618766 0.756402 0.495952 0.203735
C31   C     C_R   0.737702 0.818565 0.495694 0.343554
C32   C     C_R   0.812032 0.813920 0.497532 -0.191518
O9    O     O_R   0.447850 0.857690 0.909890 -0.545242
O10   O     O_R   0.552230 0.962090 0.909900 -0.579730
C33   C     C_R   0.498953 0.881144 0.880172 0.843236
O11   O     O_R   0.357630 0.947820 0.909860 -0.524665
O12   O     O_R   0.462000 0.052220 0.909860 -0.594047
C34   C     C_R   0.380281 0.003812 0.885376 0.815018
Cu3   Cu    Cu3+1 0.438200 0.938230 0.000040 1.109089
Cu4   Cu    Cu3+1 0.561800 0.061850 0.000040 1.010976
O13   O     O_R   0.447770 0.037990 0.090190 -0.549338
O14   O     O_R   0.552150 0.142390 0.090190 -0.594489
O15   O     O_R   0.538000 0.947860 0.090220 -0.561882
O16   O     O_R   0.642370 0.052260 0.090230 -0.587313
C35   C     C_R   0.500533 0.118807 0.119331 0.802742
C36   C     C_R   0.619291 0.000404 0.118996 0.791243
O17   O     O_R   0.447810 0.590260 0.538090 -0.584713
O18   O     O_R   0.552200 0.590240 0.642450 -0.554058
C37   C     C_R   0.501353 0.620365 0.618802 0.850108
O19   O     O_R   0.357640 0.409920 0.447920 -0.584738
O20   O     O_R   0.462030 0.409900 0.552280 -0.585481
C38   C     C_R   0.380859 0.380950 0.499285 0.795223
Cu5   Cu    Cu3+1 0.438190 0.500100 0.438300 1.018419
Cu6   Cu    Cu3+1 0.561810 0.500080 0.561880 1.098669
O21   O     O_R   0.447800 0.409940 0.357730 -0.598162
O22   O     O_R   0.552190 0.409920 0.462090 -0.560441
O23   O     O_R   0.537970 0.590270 0.447900 -0.598220
O24   O     O_R   0.642360 0.590260 0.552260 -0.515489
C39   C     C_R   0.500122 0.381055 0.381191 0.821506
C40   C     C_R   0.619177 0.617753 0.499242 0.903062
C41   C     C_R   0.579125 0.823941 0.821569 -0.262793
H13   H     H_    0.639666 0.880334 0.877764 0.196755
C42   C     C_R   0.582364 0.762227 0.758019 0.348857
C43   C     C_R   0.502785 0.689278 0.685187 -0.181989
C44   C     C_R   0.422406 0.680671 0.675968 -0.233615
H14   H     H_    0.361419 0.625007 0.619665 0.191985
C45   C     C_R   0.419687 0.742571 0.739244 0.284250
C46   C     C_R   0.498617 0.814375 0.812770 -0.147935
C47   C     C_R   0.478047 0.243387 0.169652 -0.209168
H15   H     H_    0.459686 0.238552 0.106813 0.140966
C48   C     C_R   0.476622 0.306816 0.232843 -0.126983
H16   H     H_    0.457841 0.350879 0.218356 0.165313
C49   C     C_R   0.500665 0.313969 0.314470 -0.058160
C50   C     C_R   0.525743 0.256934 0.332266 -0.154150
H17   H     H_    0.544540 0.262056 0.395222 0.185431
C51   C     C_R   0.525586 0.192173 0.268608 0.256517
C52   C     C_R   0.501551 0.185548 0.186991 -0.061114
Br1   Br    Br    0.265702 0.287830 0.689779 -0.481395
N1    N     N_R   0.770187 0.604708 0.494515 0.138596
O25   O     O_R   0.848204 0.615383 0.532403 -0.298813
O26   O     O_R   0.703497 0.525852 0.442605 -0.365030
N2    N     N_R   0.721990 0.886316 0.488886 0.139468
O27   O     O_R   0.737502 0.911970 0.437188 -0.360265
O28   O     O_R   0.680054 0.913183 0.524014 -0.303882
Br2   Br    Br    0.278153 0.084994 0.582255 -0.469680
N3    N     N_R   0.666126 0.776466 0.766752 0.139840
O29   O     O_R   0.677058 0.761047 0.699795 -0.353727
O30   O     O_R   0.734626 0.816893 0.843502 -0.315799
Br3   Br    Br    0.306810 0.728061 0.719391 -0.389373
Br4   Br    Br    0.561923 0.116750 0.296911 -0.443254
Br5   Br    Br    0.176715 0.839881 0.784923 -0.347985
Br6   Br    Br    0.079652 0.082968 0.307766 -0.443575

loop_
_geom_bond_atom_site_label_1
_geom_bond_atom_site_label_2
_geom_bond_distance
_ccdc_geom_bond_type
O16   C36   1.295139 A    
C44   H14   1.084008 S    
C48   H16   1.083238 S    
O19   C38   1.292363 A    
C23   C24   1.400720 A    
C49   C50   1.402124 A    
C4    C26   1.454736 S    
C15   Br6   1.922546 S    
O23   C40   1.293298 A    
N2    O28   1.301522 A    
Cu1   Cu2   2.682445 S    
C22   C23   1.400670 A    
C31   C32   1.410765 A    
N3    O29   1.301232 A    
Cu1   O7    1.972390 S    
C15   C20   1.411909 A    
C12   C13   1.386345 A    
N1    O25   1.301464 A    
C7    C8    1.393267 A    
C21   H7    1.083502 S    
Cu6   O22   1.969013 S    
O19   Cu5   1.971573 S    
C17   C38   1.445725 S    
C16   H5    1.083795 S    
C39   C49   1.457863 S    
O7    C4    1.294199 A    
C2    C11   1.451499 S    
C31   N2    1.439053 S    
O11   C34   1.294491 A    
O10   C33   1.293640 A    
Cu3   O13   1.967847 S    
O20   C38   1.293504 A    
O17   C37   1.294131 A    
O5    C3    1.292517 A    
Cu4   O14   1.968184 S    
C5    Br2   1.911840 S    
C6    C7    1.390464 A    
C41   H13   1.084104 S    
N3    O30   1.301546 A    
C5    C6    1.397870 A    
C50   C51   1.391851 A    
C9    C10   1.409391 A    
O18   C37   1.294186 A    
C42   N3    1.438801 S    
C35   C52   1.447653 S    
O11   Cu3   1.974021 S    
O12   C34   1.303290 A    
C5    C10   1.415244 A    
C8    H4    1.081540 S    
C24   C25   1.393021 A    
O3    Cu1   1.970270 S    
N2    O27   1.301226 A    
C25   C26   1.401074 A    
C29   C30   1.399937 A    
C23   C36   1.454732 S    
C14   C34   1.476623 S    
O13   C35   1.292015 A    
C51   Br4   1.920552 S    
C33   C46   1.452382 S    
Cu4   O16   1.974143 S    
C30   H12   1.084250 S    
O14   C35   1.291908 A    
C10   C11   1.411418 A    
O24   C40   1.295212 A    
C22   H8    1.083473 S    
C43   C44   1.399752 A    
H1    C12   1.084849 S    
C11   C12   1.390520 A    
C42   C43   1.412588 A    
O1    C1    1.289462 A    
C19   C20   1.416578 A    
Cu5   Cu6   2.687076 S    
C15   C16   1.390674 A    
C47   C48   1.389552 A    
C37   C43   1.453229 S    
C27   H11   1.084226 S    
O21   C39   1.296065 A    
Cu2   O8    1.970270 S    
O15   C36   1.293001 A    
C50   H17   1.083343 S    
C6    H2    1.082769 S    
C9    C14   1.420903 A    
Cu5   O21   1.966989 S    
C27   C32   1.399811 A    
C13   Br5   1.926145 S    
O3    C2    1.298517 A    
C41   C42   1.395562 A    
O8    C4    1.293346 A    
C28   C29   1.411167 A    
C8    C9    1.414631 A    
O18   Cu6   1.966988 S    
O20   Cu6   1.965956 S    
O10   Cu4   1.967750 S    
C24   H9    1.083443 S    
C19   Br1   1.924151 S    
C47   H15   1.083930 S    
C25   H10   1.083403 S    
C29   C40   1.453838 S    
C3    C32   1.452844 S    
N1    O26   1.301239 A    
Cu1   O5    1.968436 S    
C41   C46   1.399359 A    
O12   Cu4   1.968526 S    
O1    Cu1   1.968899 S    
Cu2   O6    1.968899 S    
O2    Cu2   1.968436 S    
Cu6   O24   1.971569 S    
O6    C3    1.292670 A    
O4    Cu2   1.972392 S    
C27   C28   1.394794 A    
C45   Br3   1.920595 S    
C47   C52   1.398543 A    
C17   C18   1.392506 A    
C7    H3    1.082413 S    
O9    C33   1.292580 A    
O2    C1    1.299888 A    
C45   C46   1.405522 A    
C21   C22   1.391405 A    
C16   C17   1.395606 A    
O22   C39   1.295896 A    
O4    C2    1.286914 A    
C1    C20   1.460319 S    
O9    Cu3   1.968186 S    
C18   C19   1.387586 A    
C18   H6    1.084024 S    
O17   Cu5   1.969012 S    
Cu3   Cu4   2.683422 S    
Cu3   O15   1.968528 S    
C48   C49   1.401317 A    
C51   C52   1.405017 A    
C13   C14   1.420537 A    
C44   C45   1.388568 A    
C30   C31   1.393871 A    
C21   C26   1.400336 A    
Cu5   O23   1.965858 S    
C28   N1    1.438623 S    
