data_mof_unit_53570.cif
_audit_creation_date              2012-12-10T18:46:21-0500
_audit_creation_method            fapswitch 2.2
_symmetry_space_group_name_H-M    P1
_symmetry_Int_Tables_number       1
_space_group_crystal_system       triclinic
_cell_length_a                    9.855463
_cell_length_b                    10.650288
_cell_length_c                    13.272528
_cell_angle_alpha                 90.293338
_cell_angle_beta                  70.877587
_cell_angle_gamma                 90.415543
_cell_volume                      1316.21926685

loop_
_atom_site_label
_atom_site_type_symbol
_atom_type_description
_atom_site_fract_x
_atom_site_fract_y
_atom_site_fract_z
_atom_type_partial_charge
C1    C     C_R   0.500147 0.739949 0.500264 0.992294
C2    C     C_R   0.474801 0.554913 0.960868 -0.008161
C3    C     C_R   0.465374 0.485004 0.873193 0.080807
C4    C     C_R   0.558133 0.506621 0.020328 -0.018733
C5    C     C_R   0.659348 0.410564 0.975428 0.106595
C6    C     C_R   0.654748 0.346420 0.884967 -0.235161
C7    C     C_R   0.551252 0.377011 0.839515 -0.180883
C8    C     C_R   0.532510 0.540058 0.127643 0.453360
C9    C     C_R   0.741037 0.417745 0.127824 -0.282867
C10   C     C_R   0.378779 0.529499 0.815424 -0.175735
C11   C     C_R   0.555021 0.937013 0.571389 0.388893
C12   C     C_R   0.421453 0.500422 0.703031 0.883472
C13   C     C_R   0.554934 0.066779 0.570217 -0.325745
C14   C     C_R   0.497780 0.128365 0.501317 -0.110764
C15   C     C_R   0.439457 0.064681 0.433363 -0.294753
C16   C     C_R   0.437959 0.935108 0.433524 0.448468
C17   C     C_R   0.499304 0.872745 0.500966 -0.202223
C18   C     C_R   0.952920 0.413041 0.442327 -0.206734
C19   C     C_R   0.095844 0.411744 0.443874 -0.115988
C20   C     C_R   0.047218 0.586252 0.558534 -0.214086
C21   C     C_R   0.900996 0.584327 0.561540 0.601159
C22   C     C_R   0.499448 0.260312 0.500124 0.900938
C23   C     C_R   0.578471 0.502394 0.296534 0.929929
C24   C     C_R   0.756282 0.373291 0.026217 -0.201892
C25   C     C_R   0.623959 0.493695 0.181020 -0.151863
C26   C     C_R   0.293219 0.635936 0.849766 -0.277542
C27   C     C_R   0.311437 0.710954 0.930785 0.571897
C28   C     C_R   0.405350 0.672688 0.983474 -0.266877
H1    H     H_    0.810744 0.381376 0.169069 0.175156
H2    H     H_    0.597169 0.119727 0.623503 0.142867
H3    H     H_    0.399347 0.115590 0.378528 0.158229
H4    H     H_    0.918777 0.343950 0.395482 0.159300
H5    H     H_    0.169423 0.341033 0.398837 0.137858
H6    H     H_    0.084167 0.656155 0.603061 0.136963
H7    H     H_    0.725597 0.268035 0.853047 0.144130
H8    H     H_    0.837986 0.303952 0.990250 0.153045
H9    H     H_    0.227500 0.670384 0.804512 0.160384
H10   H     H_    0.424385 0.737117 0.040624 0.219295
H11   H     H_    0.543237 0.318729 0.774559 0.135071
N1    N     N_R   0.142790 0.500030 0.500030 -0.088903
N2    N     N_R   0.857180 0.499940 0.500010 -0.116551
O1    O     O_R   0.385370 0.683250 0.500010 -0.612998
O2    O     O_R   0.614700 0.683220 0.500010 -0.536585
O3    O     O_R   0.328400 0.499990 0.653620 -0.627115
O4    O     O_R   0.557730 0.499960 0.653620 -0.575183
O5    O     O_R   0.385300 0.316780 0.499990 -0.630285
O6    O     O_R   0.614630 0.316750 0.499990 -0.630643
O7    O     O_R   0.442270 0.500040 0.346380 -0.576379
O8    O     O_R   0.671600 0.500010 0.346380 -0.638612
Zn1   Zn    Zn3+2 0.346870 0.500020 0.500000 0.958307
Zn2   Zn    Zn3+2 0.653130 0.499980 0.500000 0.997449
O9    O     O_3   0.391916 0.868618 0.360483 -0.578183
C29   C     C_3   0.242195 0.882958 0.385681 -0.194452
H12   H     H_    0.183427 0.861523 0.471034 0.141355
H13   H     H_    0.203951 0.815333 0.336926 0.201551
H14   H     H_    0.215398 0.978757 0.365583 0.136102
O10   O     O_3   0.802674 0.670663 0.621327 -0.545386
C30   C     C_3   0.797445 0.668226 0.728923 -0.260523
H15   H     H_    0.694507 0.710210 0.778763 0.210870
H16   H     H_    0.885449 0.726219 0.740243 0.135239
H17   H     H_    0.800538 0.570969 0.758631 0.153232
O11   O     O_3   0.411921 0.608614 0.184606 -0.595734
C31   C     C_3   0.286340 0.533564 0.204533 -0.218204
H18   H     H_    0.201419 0.574345 0.273583 0.191660
H19   H     H_    0.302624 0.434261 0.223698 0.137550
H20   H     H_    0.244410 0.534560 0.136717 0.154848
O12   O     O_3   0.239111 0.823190 0.958153 -0.603398
C32   C     C_3   0.313360 0.915586 0.884507 -0.311927
H21   H     H_    0.311058 0.894255 0.802904 0.173046
H22   H     H_    0.426259 0.926577 0.883572 0.161359
H23   H     H_    0.259104 0.007003 0.909131 0.190633
O13   O     O_3   0.604672 0.871380 0.641682 -0.734691
H24   H     H_    0.638711 0.931610 0.685543 0.322445

loop_
_geom_bond_atom_site_label_1
_geom_bond_atom_site_label_2
_ccdc_geom_bond_type
C2    C4    A    
C31   H19   S    
C9    C24   A    
C15   H3    S    
C6    C7    A    
C12   O4    A    
C9    H1    S    
O6    Zn2   S    
C1    O2    A    
O5    Zn1   S    
C1    C17   S    
C14   C15   A    
C28   H10   S    
C4    C8    A    
C20   H6    S    
C10   C26   A    
C30   H17   S    
O7    Zn1   S    
C22   O6    A    
C26   C27   A    
C31   H20   S    
C9    C25   A    
C26   H9    S    
C3    C10   A    
C32   H21   S    
C13   C14   A    
C6    H7    S    
C21   O10   S    
C8    C25   A    
C11   C13   A    
C14   C22   S    
O10   C30   S    
C24   H8    S    
C5    C24   A    
C10   C12   S    
C13   H2    S    
O2    Zn2   S    
C32   H23   S    
N1    Zn1   S    
C32   H22   S    
C22   O5    A    
O1    Zn1   S    
C2    C3    A    
C3    C7    A    
C29   H13   S    
C5    C6    A    
C20   N1    A    
C21   N2    A    
C23   O8    A    
C27   O12   S    
C19   N1    A    
O4    Zn2   S    
C30   H16   S    
O12   C32   S    
C16   O9    S    
C1    O1    A    
C23   C25   S    
C18   H4    S    
O9    C29   S    
C18   N2    A    
O13   H24   S    
C12   O3    A    
C18   C19   A    
C19   H5    S    
C29   H14   S    
O3    Zn1   S    
C27   C28   A    
C7    H11   S    
C11   O13   S    
C4    C5    A    
C2    C28   A    
C23   O7    A    
C20   C21   A    
C31   H18   S    
C30   H15   S    
N2    Zn2   S    
C11   C17   A    
O11   C31   S    
C15   C16   A    
C29   H12   S    
C8    O11   S    
C16   C17   A    
O8    Zn2   S    
