data_mof_unit_61221.cif
_audit_creation_date              2012-10-26T19:44:43-0400
_audit_creation_method            fapswitch 2.2
_symmetry_space_group_name_H-M    P1
_symmetry_Int_Tables_number       1
_space_group_crystal_system       triclinic
_cell_length_a                    19.382513
_cell_length_b                    11.731784
_cell_length_c                    10.463992
_cell_angle_alpha                 89.999684
_cell_angle_beta                  89.999988
_cell_angle_gamma                 90.000024
_cell_volume                      2379.4223753

loop_
_atom_site_label
_atom_site_type_symbol
_atom_type_description
_atom_site_fract_x
_atom_site_fract_y
_atom_site_fract_z
_atom_type_partial_charge
C1    C     C_R   0.500000 0.283304 0.500000 0.552747
C2    C     C_1   0.500000 0.940272 0.500000 -0.023599
C3    C     C_1   0.500000 0.500000 0.072049 0.109340
C4    C     C_1   0.500000 0.500000 0.927951 0.109340
C5    C     C_R   0.254672 0.501103 0.615704 -0.132784
C6    C     C_R   0.745328 0.498904 0.384296 -0.132784
C7    C     C_R   0.745328 0.501097 0.615704 -0.132783
C8    C     C_R   0.254672 0.498899 0.384296 -0.132784
C9    C     C_R   0.182648 0.501162 0.616620 -0.024994
C10   C     C_R   0.817353 0.498846 0.383380 -0.024994
C11   C     C_R   0.817352 0.501156 0.616620 -0.024994
C12   C     C_R   0.500000 0.716695 0.500000 0.552747
C13   C     C_R   0.182647 0.498842 0.383380 -0.024994
C14   C     C_R   0.145812 0.500002 0.500000 0.010709
C15   C     C_R   0.854188 0.500001 0.500000 0.010709
C16   C     C_R   0.291088 0.500000 0.500000 -0.012537
C17   C     C_R   0.708911 0.500000 0.500000 -0.012537
C18   C     C_1   0.147901 0.506291 0.738700 0.231471
C19   C     C_1   0.852099 0.493724 0.261299 0.231471
C20   C     C_1   0.852099 0.506278 0.738701 0.231471
C21   C     C_1   0.147901 0.493716 0.261300 0.231471
C22   C     C_R   0.930213 0.500001 0.500000 0.337215
C23   C     C_R   0.069787 0.500002 0.500000 0.337215
C24   C     C_R   0.366987 0.500000 0.500000 0.548958
C25   C     C_R   0.633013 0.500000 0.500000 0.548958
C26   C     C_1   0.500000 0.161935 0.500000 -0.007372
C27   C     C_1   0.500000 0.838065 0.499999 -0.007372
C28   C     C_1   0.500000 0.059728 0.500000 -0.023599
Cu1   Cu    Cu3+1 0.500000 0.500000 0.625300 1.007312
Cu2   Cu    Cu3+1 0.500000 0.500000 0.374700 1.007312
H1    H     H_    0.282325 0.502564 0.705783 0.143481
H2    H     H_    0.717675 0.497446 0.294217 0.143480
H3    H     H_    0.717675 0.502555 0.705783 0.143480
H4    H     H_    0.282325 0.497437 0.294217 0.143481
N1    N     N_1   0.500000 0.500000 0.186410 -0.188621
N2    N     N_1   0.120101 0.489560 0.163531 -0.209389
N3    N     N_1   0.500000 0.500000 0.813590 -0.188621
N4    N     N_R   0.034305 0.574195 0.425405 -0.191777
N5    N     N_R   0.965695 0.425808 0.574595 -0.191778
N6    N     N_R   0.965695 0.574195 0.425405 -0.191777
N7    N     N_R   0.034305 0.425809 0.574596 -0.191777
N8    N     N_1   0.120101 0.510449 0.836468 -0.209389
N9    N     N_1   0.879899 0.489571 0.163530 -0.209387
N10   N     N_1   0.879899 0.510431 0.836470 -0.209387
O1    O     O_R   0.500000 0.337200 0.605810 -0.486255
O2    O     O_R   0.500000 0.662800 0.394190 -0.486255
O3    O     O_R   0.500000 0.662800 0.605810 -0.486540
O4    O     O_R   0.500000 0.337200 0.394190 -0.486540
O5    O     O_R   0.400140 0.500000 0.605850 -0.496687
O6    O     O_R   0.599860 0.500000 0.394150 -0.496687
O7    O     O_R   0.599860 0.500000 0.605850 -0.496687
O8    O     O_R   0.400140 0.500000 0.394150 -0.496687

loop_
_geom_bond_atom_site_label_1
_geom_bond_atom_site_label_2
_ccdc_geom_bond_type
C14   C23   S    
C6    C10   A    
C7    C11   A    
C9    C14   A    
C25   O7    A    
C1    O4    A    
C24   O8    A    
C8    C13   A    
C23   N4    A    
C2    C28   S    
C26   C28   T    
C23   N7    A    
C3    N1    T    
C10   C19   S    
C17   C25   S    
Cu2   O6    S    
C22   N6    A    
N5    N7    A    
C21   N2    T    
C8    H4    S    
C13   C14   A    
C13   C21   S    
N4    N6    A    
C7    H3    S    
C1    O1    A    
C5    C9    A    
C2    C27   T    
Cu2   N1    S    
Cu1   O3    S    
C12   O3    A    
C22   N5    A    
Cu2   O4    S    
C20   N10   T    
C19   N9    T    
C10   C15   A    
C18   N8    T    
Cu1   O7    S    
C1    C26   S    
C11   C20   S    
C12   C27   S    
Cu1   Cu2   S    
C3    C4    S    
C9    C18   S    
C4    N3    T    
C16   C24   S    
C6    H2    S    
C8    C16   A    
Cu1   N3    S    
C24   O5    A    
C6    C17   A    
Cu2   O8    S    
C25   O6    A    
C5    C16   A    
Cu1   O5    S    
C7    C17   A    
C11   C15   A    
Cu2   O2    S    
C15   C22   S    
Cu1   O1    S    
C5    H1    S    
C12   O2    A    
