data_mof_unit_28459.cif
_audit_creation_date              2012-12-11T15:49:48-0500
_audit_creation_method            fapswitch 2.2
_symmetry_space_group_name_H-M    P1
_symmetry_Int_Tables_number       1
_space_group_crystal_system       triclinic
_cell_length_a                    8.498825
_cell_length_b                    19.227289
_cell_length_c                    27.226152
_cell_angle_alpha                 97.617739
_cell_angle_beta                  92.35135
_cell_angle_gamma                 85.171706
_cell_volume                      4392.08540047

loop_
_atom_site_label
_atom_site_type_symbol
_atom_type_description
_atom_site_fract_x
_atom_site_fract_y
_atom_site_fract_z
_atom_type_partial_charge
Ba1   Ba    Ba6+2 0.854000 0.466860 0.523710 1.906366
Ba2   Ba    Ba6+2 0.335820 0.533080 0.476290 1.870258
C1    C     C_3   0.715406 0.257218 0.733674 0.258014
C2    C     C_R   0.865105 0.553984 0.173830 0.573559
C3    C     C_2   0.761027 0.532279 0.272679 -0.014724
C4    C     C_3   0.177363 0.292118 0.651503 0.352711
C5    C     C_3   0.740355 0.558811 0.326758 -0.104965
C6    C     C_1   0.983452 0.487775 0.343641 -0.007898
C7    C     C_2   0.029606 0.492744 0.297513 -0.113483
C8    C     C_2   0.909620 0.511213 0.256903 0.190294
C9    C     C_R   0.019707 0.506121 0.101934 -0.082687
C10   C     C_R   0.116337 0.466215 0.132863 -0.044746
C11   C     C_R   0.252285 0.427961 0.112835 -0.031021
C12   C     C_3   0.658357 0.288199 0.686010 0.704512
C13   C     C_R   0.889886 0.548172 0.122354 -0.015388
C14   C     C_2   0.842358 0.514583 0.359206 -0.210294
C15   C     C_2   0.319102 0.466131 0.638311 -0.076889
C16   C     C_3   0.127313 0.272848 0.701459 0.303672
C17   C     C_R   0.240790 0.477729 0.982878 0.040336
C18   C     C_R   0.977353 0.534671 0.967059 -0.029926
C19   C     C_R   0.126803 0.506196 0.949661 0.068702
C20   C     C_R   0.395321 0.459165 0.965919 -0.093186
C21   C     C_R   0.434352 0.466248 0.917645 -0.032528
C22   C     C_R   0.318975 0.488142 0.883236 -0.015184
C23   C     C_3   0.611695 0.684227 0.635663 0.522286
C24   C     C_R   0.163949 0.507154 0.898902 -0.117900
C25   C     C_R   0.048451 0.529406 0.864241 -0.104939
C26   C     C_R   0.085390 0.518312 0.812851 0.661784
C27   C     C_R   0.357461 0.492901 0.833789 0.654491
C28   C     C_3   0.025928 0.324754 0.343353 0.235993
C29   C     C_2   0.400886 0.446083 0.726194 -0.027524
C30   C     C_3   0.427758 0.425373 0.671440 -0.127328
C31   C     C_1   0.201788 0.511071 0.656561 -0.000857
C32   C     C_2   0.173447 0.524466 0.704807 -0.123889
C33   C     C_2   0.277589 0.491512 0.743635 0.179341
C34   C     C_3   0.563744 0.725674 0.686712 0.295746
C35   C     C_R   0.198316 0.471109 0.032276 0.018950
C36   C     C_R   0.054561 0.505274 0.050782 0.060624
C37   C     C_R   0.946867 0.539929 0.018872 0.037180
C38   C     C_R   0.294430 0.431607 0.064069 -0.092382
C39   C     C_R   0.789202 0.585678 0.091169 -0.050893
C40   C     C_3   0.066879 0.246821 0.326094 0.344932
C41   C     C_R   0.865663 0.559728 0.932380 -0.143555
C42   C     C_R   0.899658 0.559815 0.882293 0.391670
C43   C     C_R   0.814612 0.580400 0.040480 -0.103076
C44   C     C_R   0.358882 0.293127 0.497926 -0.201510
C45   C     C_3   0.000533 0.702358 0.338234 0.333414
C46   C     C_R   0.517475 0.273537 0.486122 -0.016791
C47   C     C_R   0.577609 0.203115 0.489402 -0.031902
C48   C     C_R   0.477211 0.152013 0.501028 0.056133
C49   C     C_R   0.319249 0.174906 0.511837 0.002360
C50   C     C_R   0.269204 0.246280 0.517076 0.072040
C51   C     C_R   0.508682 0.031917 0.537479 0.391543
C52   C     C_3   0.105635 0.702976 0.630689 0.505803
C53   C     C_R   0.583890 0.962303 0.533401 -0.096210
C54   C     C_R   0.648845 0.929452 0.488131 0.020406
C55   C     C_R   0.671829 0.972325 0.451732 -0.055595
C56   C     C_3   0.049037 0.694276 0.284197 -0.195167
C57   C     C_R   0.625125 0.044412 0.459061 -0.087845
C58   C     C_R   0.536119 0.075346 0.500001 -0.031124
C59   C     C_R   0.835896 0.823708 0.456408 -0.073458
C60   C     C_R   0.882223 0.751185 0.452112 0.046555
C61   C     C_R   0.644703 0.731145 0.494107 -0.030908
C62   C     C_R   0.596123 0.803174 0.496540 -0.129233
C63   C     C_R   0.692561 0.850950 0.478965 0.020549
C64   C     C_3   0.043342 0.759242 0.673497 0.564304
C65   C     C_R   0.783737 0.705406 0.469747 -0.183868
C66   C     C_3   0.564180 0.288106 0.368487 0.468784
C67   C     C_3   0.550553 0.712953 0.337314 0.390028
C68   C     C_3   0.652745 0.213947 0.361947 0.372771
C69   C     C_3   0.069054 0.765079 0.266651 -0.350048
C70   C     C_3   0.592952 0.732414 0.287154 -0.357320
C71   C     C_3   0.613440 0.926719 0.579064 -0.178275
C72   C     C_3   0.192889 0.319510 0.745811 -0.394066
C73   C     C_3   0.276707 0.360243 0.484717 -0.216736
C74   C     C_3   0.473823 0.777405 0.368909 -0.261036
C75   C     C_R   0.074256 0.464866 0.182902 0.620341
H1    H     H_    0.974557 0.226918 0.299084 0.026196
H2    H     H_    0.626242 0.222451 0.743077 0.100922
H3    H     H_    0.740557 0.678535 0.633508 -0.007861
H4    H     H_    0.433926 0.728625 0.688978 0.105866
H5    H     H_    0.614903 0.696620 0.716981 0.128196
H6    H     H_    0.968907 0.649973 0.345780 -0.056504
H7    H     H_    0.896362 0.741101 0.343570 -0.037058
H8    H     H_    0.160860 0.660073 0.279527 0.151030
H9    H     H_    0.956302 0.668047 0.260515 0.102444
H10   H     H_    0.661459 0.697349 0.357621 -0.096871
H11   H     H_    0.557979 0.819002 0.376460 0.042245
H12   H     H_    0.177955 0.241174 0.306014 0.137750
H13   H     H_    0.440821 0.762384 0.404753 0.130777
H14   H     H_    0.136441 0.348235 0.649981 -0.086980
H15   H     H_    0.366360 0.799137 0.349996 0.131724
H16   H     H_    0.154275 0.486804 0.290068 0.173353
H17   H     H_    0.329223 0.396149 0.135268 0.151435
H18   H     H_    0.472278 0.415477 0.750357 0.176640
H19   H     H_    0.555752 0.452931 0.907035 0.124934
H20   H     H_    0.490457 0.441928 0.990067 0.075126
H21   H     H_    0.400741 0.400887 0.051475 0.090606
H22   H     H_    0.660894 0.538706 0.247321 0.131639
H23   H     H_    0.229023 0.688946 0.639583 0.021576
H24   H     H_    0.687916 0.618813 0.105809 0.129320
H25   H     H_    0.749470 0.580502 0.943728 0.122460
H26   H     H_    0.307020 0.285073 0.648903 0.047440
H27   H     H_    0.082058 0.564650 0.716232 0.193013
H28   H     H_    0.731881 0.611474 0.019604 0.091612
H29   H     H_    0.809373 0.514811 0.397332 0.057989
H30   H     H_    0.331324 0.452443 0.598690 0.040498
H31   H     H_    0.487806 0.822543 0.515017 0.117869
H32   H     H_    0.700454 0.187753 0.481774 0.113903
H33   H     H_    0.727310 0.950204 0.417432 0.095028
H34   H     H_    0.915525 0.767320 0.666175 0.054657
H35   H     H_    0.652955 0.075842 0.431039 0.158874
H36   H     H_    0.915104 0.858962 0.444465 0.065889
H37   H     H_    0.235648 0.138236 0.518322 0.148498
H38   H     H_    0.822807 0.650194 0.468620 0.047441
H39   H     H_    0.998907 0.282864 0.702034 0.089322
H40   H     H_    0.906331 0.332325 0.358508 0.056656
H41   H     H_    0.026735 0.351879 0.309776 0.011041
H42   H     H_    0.728314 0.120418 0.664694 0.355960
H43   H     H_    0.290856 0.142468 0.409685 0.367500
H44   H     H_    0.827064 0.757336 0.580806 0.293544
H45   H     H_    0.446289 0.286807 0.384127 0.023588
H46   H     H_    0.233994 0.666465 0.773721 0.377381
H47   H     H_    0.303651 0.888474 0.641417 0.387723
H48   H     H_    0.596314 0.424870 0.344643 0.335524
H49   H     H_    0.471291 0.046416 0.325876 0.375339
H50   H     H_    0.415327 0.602251 0.701357 0.333570
H51   H     H_    0.499366 0.914316 0.730077 0.393764
H52   H     H_    0.598286 0.338100 0.852497 0.368752
H53   H     H_    0.098997 0.082232 0.673594 0.400978
H54   H     H_    0.162788 0.792502 0.288981 0.150163
H55   H     H_    0.103115 0.756480 0.227243 0.134204
H56   H     H_    0.825760 0.222854 0.727926 0.062868
H57   H     H_    0.956434 0.798902 0.269710 0.132688
H58   H     H_    0.656807 0.686479 0.265644 0.144183
H59   H     H_    0.484321 0.747838 0.265769 0.134157
H60   H     H_    0.670175 0.776774 0.292103 0.082871
H61   H     H_    0.914285 0.703457 0.865326 0.339563
H62   H     H_    0.658374 0.964174 0.609983 0.202644
H63   H     H_    0.504278 0.904746 0.588814 0.151900
H64   H     H_    0.708524 0.884183 0.573928 0.186036
H65   H     H_    0.200676 0.981661 0.556682 0.341672
H66   H     H_    0.323595 0.314880 0.746275 0.139976
H67   H     H_    0.769564 0.219214 0.347780 0.066273
H68   H     H_    0.144994 0.374443 0.744313 0.102584
H69   H     H_    0.154015 0.304133 0.780983 0.222283
H70   H     H_    0.148468 0.355219 0.478116 0.152788
H71   H     H_    0.298090 0.404393 0.514034 0.098740
H72   H     H_    0.318006 0.370874 0.448999 0.119230
H73   H     H_    0.672850 0.194714 0.398169 -0.046830
H74   H     H_    0.534504 0.308016 0.692011 -0.250473
N1    N     N_R   0.949806 0.509410 0.203977 -0.425202
N2    N     N_R   0.240246 0.502338 0.797353 -0.447907
O1    O     O_2   0.913240 0.537010 0.617740 -0.385022
O2    O     O_2   0.214082 0.750269 0.462587 -0.420409
O3    O     O_3   0.125472 0.725742 0.369718 -0.593501
O4    O     O_3   0.145240 0.536960 0.557560 -0.432642
O5    O     O_3   0.557280 0.416300 0.475860 -0.481449
O6    O     O_2   0.376710 0.670070 0.522470 -0.322087
O7    O     O_3   0.544498 0.720103 0.597010 -0.615182
O8    O     O_2   0.419445 0.525255 0.324284 -0.445738
O9    O     O_3   0.443178 0.659988 0.329325 -0.566685
O10   O     O_2   0.148147 0.423334 0.207148 -0.546925
O11   O     O_2   0.496439 0.488967 0.823597 -0.483852
O12   O     O_3   0.657423 0.335476 0.398612 -0.676278
O13   O     O_2   0.770088 0.600613 0.191728 -0.634319
O14   O     O_2   0.977821 0.518594 0.782063 -0.468780
O15   O     O_3   0.669960 0.410470 0.588880 -0.434283
O16   O     O_2   0.736473 0.473945 0.678614 -0.309175
O17   O     O_3   0.009102 0.646483 0.626970 -0.656734
O18   O     O_3   0.755579 0.339741 0.674431 -0.613970
O19   O     O_2   0.812980 0.329910 0.477500 -0.410937
O20   O     O_3   0.078660 0.374870 0.564770 -0.554124
O21   O     O_2   0.948342 0.254035 0.531851 -0.389949
O22   O     O_2   0.540920 0.239071 0.597665 -0.360531
O23   O     O_3   0.107854 0.247687 0.613085 -0.486684
O24   O     O_2   0.820486 0.208881 0.612611 -0.234987
O25   O     O_3   0.624206 0.142616 0.655050 -0.427192
O26   O     O_2   0.986972 0.225686 0.418372 -0.335691
O27   O     O_2   0.038591 0.121752 0.357085 -0.260898
O28   O     O_3   0.276927 0.187798 0.395941 -0.527851
O29   O     O_2   0.208773 0.779643 0.562816 -0.229686
O30   O     O_2   0.068732 0.674711 0.533339 -0.312486
O31   O     O_3   0.907408 0.786910 0.571420 -0.534273
O32   O     O_2   0.036044 0.785786 0.775109 -0.123851
O33   O     O_2   0.938845 0.676392 0.734447 -0.273332
O34   O     O_2   0.276450 0.462960 0.382230 -0.433439
O35   O     O_3   0.241369 0.687139 0.742520 -0.595005
O36   O     O_2   0.999369 0.890112 0.647218 -0.232769
O37   O     O_2   0.132705 0.881914 0.727232 -0.143150
O38   O     O_3   0.290772 0.840010 0.648238 -0.472474
O39   O     O_2   0.613382 0.272498 0.268278 -0.208908
O40   O     O_2   0.367338 0.337424 0.297239 -0.261914
O41   O     O_3   0.628719 0.397674 0.312807 -0.519111
O42   O     O_2   0.422962 0.173734 0.292534 -0.219981
O43   O     O_2   0.687036 0.113999 0.283481 -0.218406
O44   O     O_3   0.512641 0.082349 0.351516 -0.544187
O45   O     O_3   0.044470 0.462980 0.442430 -0.504750
O46   O     O_2   0.385026 0.600565 0.605190 -0.407272
O47   O     O_2   0.638371 0.543983 0.605618 -0.232032
O48   O     O_3   0.518540 0.579757 0.690966 -0.540235
O49   O     O_2   0.751813 0.816440 0.739311 -0.179256
O50   O     O_2   0.665202 0.842455 0.656504 -0.325710
O51   O     O_3   0.467337 0.865665 0.728340 -0.390847
O52   O     O_2   0.866345 0.292202 0.820548 -0.266500
O53   O     O_2   0.786938 0.389396 0.772955 -0.234155
O54   O     O_3   0.568432 0.335302 0.816799 -0.533232
O55   O     O_2   0.349222 0.164899 0.707929 -0.186373
O56   O     O_3   0.519740 0.589470 0.411120 -0.490099
O57   O     O_2   0.115753 0.168716 0.758055 -0.248225
O58   O     O_3   0.083972 0.130096 0.663599 -0.392293
O59   O     O_2   0.704146 0.576494 0.801815 -0.105908
O60   O     O_2   0.634164 0.648575 0.879395 -0.282383
O61   O     O_3   0.873255 0.679999 0.833333 -0.397601
O62   O     O_2   0.403025 0.021698 0.631209 -0.255865
O63   O     O_2   0.354377 0.134501 0.602088 -0.146284
O64   O     O_3   0.189902 0.033791 0.562358 -0.492738
O65   O     O_3   0.136655 0.350242 0.379596 -0.598601
O66   O     O_3   0.632420 0.583650 0.524140 -0.426515
O67   O     O_3   0.111040 0.625070 0.435230 -0.450303
P1    P     P_3+3 0.082480 0.557670 0.610090 1.151810
P2    P     P_3+3 0.635220 0.340300 0.462910 1.005812
P3    P     P_3+3 0.101685 0.281776 0.556297 1.093428
P4    P     P_3+3 0.107220 0.442270 0.389900 1.021997
P5    P     P_3+3 0.081327 0.715111 0.430289 1.057481
P6    P     P_3+3 0.643903 0.412155 0.653352 1.188286
P7    P     P_3+3 0.559404 0.675040 0.535529 1.108614
P8    P     P_3+3 0.531638 0.580961 0.346838 0.988635
S1    S     S_3+6 0.662159 0.218835 0.635719 -0.045723
S2    S     S_3+6 0.739804 0.321207 0.786905 -0.065777
S3    S     S_3+6 0.173767 0.181967 0.708957 0.039080
S4    S     S_3+6 0.770163 0.615590 0.848482 0.038919
S5    S     S_3+6 0.367177 0.056992 0.585559 -0.015931
S6    S     S_3+6 0.087868 0.194031 0.375878 -0.067544
S7    S     S_3+6 0.077354 0.736541 0.572752 -0.034626
S8    S     S_3+6 0.062640 0.727350 0.733141 -0.004514
S9    S     S_3+6 0.115738 0.845558 0.675180 0.071673
S10   S     S_3+6 0.539555 0.322566 0.309667 0.003771
S11   S     S_3+6 0.565443 0.145845 0.320225 0.011836
S12   S     S_3+6 0.537031 0.600196 0.633599 -0.122838
S13   S     S_3+6 0.618174 0.814141 0.701844 0.014802

loop_
_geom_bond_atom_site_label_1
_geom_bond_atom_site_label_2
_ccdc_geom_bond_type
O3    P5    S    
O38   S9    S    
O4    P1    S    
C53   C54   A    
C75   O10   D    
O22   S1    D    
O23   P3    S    
C7    H16   S    
O53   S2    D    
C23   H3    S    
O44   S11   S    
C52   O17   S    
C72   H68   S    
Ba1   O45   S    
O62   S5    D    
C72   H66   S    
C1    H2    S    
O46   S12   D    
C69   H57   S    
O51   S13   S    
O52   S2    D    
O31   S7    S    
C71   H64   S    
C21   H19   S    
Ba1   O20   S    
C24   C25   A    
O58   S3    S    
C60   C65   A    
C34   S13   S    
C47   H32   S    
Ba1   O5    S    
C17   C19   A    
C22   C24   A    
C32   C33   S    
C35   C38   A    
C16   S3    S    
C15   H30   S    
O15   P6    S    
C36   C37   A    
O59   S4    D    
C29   H18   S    
C56   C69   S    
C70   H59   S    
C5    P8    S    
C4    H14   S    
C44   C50   A    
C54   C55   A    
C75   N1    Am   
C67   C74   S    
Ba1   P1    S    
Ba1   Ba2   S    
H51   O51   S    
H46   O35   S    
C65   H38   S    
Ba2   O34   S    
C12   S1    S    
C17   C35   A    
C26   O14   D    
C8    N1    S    
C69   H55   S    
C22   C27   A    
C9    C13   A    
C25   C42   A    
O2    P5    D    
C3    H22   S    
C34   H5    S    
Ba2   O6    S    
C11   C38   A    
C68   H73   S    
C12   H74   S    
C46   C47   A    
C21   C22   A    
H42   O25   S    
C45   H6    S    
C64   H34   S    
H43   O28   S    
C74   H11   S    
C67   H10   S    
C14   H29   S    
C61   C65   A    
C37   C43   A    
O8    P8    D    
C66   O12   S    
O61   S4    S    
C57   C58   A    
C6    C14   D    
C20   H20   S    
Ba2   O67   S    
O63   S5    D    
C27   O11   D    
C52   H23   S    
H53   O58   S    
C59   C60   A    
O37   S9    D    
C15   C31   D    
C52   S7    S    
O26   S6    D    
C2    N1    Am   
C56   H9    S    
C1    S2    S    
C44   C73   S    
C51   C58   A    
C43   H28   S    
O12   P2    S    
C62   H31   S    
O33   S8    D    
C51   C53   A    
C4    C16   S    
O24   S1    D    
C44   C46   A    
C49   H37   S    
O5    P2    S    
C49   C50   A    
O28   S6    S    
C17   C20   A    
C31   C32   D    
C67   O9    S    
C13   C39   A    
O25   S1    S    
C16   H39   S    
C3    C5    S    
C18   C37   A    
C6    C7    D    
C70   H58   S    
C61   P7    S    
C28   H41   S    
C23   S12   S    
C73   H70   S    
C45   H7    S    
O49   S13   D    
C69   H54   S    
C32   H27   S    
C64   S8    S    
Ba1   P2    S    
C1    H56   S    
C9    C36   A    
O45   P4    S    
C41   C42   A    
O47   S12   D    
H65   O64   S    
C35   C36   A    
O17   P1    S    
O55   S3    D    
O39   S10   D    
C29   C30   S    
O18   P6    S    
C34   H4    S    
Ba2   O5    S    
C10   C75   A    
C18   C19   A    
C23   O7    S    
Ba2   P4    S    
C57   H35   S    
C71   H62   S    
Ba1   O66   S    
O19   P2    D    
C4    H26   S    
O41   S10   S    
C55   H33   S    
H50   O48   S    
O60   S4    D    
O29   S7    D    
C74   H15   S    
H44   O31   S    
C52   C64   S    
H49   O44   S    
C66   C68   S    
C70   H60   S    
O56   P8    S    
C30   P6    S    
C40   H1    S    
O57   S3    D    
O6    P7    D    
C64   S9    S    
C59   H36   S    
C26   N2    Am   
C29   C33   D    
C68   S11   S    
O64   S5    S    
O20   P3    S    
C56   H8    S    
C51   S5    S    
C18   C41   A    
O35   S8    S    
O48   S12   S    
C27   N2    Am   
C7    C8    S    
O42   S11   D    
C39   H24   S    
H61   O61   S    
Ba2   O56   S    
C39   C43   A    
O36   S9    D    
Ba2   O45   S    
C72   H69   S    
C5    C14   S    
O21   P3    D    
C33   N2    S    
C67   C70   S    
C12   O18   S    
C6    P4    S    
O9    P8    S    
C9    C10   A    
O54   S2    S    
O65   P4    S    
O50   S13   D    
C28   H40   S    
C1    C12   S    
C73   H71   S    
C60   P5    S    
C66   H45   S    
Ba1   O19   S    
C68   H67   S    
C73   H72   S    
Ba1   O15   S    
O7    P7    S    
C28   O65   S    
C11   H17   S    
C40   H12   S    
C48   C58   S    
C62   C63   A    
C2    C13   A    
Ba1   O4    S    
C42   S4    S    
C41   H25   S    
C3    C8    D    
C66   S10   S    
O34   P4    D    
C45   C56   S    
C38   H21   S    
C40   S6    S    
C71   H63   S    
Ba2   O66   S    
C46   P2    S    
H48   O41   S    
O1    P1    D    
Ba2   O4    S    
H52   O54   S    
C19   C24   A    
C4    O23   S    
C2    O13   D    
O67   P5    S    
O16   P6    D    
Ba1   O1    S    
O40   S10   D    
C55   C57   A    
C23   C34   S    
O27   S6    D    
C61   C62   A    
C53   C71   S    
C59   C63   A    
O32   S8    D    
C10   C11   A    
C50   P3    S    
C16   C72   S    
C47   C48   A    
C45   O3    S    
O30   S7    D    
C25   C26   A    
C15   C30   S    
C48   C49   A    
C20   C21   A    
C28   C40   S    
O66   P7    S    
H47   O38   S    
C54   C63   S    
C74   H13   S    
O43   S11   D    
C31   P1    S    
