data_mof_unit_33645.cif
_audit_creation_date              2012-12-11T15:42:55-0500
_audit_creation_method            fapswitch 2.2
_symmetry_space_group_name_H-M    P1
_symmetry_Int_Tables_number       1
_space_group_crystal_system       triclinic
_cell_length_a                    19.228837
_cell_length_b                    10.936801
_cell_length_c                    18.714573
_cell_angle_alpha                 89.643065
_cell_angle_beta                  89.485269
_cell_angle_gamma                 90.233136
_cell_volume                      3935.44277927

loop_
_atom_site_label
_atom_site_type_symbol
_atom_type_description
_atom_site_fract_x
_atom_site_fract_y
_atom_site_fract_z
_atom_type_partial_charge
C1    C     C_R   0.711410 0.328308 0.139171 0.561269
C2    C     C_R   0.288288 0.328347 0.861188 0.560911
C3    C     C_R   0.211409 0.828308 0.139171 0.561272
C4    C     C_R   0.788288 0.828347 0.861188 0.560911
C5    C     C_R   0.509817 0.391756 0.925339 -0.109573
C6    C     C_R   0.490440 0.391593 0.073114 -0.111059
C7    C     C_R   0.009817 0.891756 0.925339 -0.109573
C8    C     C_R   0.990440 0.891593 0.073114 -0.111059
C9    C     C_R   0.005828 0.002241 0.962123 -0.166020
C10   C     C_R   0.994458 0.002152 0.035549 -0.166042
C11   C     C_R   0.505828 0.502241 0.962123 -0.166020
C12   C     C_R   0.494458 0.502152 0.035549 -0.166041
C13   C     C_R   0.779622 0.839190 0.938649 0.007109
C14   C     C_R   0.219648 0.838557 0.061682 0.006398
C15   C     C_R   0.279622 0.339190 0.938649 0.007109
C16   C     C_R   0.719648 0.338557 0.061682 0.006397
C17   C     C_R   0.722144 0.792511 0.976737 0.024898
C18   C     C_R   0.276520 0.790797 0.023749 0.025788
C19   C     C_R   0.222144 0.292511 0.976737 0.024899
C20   C     C_R   0.776520 0.290797 0.023749 0.025788
C21   C     C_R   0.711892 0.822547 0.048283 0.025847
C22   C     C_R   0.286819 0.820598 0.951974 0.024997
C23   C     C_R   0.211892 0.322547 0.048283 0.025845
C24   C     C_R   0.786819 0.320598 0.951974 0.024997
C25   C     C_R   0.822453 0.925140 0.048898 -0.150872
C26   C     C_R   0.177228 0.924954 0.951155 -0.150571
C27   C     C_R   0.322453 0.425140 0.048898 -0.150872
C28   C     C_R   0.677228 0.424954 0.951155 -0.150571
C29   C     C_R   0.832027 0.896946 0.977333 -0.150472
C30   C     C_R   0.167636 0.897021 0.022882 -0.151078
C31   C     C_R   0.332027 0.396946 0.977333 -0.150471
C32   C     C_R   0.667637 0.397021 0.022882 -0.151078
C33   C     C_3   0.646407 0.802555 0.961002 -0.266690
C34   C     C_3   0.352437 0.799612 0.039097 -0.266303
C35   C     C_3   0.146407 0.302555 0.961002 -0.266690
C36   C     C_3   0.852437 0.299612 0.039097 -0.266303
C37   C     C_3   0.635455 0.835824 0.038903 -0.273727
C38   C     C_3   0.363429 0.832493 0.960901 -0.274333
C39   C     C_3   0.135455 0.335824 0.038903 -0.273728
C40   C     C_3   0.863429 0.332493 0.960901 -0.274333
C41   C     C_R   0.759343 0.898353 0.083635 0.016178
C42   C     C_R   0.240020 0.897348 0.916416 0.015963
C43   C     C_R   0.259343 0.398353 0.083635 0.016177
C44   C     C_R   0.740020 0.397348 0.916416 0.015963
C45   C     C_R   0.530893 0.155905 0.147143 0.539913
C46   C     C_R   0.469082 0.155819 0.852834 0.531300
C47   C     C_R   0.030893 0.655905 0.147143 0.539917
C48   C     C_R   0.969082 0.655819 0.852834 0.531300
C49   C     C_R   0.508839 0.161409 0.580795 0.054101
C50   C     C_R   0.551461 0.158838 0.436869 -0.010942
C51   C     C_R   0.008839 0.661409 0.580795 0.054098
C52   C     C_R   0.051461 0.658838 0.436869 -0.010942
C53   C     C_R   0.507404 0.056053 0.540108 0.079820
C54   C     C_R   0.530953 0.052946 0.471586 0.009972
C55   C     C_R   0.007404 0.556054 0.540108 0.079818
C56   C     C_R   0.030953 0.552946 0.471586 0.009971
C57   C     C_R   0.560838 0.264892 0.478153 -0.153555
C58   C     C_R   0.543130 0.264146 0.551687 -0.104842
C59   C     C_R   0.060838 0.764892 0.478153 -0.153554
C60   C     C_R   0.043131 0.764146 0.551687 -0.104843
C61   C     C_3   0.450525 0.966888 0.526996 -0.223562
C62   C     C_3   0.477385 0.961891 0.451030 -0.221960
C63   C     C_3   0.950525 0.466888 0.526996 -0.223554
C64   C     C_3   0.977385 0.461890 0.451030 -0.221959
C65   C     C_R   0.759075 0.906155 0.572517 0.008593
C66   C     C_R   0.243401 0.903210 0.427362 0.002297
C67   C     C_R   0.259075 0.406155 0.572517 0.008587
C68   C     C_R   0.743401 0.403212 0.427361 0.002298
C69   C     C_R   0.817242 0.899468 0.527704 0.064168
C70   C     C_R   0.190450 0.960875 0.464378 0.041260
C71   C     C_R   0.317242 0.399468 0.527704 0.064173
C72   C     C_R   0.690450 0.460874 0.464379 0.041267
C73   C     C_R   0.812915 0.888468 0.454689 -0.064705
C74   C     C_R   0.189576 0.966584 0.537213 -0.040754
C75   C     C_R   0.312915 0.388469 0.454689 -0.064701
C76   C     C_R   0.689575 0.466581 0.537213 -0.040739
C77   C     C_R   0.688153 0.896705 0.466665 -0.147742
C78   C     C_R   0.293466 0.845483 0.542266 -0.144945
C79   C     C_R   0.188153 0.396707 0.466665 -0.147740
C80   C     C_R   0.793466 0.345483 0.542266 -0.144947
C81   C     C_R   0.693371 0.893649 0.541371 0.089340
C82   C     C_R   0.294119 0.839349 0.467463 0.110362
C83   C     C_R   0.193371 0.393651 0.541372 0.089354
C84   C     C_R   0.794119 0.339350 0.467463 0.110359
C85   C     C_3   0.880254 0.978327 0.522607 0.130112
C86   C     C_3   0.161644 0.085523 0.454194 0.088094
C87   C     C_3   0.380254 0.478327 0.522608 0.130103
C88   C     C_3   0.661639 0.585520 0.454196 0.088070
C89   C     C_R   0.742023 0.967414 0.148137 0.535277
C90   C     C_R   0.257836 0.967074 0.851806 0.534135
C91   C     C_R   0.242023 0.467414 0.148137 0.535277
C92   C     C_R   0.757836 0.467075 0.851806 0.534135
C93   C     C_3   0.883140 0.945240 0.443890 -0.194431
C94   C     C_3   0.160366 0.093169 0.534802 -0.191453
C95   C     C_3   0.383139 0.445242 0.443890 -0.194435
C96   C     C_3   0.660360 0.593162 0.534805 -0.191564
C97   C     C_R   0.748508 0.908596 0.422975 -0.025448
C98   C     C_R   0.244226 0.918373 0.577074 -0.022639
C99   C     C_R   0.248508 0.408597 0.422975 -0.025458
C100  C     C_R   0.744226 0.418372 0.577075 -0.022633
C101  C     C_R   0.729092 0.376296 0.353140 0.566046
C102  C     C_R   0.271176 0.378290 0.647145 0.589870
C103  C     C_R   0.229092 0.876295 0.353140 0.566044
C104  C     C_R   0.771176 0.878289 0.647144 0.589873
C105  C     C_R   0.565166 0.152744 0.360475 0.559594
C106  C     C_R   0.469926 0.157336 0.647821 0.566758
C107  C     C_R   0.065167 0.652744 0.360475 0.559600
C108  C     C_R   0.969925 0.657336 0.647821 0.566757
C109  C     C_R   0.741248 0.968052 0.353550 0.553538
C110  C     C_R   0.258071 0.970440 0.646411 0.542294
C111  C     C_R   0.241248 0.468052 0.353551 0.553534
C112  C     C_R   0.758071 0.470439 0.646411 0.542295
C113  C     C_R   0.498010 0.165336 0.925003 0.006016
C114  C     C_R   0.501814 0.165461 0.074975 0.003059
C115  C     C_R   0.998010 0.665336 0.925003 0.006016
C116  C     C_R   0.001814 0.665461 0.074975 0.003060
C117  C     C_R   0.502011 0.278623 0.961715 0.028964
C118  C     C_R   0.498071 0.278625 0.037498 0.027098
C119  C     C_R   0.002011 0.778623 0.961715 0.028964
C120  C     C_R   0.998071 0.778625 0.037498 0.027099
C121  C     C_R   0.498508 0.056022 0.036985 -0.171740
C122  C     C_R   0.500730 0.055973 0.963750 -0.171250
C123  C     C_R   0.998508 0.556022 0.036985 -0.171740
C124  C     C_R   0.000730 0.555973 0.963750 -0.171250
Cr1   Cr    Cr6+3 0.772010 0.169670 0.250090 1.049565
Cr2   Cr    Cr6+3 0.227990 0.169670 0.749910 1.045164
Cr3   Cr    Cr6+3 0.272010 0.669670 0.250090 1.049572
Cr4   Cr    Cr6+3 0.727990 0.669670 0.749910 1.045165
Cr5   Cr    Cr6+3 0.615000 0.323260 0.249260 1.033727
Cr6   Cr    Cr6+3 0.385000 0.323260 0.750740 1.035938
Cr7   Cr    Cr6+3 0.115000 0.823260 0.249260 1.033702
Cr8   Cr    Cr6+3 0.885000 0.823260 0.750740 1.035942
Cr9   Cr    Cr6+3 0.616710 0.010760 0.250840 1.013374
Cr10  Cr    Cr6+3 0.383290 0.010760 0.749160 1.026324
Cr11  Cr    Cr6+3 0.116710 0.510760 0.250840 1.013340
Cr12  Cr    Cr6+3 0.883290 0.510760 0.749160 1.026324
H1    H     H_    0.498641 0.968015 0.063876 0.137996
H2    H     H_    0.500327 0.968016 0.937453 0.138174
H3    H     H_    0.998641 0.468015 0.063876 0.137995
H4    H     H_    0.000327 0.468016 0.937453 0.138174
H5    H     H_    0.577052 0.348546 0.452673 0.199388
H6    H     H_    0.551244 0.345005 0.583500 0.152910
H7    H     H_    0.077052 0.848546 0.452673 0.199387
H8    H     H_    0.051245 0.845004 0.583500 0.152911
H9    H     H_    0.898548 0.510296 0.531695 0.141698
H10   H     H_    0.001844 0.373162 0.437044 0.185552
H11   H     H_    0.398548 0.010296 0.531695 0.141701
H12   H     H_    0.501843 0.873163 0.437044 0.185536
H13   H     H_    0.457380 0.879731 0.556890 0.195719
H14   H     H_    0.439672 0.998531 0.411612 0.187503
H15   H     H_    0.957380 0.379731 0.556890 0.195729
H16   H     H_    0.939673 0.498530 0.411612 0.187500
H17   H     H_    0.636945 0.897978 0.443413 0.157953
H18   H     H_    0.335273 0.803962 0.572118 0.146613
H19   H     H_    0.136944 0.397980 0.443413 0.157940
H20   H     H_    0.835274 0.303963 0.572118 0.146615
H21   H     H_    0.868211 0.075617 0.534481 0.154982
H22   H     H_    0.198175 0.149292 0.426235 0.123914
H23   H     H_    0.368210 0.575617 0.534483 0.154973
H24   H     H_    0.698165 0.649296 0.426238 0.123995
H25   H     H_    0.885682 0.021991 0.406244 0.206136
H26   H     H_    0.198379 0.160300 0.555066 0.161751
H27   H     H_    0.385681 0.521993 0.406245 0.206136
H28   H     H_    0.698370 0.660296 0.555070 0.161784
H29   H     H_    0.922639 0.874197 0.431411 0.167134
H30   H     H_    0.107278 0.097383 0.558729 0.187737
H31   H     H_    0.422638 0.374199 0.431411 0.167137
H32   H     H_    0.607271 0.597366 0.558732 0.187683
H33   H     H_    0.521035 0.396415 0.868707 0.139299
H34   H     H_    0.479372 0.396015 0.129743 0.142000
H35   H     H_    0.021035 0.896415 0.868707 0.139299
H36   H     H_    0.979371 0.896015 0.129743 0.141999
H37   H     H_    0.010813 0.088043 0.933374 0.110020
H38   H     H_    0.989523 0.087884 0.063686 0.110405
H39   H     H_    0.510813 0.588043 0.933374 0.110020
H40   H     H_    0.489523 0.587884 0.063686 0.110407
H41   H     H_    0.860959 0.981834 0.074134 0.145823
H42   H     H_    0.139249 0.982624 0.925851 0.147327
H43   H     H_    0.360959 0.481834 0.074134 0.145823
H44   H     H_    0.639249 0.482624 0.925851 0.147327
H45   H     H_    0.877445 0.931729 0.950370 0.168586
H46   H     H_    0.122770 0.932937 0.049786 0.168565
H47   H     H_    0.377445 0.431730 0.950370 0.168586
H48   H     H_    0.622770 0.432937 0.049786 0.168565
H49   H     H_    0.123164 0.212857 0.946897 0.135898
H50   H     H_    0.874875 0.209620 0.053856 0.136604
H51   H     H_    0.623164 0.712857 0.946897 0.135898
H52   H     H_    0.374875 0.709620 0.053856 0.136604
H53   H     H_    0.634442 0.878778 0.923525 0.155836
H54   H     H_    0.365325 0.875747 0.075872 0.153497
H55   H     H_    0.134442 0.378778 0.923525 0.155836
H56   H     H_    0.865325 0.375747 0.075872 0.153497
H57   H     H_    0.618859 0.931822 0.046452 0.159940
H58   H     H_    0.381016 0.928137 0.952504 0.160011
H59   H     H_    0.118859 0.431822 0.046452 0.159941
H60   H     H_    0.881016 0.428137 0.952504 0.160011
H61   H     H_    0.605302 0.765989 0.069657 0.139361
H62   H     H_    0.392704 0.762033 0.930590 0.139156
H63   H     H_    0.105302 0.265989 0.069657 0.139358
H64   H     H_    0.892704 0.262033 0.930590 0.139156
O1    O     O_R   0.787520 0.042810 0.170440 -0.533972
O2    O     O_R   0.212480 0.042810 0.829560 -0.534922
O3    O     O_R   0.287520 0.542810 0.170440 -0.533969
O4    O     O_R   0.712480 0.542810 0.829560 -0.534922
O5    O     O_R   0.556610 0.252880 0.323980 -0.493254
O6    O     O_R   0.443390 0.252880 0.676020 -0.464898
O7    O     O_R   0.056610 0.752880 0.323980 -0.493256
O8    O     O_R   0.943390 0.752880 0.676020 -0.464897
O9    O     O_R   0.545950 0.051210 0.330860 -0.515844
O10   O     O_R   0.454050 0.051210 0.669140 -0.501574
O11   O     O_R   0.045950 0.551210 0.330860 -0.515853
O12   O     O_R   0.954050 0.551210 0.669140 -0.501575
O13   O     O_R   0.681390 0.959480 0.325510 -0.525751
O14   O     O_R   0.318610 0.959480 0.674490 -0.508285
O15   O     O_R   0.181390 0.459480 0.325510 -0.525771
O16   O     O_R   0.818610 0.459480 0.674490 -0.508286
O17   O     O_3   0.667900 0.167900 0.250060 -0.302694
O18   O     O_3   0.332100 0.167900 0.749940 -0.284948
O19   O     O_3   0.167900 0.667900 0.250060 -0.302687
O20   O     O_3   0.832100 0.667900 0.749940 -0.284949
O21   O     O_R   0.765640 0.292100 0.175020 -0.495208
O22   O     O_R   0.234360 0.292100 0.824980 -0.490366
O23   O     O_R   0.265640 0.792100 0.175020 -0.495206
O24   O     O_R   0.734360 0.792100 0.824980 -0.490366
O25   O     O_R   0.670190 0.408840 0.168540 -0.519235
O26   O     O_R   0.329810 0.408840 0.831460 -0.522150
O27   O     O_R   0.170190 0.908840 0.168540 -0.519241
O28   O     O_R   0.829810 0.908840 0.831460 -0.522150
O29   O     O_R   0.556620 0.251410 0.175160 -0.524243
O30   O     O_R   0.443380 0.251410 0.824840 -0.533730
O31   O     O_R   0.056620 0.751410 0.175160 -0.524242
O32   O     O_R   0.943380 0.751410 0.824840 -0.533730
O33   O     O_R   0.545960 0.049620 0.170320 -0.518166
O34   O     O_R   0.454040 0.049620 0.829680 -0.518745
O35   O     O_R   0.045960 0.549620 0.170320 -0.518166
O36   O     O_R   0.954040 0.549620 0.829680 -0.518745
O37   O     O_R   0.681390 0.958010 0.176690 -0.500846
O38   O     O_R   0.318610 0.958010 0.823310 -0.501015
O39   O     O_R   0.181390 0.458010 0.176690 -0.500849
O40   O     O_R   0.818610 0.458010 0.823310 -0.501015
O41   O     O_R   0.787510 0.044390 0.330970 -0.482890
O42   O     O_R   0.212490 0.044390 0.669030 -0.510925
O43   O     O_R   0.287510 0.544390 0.330970 -0.482884
O44   O     O_R   0.712490 0.544390 0.669030 -0.510921
O45   O     O_R   0.765630 0.293570 0.323840 -0.443451
O46   O     O_R   0.234370 0.293570 0.676160 -0.459038
O47   O     O_R   0.265630 0.793570 0.323840 -0.443444
O48   O     O_R   0.734370 0.793570 0.676160 -0.459035
O49   O     O_R   0.670190 0.410420 0.329080 -0.485605
O50   O     O_R   0.329810 0.410420 0.670920 -0.479539
O51   O     O_R   0.170190 0.910420 0.329080 -0.485638
O52   O     O_R   0.829810 0.910420 0.670920 -0.479537
Br1   Br    Br    0.611382 0.869455 0.599111 -0.580480
Br2   Br    Br    0.369930 0.755446 0.424054 -0.625788
Br3   Br    Br    0.111382 0.369457 0.599112 -0.580445
Br4   Br    Br    0.869930 0.255445 0.424054 -0.625770
O53   O     O_3   0.935310 0.931877 0.561688 -0.682933
H65   H     H_    0.970721 0.998150 0.561975 0.323790
O54   O     O_3   0.094754 0.081897 0.425258 -0.683067
H66   H     H_    0.079085 0.168141 0.423023 0.333620
O55   O     O_3   0.435309 0.431876 0.561688 -0.682938
H67   H     H_    0.470718 0.498152 0.561984 0.323773
O56   O     O_3   0.594751 0.581888 0.425255 -0.683082
H68   H     H_    0.579030 0.668102 0.423137 0.333649

loop_
_geom_bond_atom_site_label_1
_geom_bond_atom_site_label_2
_ccdc_geom_bond_type
C94   H26   S    
C10   H38   S    
Cr11  O11   S    
C55   C56   A    
C88   C96   S    
C67   C83   A    
Cr10  O10   S    
C116  C123  A    
C7    H35   S    
Cr1   O41   S    
Cr2   O46   S    
Cr9   O9    S    
C14   C18   A    
C89   O1    A    
C102  O46   A    
C73   C93   S    
C78   C98   A    
C108  O8    A    
Cr7   O7    S    
C94   H30   S    
Cr3   O19   S    
O56   H68   S    
C74   C98   A    
C22   C42   A    
C53   C54   A    
Cr2   O2    S    
C15   C19   A    
Cr1   O21   S    
Cr1   O1    S    
Cr11  O19   S    
C50   C54   A    
C52   C56   A    
C45   O29   A    
C64   H16   S    
C104  O52   A    
C6    H34   S    
C46   O34   A    
C112  O16   A    
C13   C29   A    
C110  O14   A    
C45   O33   A    
Cr8   O52   S    
C5    C11   A    
C95   H27   S    
Cr8   O28   S    
C6    C12   A    
O55   H67   S    
C27   H43   S    
C116  C120  A    
C107  O11   A    
Cr6   O30   S    
C1    O25   A    
C22   C38   S    
Cr5   O29   S    
Cr2   O22   S    
C2    O22   A    
C91   O3    A    
Cr5   O5    S    
C101  O49   A    
Cr7   O19   S    
O53   H65   S    
Cr4   O4    S    
C121  H1    S    
C4    C13   S    
Cr6   O18   S    
C78   C82   A    
C70   C74   A    
Cr9   O17   S    
C1    O21   A    
Cr5   O17   S    
C35   H49   S    
C86   C94   S    
C108  O12   A    
Cr12  O12   S    
C114  C121  A    
C85   C93   S    
C45   C114  S    
Cr11  O15   S    
C113  C122  A    
C20   C24   A    
C52   C107  S    
Cr7   O51   S    
C51   C108  S    
C104  O48   A    
C55   C63   S    
Cr12  O20   S    
Cr2   O42   S    
C50   C105  S    
C111  O43   A    
C96   H32   S    
C9    H37   S    
C115  C124  A    
C37   H61   S    
C9    C10   A    
Cr4   O20   S    
C107  O7    A    
C44   C92   S    
Cr3   O23   S    
C12   H40   S    
C77   H17   S    
C35   H55   S    
C26   H42   S    
C109  O41   A    
Cr2   O18   S    
C59   H7    S    
C59   C60   A    
C62   H12   S    
C80   C100  A    
Cr12  O16   S    
Cr10  O38   S    
Cr4   O24   S    
C38   H62   S    
C17   C33   S    
C98   C110  S    
C14   C30   A    
C64   H10   S    
Cr8   O32   S    
C75   C99   A    
C72   C88   S    
C32   H48   S    
C80   H20   S    
C47   O35   A    
Cr6   O50   S    
C36   H56   S    
C25   C29   A    
C47   C116  S    
C34   H54   S    
Cr5   O49   S    
Cr9   O13   S    
Cr4   O44   S    
C90   O38   A    
C75   C95   S    
C80   C84   A    
C68   C84   A    
C11   C12   A    
C89   O37   A    
C76   C100  A    
C123  C124  A    
Cr3   O43   S    
C68   C101  S    
C122  H2    S    
C25   C41   A    
C95   H31   S    
C19   C23   A    
C34   C38   S    
C20   C36   S    
C87   H23   S    
C54   C62   S    
C51   C55   A    
C65   C69   A    
C27   C43   A    
C4    O24   A    
C27   C31   A    
C15   C31   A    
C28   C44   A    
C103  O47   A    
C49   C58   A    
C96   H28   S    
C5    C117  A    
C68   C72   A    
Cr8   O20   S    
C37   H57   S    
C47   O31   A    
C73   C97   A    
C84   Br4   S    
Cr6   O6    S    
C52   C59   A    
C7    C119  A    
C66   C82   A    
C97   C109  S    
C101  O45   A    
C110  O42   A    
C65   C81   A    
C93   H29   S    
C88   O56   S    
C28   C32   A    
C16   C20   A    
Cr3   O47   S    
C99   C111  S    
Cr7   O27   S    
C56   C64   S    
Cr10  O34   S    
C79   C99   A    
C72   C76   A    
C33   H51   S    
C1    C16   S    
Cr9   O33   S    
C33   H53   S    
C69   C73   A    
C2    C15   S    
C28   H44   S    
Cr5   O25   S    
C63   H15   S    
C121  C122  A    
C114  C118  A    
Cr4   O48   S    
C29   H45   S    
C48   C115  S    
C71   C87   S    
C48   O32   A    
C93   H25   S    
C100  C112  S    
C30   H46   S    
Cr12  O40   S    
C102  O50   A    
C24   C44   A    
C123  H3    S    
C21   C41   A    
C51   C60   A    
C3    C14   S    
C105  O9    A    
C53   C61   S    
O54   H66   S    
C70   C86   S    
C3    O27   A    
C36   C40   S    
C69   C85   S    
C2    O26   A    
Cr8   O8    S    
C33   C37   S    
C40   H60   S    
C113  C117  A    
Cr7   O31   S    
C7    C9    A    
C8    C120  A    
C39   H63   S    
C87   C95   S    
C92   O40   A    
C3    O23   A    
C58   H6    S    
C62   H14   S    
C46   C113  S    
C31   H47   S    
C41   C89   S    
C46   O30   A    
C50   C57   A    
C11   H39   S    
C66   C103  S    
C124  H4    S    
C78   H18   S    
C71   C75   A    
Cr11  O35   S    
C111  O15   A    
C106  O10   A    
C92   O4    A    
C106  O6    A    
C88   H24   S    
C119  C120  A    
C86   H22   S    
C105  O5    A    
C49   C106  S    
C34   H52   S    
C13   C17   A    
C16   C32   A    
C40   H64   S    
C115  C119  A    
Cr10  O14   S    
C57   H5    S    
C85   O53   S    
C18   C22   A    
C61   H11   S    
C103  O51   A    
Cr10  O18   S    
C117  C118  A    
C60   H8    S    
C79   C83   A    
C57   C58   A    
C66   C70   A    
C39   H59   S    
C61   H13   S    
C18   C34   S    
C83   Br3   S    
C23   C39   S    
C35   C39   S    
Cr12  O36   S    
C36   H50   S    
C48   O36   A    
Cr11  O39   S    
C67   C71   A    
C4    O28   A    
C26   C42   A    
C61   C62   S    
C77   C81   A    
C43   C91   S    
C86   O54   S    
C24   C40   S    
C49   C53   A    
Cr1   O17   S    
C109  O13   A    
C79   H19   S    
C63   C64   S    
Cr9   O37   S    
C38   H58   S    
C112  O44   A    
C21   C37   S    
Cr6   O26   S    
C8    C10   A    
Cr1   O45   S    
C91   O39   A    
C74   C94   S    
C85   H21   S    
C5    H33   S    
C87   O55   S    
C82   Br2   S    
C19   C35   S    
C77   C97   A    
C65   C104  S    
C42   C90   S    
C23   C43   A    
C25   H41   S    
Cr3   O3    S    
C63   H9    S    
C76   C96   S    
C81   Br1   S    
C8    H36   S    
C67   C102  S    
C6    C118  A    
C90   O2    A    
C26   C30   A    
C17   C21   A    
