data_mof_unit_15205.cif
_audit_creation_date              2013-03-05T15:41:01-0500
_audit_creation_method            fapswitch 2.2
_symmetry_space_group_name_H-M    P1
_symmetry_Int_Tables_number       1
_space_group_crystal_system       triclinic
_cell_length_a                    27.84061
_cell_length_b                    18.516853
_cell_length_c                    16.990827
_cell_angle_alpha                 90.055909
_cell_angle_beta                  60.809541
_cell_angle_gamma                 90.630763
_cell_volume                      7646.17992225

loop_
_atom_site_label
_atom_site_type_symbol
_atom_site_description
_atom_site_fract_x
_atom_site_fract_y
_atom_site_fract_z
_atom_type_partial_charge
O1    O     O_R   0.746490 0.236330 0.638080 -0.541752
O2    O     O_R   0.253510 0.763670 0.361920 -0.645918
O3    O     O_R   0.253510 0.236330 0.361920 -0.558127
O4    O     O_R   0.746490 0.763670 0.638080 -0.584338
O5    O     O_R   0.246490 0.736330 0.638080 -0.589653
O6    O     O_R   0.753510 0.263670 0.361920 -0.597996
O7    O     O_R   0.753510 0.736330 0.361920 -0.593275
O8    O     O_R   0.246490 0.263670 0.638080 -0.603074
O9    O     O_R   0.674170 0.186160 0.516270 -0.646101
O10   O     O_R   0.325830 0.813840 0.483730 -0.626895
O11   O     O_R   0.325830 0.186160 0.483730 -0.645036
O12   O     O_R   0.674170 0.813840 0.516270 -0.622093
O13   O     O_R   0.174170 0.686160 0.516270 -0.631589
O14   O     O_R   0.825830 0.313840 0.483730 -0.632313
O15   O     O_R   0.825830 0.686160 0.483730 -0.629751
O16   O     O_R   0.174170 0.313840 0.516270 -0.637416
O17   O     O_R   0.739960 0.127620 0.525000 -0.622180
O18   O     O_R   0.260040 0.872380 0.475000 -0.648147
O19   O     O_R   0.260040 0.127620 0.475000 -0.645868
O20   O     O_R   0.739960 0.872380 0.525000 -0.619672
O21   O     O_R   0.239960 0.627620 0.525000 -0.609178
O22   O     O_R   0.760040 0.372380 0.475000 -0.622053
O23   O     O_R   0.760040 0.627620 0.475000 -0.631126
O24   O     O_R   0.239960 0.372380 0.525000 -0.627783
O25   O     O_R   0.680700 0.294870 0.629350 -0.639324
O26   O     O_R   0.319300 0.705130 0.370650 -0.603945
O27   O     O_R   0.319300 0.294870 0.370650 -0.628902
O28   O     O_R   0.680700 0.705130 0.629350 -0.653004
O29   O     O_R   0.180700 0.794870 0.629350 -0.641919
O30   O     O_R   0.819300 0.205130 0.370650 -0.624722
O31   O     O_R   0.819300 0.794870 0.370650 -0.619442
O32   O     O_R   0.180700 0.205130 0.629350 -0.644929
C1    C     C_R   0.701821 0.267534 0.677216 0.899205
C2    C     C_R   0.298785 0.732394 0.322814 0.911609
C3    C     C_R   0.298123 0.266976 0.323191 0.919653
C4    C     C_R   0.700627 0.733532 0.677187 0.899852
C5    C     C_R   0.200854 0.766503 0.677371 0.875284
C6    C     C_R   0.800291 0.236671 0.322339 0.918899
C7    C     C_R   0.790746 0.782266 0.329930 0.968505
C8    C     C_R   0.199825 0.236845 0.676895 0.906822
C9    C     C_R   0.690935 0.129455 0.535665 0.891038
C10   C     C_R   0.299039 0.870699 0.495544 0.899986
C11   C     C_R   0.299030 0.129062 0.495647 0.907058
C12   C     C_R   0.690938 0.870626 0.535308 0.895387
C13   C     C_R   0.190701 0.629500 0.536455 0.894119
C14   C     C_R   0.808659 0.371080 0.467339 0.913966
C15   C     C_R   0.803457 0.627907 0.483060 0.926364
C16   C     C_R   0.191213 0.370531 0.535262 0.917892
Zn1   Zn    Zn3+2 0.792340 0.208750 0.507670 1.059281
Zn2   Zn    Zn3+2 0.207660 0.791250 0.492330 0.969452
Zn3   Zn    Zn3+2 0.207660 0.208750 0.492330 0.997149
Zn4   Zn    Zn3+2 0.792340 0.791250 0.507670 1.052446
Zn5   Zn    Zn3+2 0.292340 0.708750 0.507670 1.037426
Zn6   Zn    Zn3+2 0.707660 0.291250 0.492330 0.955186
Zn7   Zn    Zn3+2 0.707660 0.708750 0.492330 0.964034
Zn8   Zn    Zn3+2 0.292340 0.291250 0.507670 0.940740
H1    H     H_    0.032968 0.250884 0.535750 0.164857
H2    H     H_    0.913720 0.735216 0.623250 0.184691
H3    H     H_    0.968440 0.254940 0.476358 0.174367
H4    H     H_    0.997383 0.738254 0.637619 0.185252
H5    H     H_    0.501020 0.753124 0.627375 0.175853
H6    H     H_    0.422673 0.246724 0.609212 0.141926
H7    H     H_    0.416218 0.753608 0.616879 0.174083
H8    H     H_    0.506664 0.246415 0.622126 0.168871
C17   C     C_R   0.517494 0.130565 0.606627 0.103908
C18   C     C_R   0.417806 0.869224 0.595521 0.104309
C19   C     C_R   0.421088 0.130908 0.591596 0.104138
C20   C     C_R   0.515324 0.868617 0.607454 0.112370
C21   C     C_R   0.016946 0.625839 0.602223 0.098864
C22   C     C_R   0.954477 0.370014 0.497303 0.083575
C23   C     C_R   0.922644 0.623364 0.580871 0.094633
C24   C     C_R   0.031189 0.366248 0.558562 0.089733
C25   C     C_R   0.490037 0.195531 0.613953 -0.169337
C26   C     C_R   0.437262 0.804374 0.611983 -0.176621
C27   C     C_R   0.442129 0.195706 0.606473 -0.206326
C28   C     C_R   0.485705 0.804089 0.617938 -0.187506
C29   C     C_R   0.985089 0.688134 0.619165 -0.152759
C30   C     C_R   0.978503 0.304378 0.499613 -0.099176
C31   C     C_R   0.937472 0.686421 0.610604 -0.178098
C32   C     C_R   0.014927 0.301992 0.533946 -0.093815
C33   C     C_R   0.446194 0.065403 0.590841 0.037632
C34   C     C_R   0.493252 0.934177 0.599053 0.048652
C35   C     C_R   0.494425 0.065188 0.598339 0.033052
C36   C     C_R   0.444719 0.934449 0.592399 0.044341
C37   C     C_R   0.953549 0.560723 0.566017 0.041051
C38   C     C_R   0.007751 0.431901 0.555247 0.036406
C39   C     C_R   0.998971 0.561175 0.581001 0.034962
C40   C     C_R   0.966778 0.433012 0.530157 0.039126
C41   C     C_R   0.939627 0.497601 0.535080 -0.033675
C42   C     C_R   0.026591 0.496783 0.574164 -0.036598
C43   C     C_R   0.423237 0.000032 0.582315 -0.043241
C44   C     C_R   0.519867 0.999555 0.596616 -0.042208
C45   C     C_R   0.886203 0.435780 0.475712 0.053905
C46   C     C_R   0.099767 0.564269 0.581886 0.049148
C47   C     C_R   0.101609 0.431909 0.575416 0.042360
C48   C     C_R   0.868454 0.562348 0.520886 0.050178
C49   C     C_R   0.357324 0.934000 0.552717 0.052331
C50   C     C_R   0.599307 0.065729 0.585159 0.049308
C51   C     C_R   0.598989 0.933061 0.583670 0.069965
C52   C     C_R   0.358715 0.066412 0.550765 0.057660
C53   C     C_R   0.840302 0.436257 0.460287 -0.107248
C54   C     C_R   0.155783 0.564572 0.561494 -0.124008
C55   C     C_R   0.156524 0.434166 0.559810 -0.100711
C56   C     C_R   0.830144 0.563047 0.487759 -0.109678
C57   C     C_R   0.319712 0.935285 0.518219 -0.099516
C58   C     C_R   0.656024 0.064874 0.560401 -0.102153
C59   C     C_R   0.655964 0.934593 0.559184 -0.108548
C60   C     C_R   0.320230 0.064775 0.517500 -0.102719
C61   C     C_R   0.816641 0.500500 0.458542 -0.264681
C62   C     C_R   0.182312 0.499859 0.553033 -0.297731
C63   C     C_R   0.300927 0.999867 0.504267 -0.316522
C64   C     C_R   0.682776 0.999995 0.548446 -0.307800
H9    H     H_    0.784652 0.500895 0.439537 0.200059
H10   H     H_    0.225367 0.500682 0.534637 0.188976
H11   H     H_    0.270504 0.999681 0.482057 0.189848
H12   H     H_    0.726445 0.000374 0.526621 0.196169
C65   C     C_R   0.898359 0.498787 0.509920 0.073515
C66   C     C_R   0.075456 0.497641 0.579264 0.082381
C67   C     C_R   0.379684 0.000183 0.561986 0.077606
C68   C     C_R   0.572537 0.999394 0.589527 0.080743
C69   C     C_R   0.072995 0.366692 0.580853 -0.198227
C70   C     C_R   0.878060 0.622163 0.564458 -0.215485
C71   C     C_R   0.918382 0.373648 0.462815 -0.191173
C72   C     C_R   0.067387 0.627302 0.602405 -0.215401
C73   C     C_R   0.567208 0.868536 0.602389 -0.215176
C74   C     C_R   0.376285 0.130798 0.575458 -0.251522
C75   C     C_R   0.372796 0.869749 0.580082 -0.234209
C76   C     C_R   0.568417 0.130092 0.604375 -0.232761
H13   H     H_    0.083896 0.315360 0.597148 0.191770
H14   H     H_    0.851541 0.668372 0.587226 0.179752
H15   H     H_    0.916629 0.327574 0.425222 0.183239
H16   H     H_    0.080688 0.677568 0.618422 0.182430
H17   H     H_    0.581908 0.817704 0.612714 0.175494
H18   H     H_    0.355982 0.181603 0.583411 0.178987
H19   H     H_    0.350657 0.819423 0.590382 0.181383
H20   H     H_    0.583262 0.180569 0.616709 0.183023
C77   C     C_R   0.742272 0.298907 0.933565 -0.008329
C78   C     C_R   0.283401 0.738362 0.041791 -0.010567
C79   C     C_R   0.277027 0.263304 0.044793 -0.017618
C80   C     C_R   0.708985 0.758327 0.962275 -0.005326
C81   C     C_R   0.219015 0.761626 0.956434 -0.012062
C82   C     C_R   0.803068 0.269192 0.023905 -0.000874
C83   C     C_R   0.768539 0.791630 0.053364 0.002487
C84   C     C_R   0.212322 0.248751 0.957932 -0.000306
C85   C     C_R   0.789242 0.254944 0.891860 -0.074267
C86   C     C_R   0.235658 0.780787 0.085561 -0.076517
C87   C     C_R   0.225374 0.227612 0.088210 -0.096331
C88   C     C_R   0.761988 0.790529 0.914508 -0.095047
C89   C     C_R   0.268002 0.721024 0.911807 -0.095037
C90   C     C_R   0.764032 0.324280 0.055624 -0.071966
C91   C     C_R   0.711422 0.778871 0.101988 -0.072668
C92   C     C_R   0.262420 0.286719 0.915623 -0.058072
C93   C     C_R   0.819642 0.239354 0.937669 0.074128
C94   C     C_R   0.201216 0.787778 0.044919 0.074685
C95   C     C_R   0.191209 0.225732 0.047463 0.071510
C96   C     C_R   0.794531 0.796706 0.958386 0.087296
C97   C     C_R   0.302461 0.715032 0.952335 0.081765
C98   C     C_R   0.732075 0.337935 0.011834 0.086223
C99   C     C_R   0.683597 0.751635 0.056446 0.088220
C100  C     C_R   0.296779 0.289301 0.956317 0.080246
C101  C     C_R   0.666999 0.361693 0.925256 -0.012451
C102  C     C_R   0.364406 0.686499 0.041838 -0.018744
C103  C     C_R   0.360793 0.310131 0.043799 0.000689
C104  C     C_R   0.629746 0.698461 0.961005 0.010602
C105  C     C_R   0.137081 0.813123 0.957764 -0.007222
C106  C     C_R   0.873064 0.199386 0.037500 -0.014086
C107  C     C_R   0.855922 0.819607 0.050456 -0.014273
C108  C     C_R   0.131011 0.198637 0.957119 -0.018358
C109  C     C_R   0.629850 0.365642 0.888941 -0.103086
C110  C     C_R   0.387981 0.659433 0.094535 -0.058491
C111  C     C_R   0.385725 0.337619 0.094911 -0.079717
C112  C     C_R   0.608259 0.665854 0.907689 -0.040698
C113  C     C_R   0.112403 0.839343 0.905911 -0.068017
C114  C     C_R   0.891019 0.165117 0.093685 -0.067778
C115  C     C_R   0.883013 0.843257 0.099097 -0.062745
C116  C     C_R   0.109628 0.166080 0.904773 -0.065816
C117  C     C_R   0.638919 0.325842 0.814715 -0.270519
C118  C     C_R   0.366699 0.677832 0.183935 -0.238981
C119  C     C_R   0.365402 0.316351 0.182768 -0.305489
C120  C     C_R   0.629993 0.683421 0.817766 -0.248594
C121  C     C_R   0.132241 0.818419 0.817613 -0.266897
C122  C     C_R   0.868238 0.183705 0.183350 -0.242617
C123  C     C_R   0.860502 0.827846 0.188938 -0.267679
C124  C     C_R   0.130674 0.186031 0.815949 -0.250793
H21   H     H_    0.612312 0.332643 0.785261 0.205386
H22   H     H_    0.384649 0.656175 0.222915 0.206454
H23   H     H_    0.385281 0.336583 0.219827 0.186159
H24   H     H_    0.612726 0.659472 0.778617 0.201747
H25   H     H_    0.113708 0.839475 0.779224 0.203327
H26   H     H_    0.881747 0.155482 0.224876 0.199915
H27   H     H_    0.884333 0.839271 0.222577 0.210404
H28   H     H_    0.113852 0.161003 0.776745 0.207555
C125  C     C_R   0.683831 0.281992 0.773060 -0.080143
C126  C     C_R   0.321824 0.721697 0.225025 -0.083752
C127  C     C_R   0.318304 0.274366 0.226420 -0.091479
C128  C     C_R   0.675871 0.726931 0.775329 -0.082509
C129  C     C_R   0.177310 0.774595 0.775833 -0.073246
C130  C     C_R   0.826230 0.233443 0.222559 -0.086805
C131  C     C_R   0.807221 0.802531 0.237470 -0.099264
C132  C     C_R   0.175291 0.233034 0.774615 -0.080520
C133  C     C_R   0.716612 0.266457 0.816707 -0.039295
C134  C     C_R   0.295770 0.746606 0.175020 -0.008827
C135  C     C_R   0.288462 0.249413 0.179842 -0.061354
C136  C     C_R   0.701576 0.754885 0.824732 -0.090360
C137  C     C_R   0.203872 0.749220 0.825302 -0.078626
C138  C     C_R   0.807092 0.270442 0.167090 -0.030260
C139  C     C_R   0.772395 0.796968 0.195882 -0.042860
C140  C     C_R   0.201073 0.263272 0.824143 -0.010297
C141  C     C_R   0.708031 0.308315 0.892637 -0.041006
C142  C     C_R   0.313673 0.721677 0.086986 -0.019860
C143  C     C_R   0.308892 0.273761 0.089594 -0.033569
C144  C     C_R   0.680686 0.735625 0.915677 -0.034814
C145  C     C_R   0.187222 0.775789 0.912605 -0.051112
C146  C     C_R   0.827689 0.246230 0.076500 -0.034720
C147  C     C_R   0.798886 0.803027 0.099987 -0.032128
C148  C     C_R   0.181561 0.237036 0.912742 -0.048799
C149  C     C_R   0.665709 0.409625 0.991765 0.310063
C150  C     C_R   0.390014 0.684023 0.945941 0.318895
C151  C     C_R   0.385519 0.316112 0.948337 0.308160
C152  C     C_R   0.602566 0.697032 0.056972 0.338639
C153  C     C_R   0.113359 0.819735 0.053087 0.297899
C154  C     C_R   0.898025 0.187747 0.943233 0.301633
C155  C     C_R   0.883197 0.812782 0.954854 0.304949
C156  C     C_R   0.103809 0.196512 0.052442 0.309256
C157  C     C_R   0.690941 0.390428 0.042548 -0.237780
C158  C     C_R   0.358116 0.694922 0.903405 -0.183224
C159  C     C_R   0.352651 0.308861 0.906971 -0.192379
C160  C     C_R   0.630869 0.719419 0.102406 -0.163242
C161  C     C_R   0.146564 0.811554 0.093760 -0.181864
C162  C     C_R   0.866753 0.196032 0.900106 -0.225443
C163  C     C_R   0.852147 0.803554 0.910488 -0.180268
C164  C     C_R   0.134337 0.210023 0.096288 -0.182134
C165  C     C_R   0.760172 0.215298 0.785749 0.411830
C166  C     C_R   0.266155 0.810823 0.196251 0.388016
C167  C     C_R   0.240318 0.201300 0.214580 0.363786
C168  C     C_R   0.742064 0.810420 0.791535 0.423561
C169  C     C_R   0.242038 0.692177 0.795934 0.413269
C170  C     C_R   0.771944 0.332822 0.192517 0.380793
C171  C     C_R   0.713053 0.788962 0.242898 0.372834
C172  C     C_R   0.242500 0.320513 0.794034 0.382580
C173  C     C_R   0.802872 0.227080 0.806372 0.136538
C174  C     C_R   0.229234 0.821682 0.161716 0.179262
C175  C     C_R   0.211175 0.189972 0.167870 0.193666
C176  C     C_R   0.777058 0.821079 0.828929 0.160320
C177  C     C_R   0.276884 0.681643 0.833685 0.138744
C178  C     C_R   0.761852 0.366563 0.126437 0.115676
C179  C     C_R   0.684158 0.795624 0.194020 0.123659
C180  C     C_R   0.269867 0.334310 0.846202 0.087140
H29   H     H_    0.681952 0.422404 0.101157 0.195823
H30   H     H_    0.378451 0.693382 0.830582 0.197572
H31   H     H_    0.371973 0.312763 0.834285 0.197572
H32   H     H_    0.610220 0.713742 0.174975 0.184156
H33   H     H_    0.127520 0.817056 0.166122 0.213215
H34   H     H_    0.882635 0.172319 0.834485 0.218888
H35   H     H_    0.873748 0.797105 0.838039 0.200388
H36   H     H_    0.112579 0.212153 0.168997 0.211201
O33   O     O_R   0.062020 0.072840 0.007170 -0.600289
O34   O     O_R   0.937980 0.927160 0.992830 -0.607712
O35   O     O_R   0.937980 0.072840 0.992830 -0.614532
O36   O     O_R   0.062020 0.927160 0.007170 -0.597217
O37   O     O_R   0.562020 0.572840 0.007170 -0.557538
O38   O     O_R   0.437980 0.427160 0.992830 -0.579879
O39   O     O_R   0.437980 0.572840 0.992830 -0.605293
O40   O     O_R   0.562020 0.427160 0.007170 -0.624250
O41   O     O_R   0.947860 0.073950 0.109290 -0.592801
O42   O     O_R   0.052140 0.926050 0.890710 -0.606154
O43   O     O_R   0.052140 0.073950 0.890710 -0.595276
O44   O     O_R   0.947860 0.926050 0.109290 -0.598206
O45   O     O_R   0.447860 0.573950 0.109290 -0.600800
O46   O     O_R   0.552140 0.426050 0.890710 -0.586507
O47   O     O_R   0.552140 0.573950 0.890710 -0.615172
O48   O     O_R   0.447860 0.426050 0.109290 -0.635901
C181  C     C_R   0.071669 0.103610 0.936343 0.947001
C182  C     C_R   0.927540 0.897094 0.063837 0.951434
C183  C     C_R   0.927859 0.102642 0.064076 0.933969
C184  C     C_R   0.072268 0.897603 0.936403 0.940867
C185  C     C_R   0.569773 0.604868 0.938516 0.997147
C186  C     C_R   0.427111 0.397063 0.063920 0.922754
C187  C     C_R   0.428133 0.602294 0.063378 0.951779
C188  C     C_R   0.580032 0.408920 0.928791 0.953678
Zn9   Zn    Zn3+2 0.505960 0.500000 0.080520 1.092236
Zn10  Zn    Zn3+2 0.494040 0.500000 0.919480 1.147885
Zn11  Zn    Zn3+2 0.005960 0.000000 0.080520 1.157374
Zn12  Zn    Zn3+2 0.994040 1.000000 0.919480 1.124065
N1    N     N_R   0.651455 0.484021 0.993400 0.229723
O49   O     O_R   0.668474 0.518152 0.917288 -0.426986
O50   O     O_R   0.633896 0.521309 0.067180 -0.388580
N2    N     N_R   0.448937 0.682427 0.890505 0.210773
O51   O     O_R   0.480271 0.715528 0.916466 -0.398727
O52   O     O_R   0.471152 0.656079 0.809379 -0.403951
N3    N     N_R   0.444383 0.318490 0.891654 0.214975
O53   O     O_R   0.466252 0.346482 0.811095 -0.398384
O54   O     O_R   0.475945 0.285114 0.916085 -0.423540
N4    N     N_R   0.544176 0.685128 0.109717 0.212972
O55   O     O_R   0.511379 0.714511 0.084932 -0.397301
O56   O     O_R   0.523217 0.655080 0.189048 -0.381816
N5    N     N_R   0.054659 0.822136 0.110912 0.215831
O57   O     O_R   0.033927 0.851875 0.190087 -0.364913
O58   O     O_R   0.022031 0.787473 0.088914 -0.382986
N6    N     N_R   0.956690 0.180339 0.888330 0.228876
O59   O     O_R   0.989496 0.212666 0.911779 -0.376059
O60   O     O_R   0.977612 0.150299 0.809295 -0.384889
N7    N     N_R   0.942137 0.806879 0.902708 0.210563
O61   O     O_R   0.968028 0.827182 0.818577 -0.398399
O62   O     O_R   0.969292 0.773287 0.935612 -0.383031
N8    N     N_R   0.044821 0.191055 0.105239 0.209551
O63   O     O_R   0.014035 0.220026 0.076049 -0.382677
O64   O     O_R   0.021704 0.165263 0.186988 -0.374069
O65   O     O_3   0.764452 0.159372 0.728655 -0.568580
C189  C     C_3   0.768704 0.091552 0.762274 0.075896
H37   H     H_    0.726571 0.069119 0.803640 0.135810
H38   H     H_    0.789192 0.092689 0.804536 0.150081
C190  C     C_3   0.801731 0.042321 0.682360 -0.613554
H39   H     H_    0.845790 0.058654 0.647562 0.273451
H40   H     H_    0.798430 0.985964 0.705735 0.269053
H41   H     H_    0.786308 0.045307 0.633278 0.228859
O66   O     O_3   0.299263 0.868693 0.191433 -0.596810
C191  C     C_3   0.274523 0.914107 0.266110 0.141144
H42   H     H_    0.245102 0.886399 0.329693 0.183452
H43   H     H_    0.252328 0.955822 0.251257 0.187826
C192  C     C_3   0.320477 0.949652 0.277145 -0.795174
H44   H     H_    0.342703 0.908107 0.293650 0.270558
H45   H     H_    0.350041 0.977450 0.213559 0.265633
H46   H     H_    0.303918 0.990181 0.331377 0.193220
O67   O     O_3   0.214919 0.168516 0.297969 -0.554457
C193  C     C_3   0.236054 0.099571 0.295358 0.139673
H47   H     H_    0.275463 0.104512 0.296686 0.137788
H48   H     H_    0.243216 0.069437 0.234000 0.147858
C194  C     C_3   0.193642 0.058954 0.379490 -0.667154
H49   H     H_    0.158909 0.040015 0.369800 0.284129
H50   H     H_    0.211743 0.011841 0.394798 0.161753
H51   H     H_    0.177138 0.094961 0.439124 0.258049
O68   O     O_3   0.737131 0.865911 0.741533 -0.571591
C195  C     C_3   0.693649 0.911123 0.801291 0.069225
H52   H     H_    0.709383 0.949601 0.833736 0.153656
H53   H     H_    0.658040 0.881245 0.856335 0.155086
C196  C     C_3   0.670981 0.952175 0.749565 -0.792199
H54   H     H_    0.648793 0.914008 0.727685 0.242783
H55   H     H_    0.641764 0.993816 0.793518 0.218107
H56   H     H_    0.704832 0.978917 0.689662 0.262527
O69   O     O_3   0.237026 0.637322 0.744834 -0.564542
C197  C     C_3   0.198180 0.585813 0.804021 0.104240
H57   H     H_    0.162557 0.610845 0.863315 0.142123
H58   H     H_    0.218661 0.548109 0.828806 0.217336
C198  C     C_3   0.175024 0.542692 0.753945 -0.738956
H59   H     H_    0.208902 0.516753 0.694360 0.262659
H60   H     H_    0.146383 0.500096 0.798773 0.234022
H61   H     H_    0.152310 0.579050 0.732006 0.236886
O70   O     O_3   0.755100 0.368106 0.273821 -0.551801
C199  C     C_3   0.696609 0.374335 0.320281 0.192399
H62   H     H_    0.676765 0.321295 0.349299 0.123909
H63   H     H_    0.679762 0.393003 0.276473 0.114756
C200  C     C_3   0.678568 0.429129 0.396156 -0.750180
H64   H     H_    0.703629 0.479481 0.371458 0.273556
H65   H     H_    0.634629 0.442541 0.421967 0.178297
H66   H     H_    0.682563 0.406607 0.452847 0.253091
O71   O     O_3   0.681920 0.779991 0.335557 -0.552313
C201  C     C_3   0.653841 0.711746 0.354473 0.216654
H67   H     H_    0.682520 0.667187 0.345310 0.141343
H68   H     H_    0.635454 0.699640 0.310523 0.115302
C202  C     C_3   0.606417 0.709514 0.450773 -0.759322
H69   H     H_    0.579810 0.756958 0.463133 0.283081
H70   H     H_    0.581371 0.659686 0.461416 0.186945
H71   H     H_    0.621683 0.708988 0.499840 0.247518
O72   O     O_3   0.248420 0.367700 0.724652 -0.602586
C203  C     C_3   0.299667 0.405949 0.682403 0.162557
H72   H     H_    0.334011 0.373256 0.679002 0.134273
H73   H     H_    0.294962 0.457719 0.718244 0.232927
C204  C     C_3   0.317087 0.428219 0.586257 -0.768603
H74   H     H_    0.283586 0.457021 0.583153 0.254999
H75   H     H_    0.352941 0.465829 0.561633 0.208087
H76   H     H_    0.330499 0.380876 0.541455 0.248495
N9    N     N_R   0.859006 0.227640 0.733846 0.210411
O73   O     O_R   0.893283 0.276721 0.732447 -0.369467
O74   O     O_R   0.873120 0.190080 0.661200 -0.378208
N10   N     N_R   0.196296 0.885283 0.188578 0.190575
O75   O     O_R   0.203063 0.934253 0.129090 -0.319821
O76   O     O_R   0.161698 0.896296 0.273298 -0.420599
N11   N     N_R   0.169726 0.133616 0.199099 0.209535
O77   O     O_R   0.127704 0.135306 0.280156 -0.347169
O78   O     O_R   0.173606 0.081025 0.145561 -0.323732
N12   N     N_R   0.820383 0.874072 0.788217 0.200033
O79   O     O_R   0.822841 0.928064 0.835287 -0.410934
O80   O     O_R   0.853912 0.872637 0.701770 -0.397000
N13   N     N_R   0.314467 0.622391 0.800576 0.206693
O81   O     O_R   0.343382 0.610967 0.714301 -0.380369
O82   O     O_R   0.314805 0.574705 0.856415 -0.304453
N14   N     N_R   0.762381 0.444722 0.119865 0.219870
O83   O     O_R   0.757716 0.485467 0.185589 -0.357801
O84   O     O_R   0.779514 0.475155 0.041440 -0.336996
N15   N     N_R   0.630017 0.827821 0.235196 0.215590
O85   O     O_R   0.613453 0.859775 0.184597 -0.369430
O86   O     O_R   0.602537 0.839620 0.321505 -0.345913
N16   N     N_R   0.285861 0.406711 0.854395 0.204733
O87   O     O_R   0.248920 0.449480 0.912851 -0.355780
O88   O     O_R   0.337365 0.426772 0.814429 -0.377517

loop_
_geom_bond_atom_site_label_1
_geom_bond_atom_site_label_2
_geom_bond_distance
_ccdc_geom_bond_type
O4    C4    1.241283 A    
O71   C201  1.430111 S    
C101  C149  1.423091 A    
C130  C138  1.463084 A    
C194  H50   1.104838 S    
C59   C64   1.380142 A    
C23   C70   1.398552 A    
N3    O53   1.301701 A    
O7    Zn7   2.007194 S    
O31   Zn4   2.069433 S    
C135  C143  1.422330 A    
O8    Zn8   2.007194 S    
C196  H54   1.110486 S    
C105  C153  1.425591 A    
N7    O62   1.301682 A    
C119  C127  1.379807 A    
O68   C195  1.420912 S    
O18   Zn2   2.000980 S    
C117  C125  1.371734 A    
C77   C98   1.416244 A    
C110  C118  1.378383 A    
C159  H31   1.082186 S    
C108  C156  1.414663 A    
C169  O69   1.385048 S    
C80   C99   1.403717 A    
C171  O71   1.387000 S    
C38   C40   1.399377 A    
C81   C94   1.420392 A    
C127  C135  1.470470 A    
C125  C133  1.460119 A    
O30   C6    1.313946 A    
C201  C202  1.521123 S    
C133  C141  1.422567 A    
C33   C35   1.409357 A    
C179  N15   1.451642 S    
C47   C55   1.418693 A    
C193  H47   1.111136 S    
C36   C43   1.406459 A    
C128  C136  1.435837 A    
C87   C95   1.423642 A    
C120  C128  1.371329 A    
C204  H76   1.102748 S    
C154  N6    1.440514 S    
C2    C126  1.474414 S    
C83   C91   1.406272 A    
O23   Zn7   2.024515 S    
C132  C140  1.454760 A    
O40   Zn9   1.988479 S    
C25   C27   1.400219 A    
O45   Zn9   2.001655 S    
O6    Zn6   2.013236 S    
C200  H65   1.110687 S    
C29   C31   1.402425 A    
C202  H71   1.105206 S    
C189  H38   1.113854 S    
C106  C114  1.427383 A    
C38   C42   1.404155 A    
C45   C53   1.424332 A    
C197  H57   1.117150 S    
O47   Zn10  1.977802 S    
C102  C142  1.403627 A    
O27   C3    1.311797 A    
C134  C166  1.398026 A    
C202  H70   1.110583 S    
N7    O61   1.301637 A    
C86   C94   1.435920 A    
C87   C175  1.395660 A    
C136  C144  1.404648 A    
C193  C194  1.529506 S    
N8    O63   1.301395 A    
C169  C177  1.414933 A    
C138  C170  1.445662 A    
C198  H61   1.109904 S    
C50   C68   1.412716 A    
C167  C175  1.398640 A    
H2    C31   1.083511 S    
C108  C116  1.419995 A    
C200  H66   1.104726 S    
O30   Zn1   2.069821 S    
C34   C36   1.409860 A    
C48   C56   1.428443 A    
H6    C27   1.083770 S    
C175  N11   1.442042 S    
C196  H56   1.106514 S    
N6    O59   1.301418 A    
O41   Zn11  2.001655 S    
C83   C147  1.426354 A    
O42   Zn12  2.001656 S    
C116  C124  1.375215 A    
O43   C181  1.265777 A    
O48   C186  1.281701 A    
C15   C56   1.441711 S    
C191  C192  1.523298 S    
C45   C71   1.415967 A    
C197  C198  1.516381 S    
C100  C159  1.403481 A    
C149  N1    1.434278 S    
H7    C26   1.083661 S    
O24   Zn8   2.024515 S    
O9    C9    1.261135 A    
C50   C58   1.422386 A    
C60   C63   1.373685 A    
N9    O74   1.301112 A    
N1    O50   1.301985 A    
O72   C203  1.425564 S    
O13   C13   1.263123 A    
C195  C196  1.517028 S    
O43   Zn12  1.977802 S    
C104  C144  1.411434 A    
C173  N9    1.442952 S    
C11   C60   1.460596 S    
C199  H62   1.111856 S    
C13   C54   1.464010 S    
C118  H22   1.084873 S    
C152  N4    1.437280 S    
O47   C185  1.269010 A    
C40   C41   1.402418 A    
C74   H18   1.076896 S    
O12   C12   1.250617 A    
C192  H44   1.110624 S    
O44   C182  1.273817 A    
O7    C7    1.235098 A    
O9    Zn6   2.100743 S    
O8    C8    1.232962 A    
C150  C158  1.407842 A    
O11   Zn8   2.118945 S    
C91   C99   1.424268 A    
N13   O82   1.300169 A    
C103  C151  1.423555 A    
O70   C199  1.427680 S    
C157  H29   1.078829 S    
O34   C182  1.227065 A    
C21   C29   1.404581 A    
O16   Zn3   2.118945 S    
C107  C147  1.417830 A    
C121  C129  1.374510 A    
C116  C181  1.471031 S    
C114  C122  1.379506 A    
C23   C31   1.407341 A    
C22   C40   1.402175 A    
C34   C44   1.402387 A    
O22   Zn6   2.000980 S    
C152  C160  1.405064 A    
C26   C28   1.400888 A    
C55   C62   1.381595 A    
C52   C74   1.422359 A    
N3    O54   1.301779 A    
O18   C10   1.293094 A    
C30   C32   1.395957 A    
C190  H40   1.103761 S    
C18   C26   1.405829 A    
C72   H16   1.080629 S    
C191  H43   1.097789 S    
O2    Zn2   2.013236 S    
N14   O83   1.300834 A    
C124  C132  1.385685 A    
H8    C25   1.083596 S    
C6    C130  1.485194 S    
C62   H10   1.081183 S    
C112  C185  1.457655 S    
C101  C109  1.442210 A    
N5    O58   1.301825 A    
H1    C32   1.083669 S    
C111  C119  1.369652 A    
C45   C65   1.412578 A    
H3    C30   1.083633 S    
C109  C117  1.374435 A    
O20   C12   1.288517 A    
N10   O76   1.301063 A    
O21   C13   1.288619 A    
H5    C28   1.083476 S    
C14   C53   1.456330 S    
C52   C60   1.434675 A    
O23   C15   1.281088 A    
O44   Zn11  1.977803 S    
O24   C16   1.281256 A    
N14   O84   1.302386 A    
C48   C65   1.408178 A    
N16   O87   1.300538 A    
O17   Zn1   2.000980 S    
C84   C148  1.416691 A    
C195  H52   1.109674 S    
C16   C55   1.458169 S    
C78   C142  1.425793 A    
C167  O67   1.375116 S    
N2    O52   1.301645 A    
C49   C67   1.411602 A    
C4    C128  1.465619 S    
O3    C3    1.218904 A    
C192  H46   1.103043 S    
C86   C174  1.433526 A    
C52   C67   1.416295 A    
C99   C160  1.408578 A    
O46   Zn10  2.001656 S    
C201  H68   1.113547 S    
C203  C204  1.515925 S    
C46   C54   1.422986 A    
C166  C174  1.426362 A    
O37   Zn9   1.966700 S    
C105  C145  1.410957 A    
C41   C65   1.408162 A    
C19   C33   1.403519 A    
C94   C161  1.407130 A    
C43   C67   1.413578 A    
C104  C112  1.436185 A    
C19   C27   1.405369 A    
C153  C161  1.407677 A    
C64   H12   1.084306 S    
C163  H35   1.081856 S    
C107  C115  1.429575 A    
C12   C59   1.467923 S    
N15   O86   1.300863 A    
C7    C131  1.453839 S    
C3    C127  1.461326 S    
C20   C28   1.405276 A    
C122  H26   1.084546 S    
C20   C34   1.404999 A    
C108  C148  1.413749 A    
C44   C68   1.411605 A    
C49   C57   1.428258 A    
C24   C32   1.402661 A    
C96   C163  1.404898 A    
C46   C66   1.411775 A    
C138  C146  1.429096 A    
C78   C86   1.412301 A    
O12   Zn7   2.118945 S    
C1    C125  1.476813 S    
O13   Zn2   2.100743 S    
O36   C184  1.222383 A    
O37   C185  1.229601 A    
C154  C162  1.394241 A    
C88   C176  1.418306 A    
C193  H48   1.111980 S    
C165  O65   1.384087 S    
O6    C6    1.248109 A    
C170  O70   1.388586 S    
C20   C73   1.404564 A    
C149  C157  1.400593 A    
C204  H75   1.110992 S    
C102  C150  1.425722 A    
N12   O79   1.301589 A    
C24   C69   1.388509 A    
O10   C10   1.255378 A    
C129  C137  1.445281 A    
C106  C154  1.418343 A    
C200  H64   1.110424 S    
N11   O77   1.302118 A    
O14   C14   1.253419 A    
C118  C126  1.370574 A    
O39   Zn10  1.988477 S    
C42   C66   1.404652 A    
C77   C85   1.411827 A    
O35   Zn12  1.988477 S    
C75   H19   1.077664 S    
C76   H20   1.078845 S    
C91   C179  1.401443 A    
N4    O55   1.301374 A    
C197  H58   1.110611 S    
C119  H23   1.085368 S    
O5    C5    1.248848 A    
C53   C61   1.373415 A    
C126  C134  1.438770 A    
C95   C164  1.410307 A    
C117  H21   1.085748 S    
O45   C187  1.269114 A    
C171  C179  1.416356 A    
N5    O57   1.301644 A    
O46   C188  1.272083 A    
O10   Zn5   2.100743 S    
C203  H72   1.114814 S    
C120  H24   1.084815 S    
C121  H25   1.084844 S    
O41   C183  1.267698 A    
C174  N10   1.431998 S    
N6    O60   1.301800 A    
C168  O68   1.383858 S    
C122  C130  1.386505 A    
N8    O64   1.301594 A    
C124  H28   1.084769 S    
O35   C183  1.232363 A    
C198  H60   1.110411 S    
C103  C111  1.440276 A    
C21   C39   1.405749 A    
C139  C171  1.448134 A    
C112  C120  1.378844 A    
C50   C76   1.419336 A    
C57   C63   1.376606 A    
C113  C121  1.378864 A    
C140  C172  1.453944 A    
C196  H55   1.110869 S    
C155  C163  1.406002 A    
C150  N2    1.439787 S    
C180  N16   1.435945 S    
C9    C58   1.458847 S    
O1    C1    1.237340 A    
C17   C76   1.399609 A    
O25   Zn6   2.069821 S    
C82   C146  1.433153 A    
C19   C74   1.401649 A    
C37   C41   1.407221 A    
O27   Zn8   2.069433 S    
C8    C132  1.456433 S    
C199  C200  1.523396 S    
O65   C189  1.409958 S    
C101  C141  1.412537 A    
C77   C141  1.439882 A    
O32   Zn3   2.069433 S    
C135  C167  1.463449 A    
N1    O49   1.301394 A    
C113  C184  1.463398 S    
C47   C69   1.417298 A    
C133  C165  1.430707 A    
C114  C183  1.471405 S    
C102  C110  1.437013 A    
C79   C87   1.412183 A    
C170  C178  1.429280 A    
C139  C147  1.427453 A    
C109  C188  1.460031 S    
O15   Zn4   2.118945 S    
C137  C169  1.414274 A    
C110  C187  1.448105 S    
C98   C157  1.403274 A    
C107  C155  1.424675 A    
C111  C186  1.482513 S    
N16   O88   1.301606 A    
O22   C14   1.295611 A    
C79   C100  1.408277 A    
C54   C62   1.384777 A    
O42   C184  1.275100 A    
O36   Zn11  1.988479 S    
C80   C144  1.422955 A    
N13   O81   1.301418 A    
O48   Zn9   1.977803 S    
C158  H30   1.081345 S    
C155  N7    1.440551 S    
C189  H37   1.108218 S    
C89   C177  1.427129 A    
C90   C98   1.435303 A    
C71   H15   1.080125 S    
O2    C2    1.250639 A    
C69   H13   1.077516 S    
C162  H34   1.074196 S    
C24   C38   1.400122 A    
C51   C59   1.430149 A    
C21   C72   1.405791 A    
C48   C70   1.425272 A    
C82   C90   1.401462 A    
C190  H39   1.109252 S    
O38   Zn10  1.966700 S    
O39   C187  1.221031 A    
O3    Zn3   2.007194 S    
O67   C193  1.403212 S    
C10   C57   1.452647 S    
C92   C180  1.403667 A    
N11   O78   1.300847 A    
C33   C43   1.402728 A    
O28   C4    1.295211 A    
C84   C92   1.399211 A    
C172  O72   1.410538 S    
C39   C42   1.399714 A    
O29   C5    1.307805 A    
C172  C180  1.444137 A    
C88   C96   1.430459 A    
C151  C159  1.404922 A    
C89   C97   1.433074 A    
C160  H32   1.081368 S    
C189  C190  1.522606 S    
N4    O56   1.301545 A    
C92   C100  1.428092 A    
O19   C11   1.293414 A    
C177  N13   1.436994 S    
C194  H49   1.110344 S    
C164  H36   1.079419 S    
O15   C15   1.242459 A    
C49   C75   1.422988 A    
C151  N3    1.440183 S    
C80   C88   1.416006 A    
O16   C16   1.252567 A    
C81   C89   1.418785 A    
N15   O85   1.302153 A    
C51   C73   1.419328 A    
C58   C64   1.382342 A    
O69   C197  1.417371 S    
C35   C44   1.406485 A    
C153  N5    1.439905 S    
O4    Zn4   2.007194 S    
O5    Zn5   2.013236 S    
C156  C164  1.397301 A    
C56   C61   1.378556 A    
C195  H53   1.117201 S    
C17   C35   1.403059 A    
O14   Zn1   2.100743 S    
C105  C113  1.443105 A    
O38   C186  1.225650 A    
C17   C25   1.405028 A    
C18   C75   1.400044 A    
C136  C168  1.414800 A    
C51   C68   1.417436 A    
C23   C37   1.399647 A    
C22   C71   1.390576 A    
O26   C2    1.304464 A    
C192  H45   1.110860 S    
C137  C145  1.410732 A    
O11   C11   1.245468 A    
C5    C129  1.477459 S    
C61   H9    1.085444 S    
C85   C93   1.433107 A    
C104  C152  1.424114 A    
C140  C148  1.412526 A    
C201  H67   1.111531 S    
C134  C142  1.405460 A    
O28   Zn7   2.069433 S    
C203  H73   1.109397 S    
O29   Zn2   2.069821 S    
C37   C39   1.406358 A    
C47   C66   1.410257 A    
H4    C29   1.083455 S    
C22   C30   1.403437 A    
C81   C145  1.433603 A    
C103  C143  1.424715 A    
C190  H41   1.110315 S    
C79   C143  1.434764 A    
C123  C131  1.375637 A    
C199  H63   1.112712 S    
C191  H42   1.109019 S    
C131  C139  1.454645 A    
C85   C173  1.408970 A    
C176  N12   1.434460 S    
C106  C146  1.412020 A    
C97   C158  1.409353 A    
C165  C173  1.408573 A    
C194  H51   1.110676 S    
C93   C162  1.405979 A    
C178  N14   1.451022 S    
O26   Zn5   2.069821 S    
N10   O75   1.300630 A    
O33   Zn11  1.966700 S    
C204  H74   1.102775 S    
C73   H17   1.078460 S    
N12   O80   1.300977 A    
C115  C123  1.366784 A    
C123  H27   1.085434 S    
O34   Zn12  1.966700 S    
C202  H69   1.107630 S    
O33   C181  1.235979 A    
N2    O51   1.301645 A    
C168  C176  1.411069 A    
C84   C95   1.401720 A    
C115  C182  1.462537 S    
O20   Zn4   2.024515 S    
N9    O73   1.302330 A    
O21   Zn5   2.000980 S    
C78   C97   1.412612 A    
C83   C96   1.412947 A    
C90   C178  1.411481 A    
O40   C188  1.220849 A    
O31   C7    1.302773 A    
O32   C8    1.301052 A    
C82   C93   1.417615 A    
O66   C191  1.396316 S    
O17   C9    1.287116 A    
C18   C36   1.401539 A    
O19   Zn3   2.024515 S    
C161  H33   1.080851 S    
O25   C1    1.318053 A    
C63   H11   1.082384 S    
C166  O66   1.381800 S    
C156  N8    1.439272 S    
C198  H59   1.105825 S    
O1    Zn1   2.013236 S    
C70   H14   1.077745 S    
C46   C72   1.418555 A    
