data_mof_unit_39656.cif
_audit_creation_date              2012-12-10T19:12:17-0500
_audit_creation_method            fapswitch 2.2
_symmetry_space_group_name_H-M    P1
_symmetry_Int_Tables_number       1
_space_group_crystal_system       triclinic
_cell_length_a                    7.774562
_cell_length_b                    9.084645
_cell_length_c                    17.087247
_cell_angle_alpha                 89.856682
_cell_angle_beta                  91.602935
_cell_angle_gamma                 89.901113
_cell_volume                      1206.37950448

loop_
_atom_site_label
_atom_site_type_symbol
_atom_type_description
_atom_site_fract_x
_atom_site_fract_y
_atom_site_fract_z
_atom_type_partial_charge
C1    C     C_R   0.500073 0.219990 0.499864 0.832627
C2    C     C_R   0.499866 0.779988 0.498656 0.828528
C3    C     C_R   0.516959 0.505370 0.651084 0.891959
C4    C     C_R   0.483025 0.494736 0.349006 0.893586
C5    C     C_R   0.513296 0.517461 0.736754 -0.252480
C6    C     C_R   0.487113 0.488871 0.263428 -0.257003
C7    C     C_R   0.394850 0.615931 0.770883 0.079939
C8    C     C_R   0.602627 0.390474 0.227533 0.077737
C9    C     C_R   0.370080 0.612100 0.851625 0.406393
C10   C     C_R   0.632313 0.402675 0.147568 0.382171
C11   C     C_R   0.465862 0.515126 0.899114 0.076786
C12   C     C_R   0.541782 0.506330 0.102064 0.066478
C13   C     C_R   0.585747 0.417094 0.865721 0.370681
C14   C     C_R   0.426297 0.604992 0.137279 0.372943
C15   C     C_R   0.612953 0.421651 0.784653 0.096382
C16   C     C_R   0.394109 0.592604 0.217579 0.080851
C17   C     C_1   0.500113 0.065382 0.499225 -0.188256
C18   C     C_1   0.499865 0.934638 0.498735 -0.196621
Cu1   Cu    Cu3+1 0.669080 0.500010 0.500000 0.993397
Cu2   Cu    Cu3+1 0.330920 0.499990 0.500000 0.990295
N1    N     N_1   0.076820 0.499970 0.500010 -0.051393
N2    N     N_1   0.923180 0.500030 0.499990 -0.050588
N3    N     N_2   0.436369 0.517784 0.980415 -0.136309
N4    N     N_2   0.571493 0.508951 0.020910 -0.144843
O1    O     O_R   0.642760 0.288400 0.500000 -0.577309
O2    O     O_R   0.357240 0.711600 0.500000 -0.579678
O3    O     O_R   0.357190 0.288380 0.500000 -0.582937
O4    O     O_R   0.642810 0.711620 0.500000 -0.580197
O5    O     O_R   0.658410 0.498660 0.613920 -0.550037
O6    O     O_R   0.341590 0.501340 0.386080 -0.555148
O7    O     O_R   0.372840 0.498650 0.613930 -0.602320
O8    O     O_R   0.627160 0.501350 0.386070 -0.608543
N5    N     N_2   0.687060 0.274663 0.269966 -0.383011
H1    H     H_    0.758391 0.305499 0.318801 0.274166
C19   C     C_3   0.582042 0.145951 0.281840 -0.655872
H2    H     H_    0.661069 0.057958 0.310314 0.221309
H3    H     H_    0.531497 0.104283 0.224650 0.234354
H4    H     H_    0.472950 0.172707 0.319990 0.202572
N6    N     N_2   0.302425 0.723230 0.725537 -0.383083
H5    H     H_    0.218642 0.682101 0.683343 0.286459
C20   C     C_3   0.405102 0.845756 0.699511 -0.682463
H6    H     H_    0.471047 0.899478 0.750213 0.212707
H7    H     H_    0.320933 0.928131 0.669276 0.228077
H8    H     H_    0.504174 0.807941 0.658752 0.213728
O9    O     O_3   0.742776 0.305084 0.112390 -0.538546
C21   C     C_3   0.909227 0.366752 0.114195 -0.193192
H9    H     H_    0.912566 0.471939 0.080704 0.173334
H10   H     H_    0.998180 0.288757 0.086028 0.181111
H11   H     H_    0.957773 0.384270 0.175381 0.145602
O10   O     O_3   0.239782 0.693796 0.884282 -0.525061
C22   C     C_3   0.296994 0.838775 0.898823 -0.204703
H12   H     H_    0.437041 0.846435 0.914261 0.115917
H13   H     H_    0.225414 0.883083 0.948806 0.190060
H14   H     H_    0.264780 0.910270 0.847831 0.169440
O11   O     O_3   0.676566 0.315630 0.911376 -0.534463
C23   C     C_3   0.566543 0.197785 0.930213 -0.237329
H15   H     H_    0.646644 0.104123 0.951709 0.180806
H16   H     H_    0.488708 0.158172 0.878781 0.106975
H17   H     H_    0.479713 0.228726 0.977980 0.184155
O12   O     O_3   0.349106 0.717453 0.094300 -0.542300
C24   C     C_3   0.466573 0.835573 0.090550 -0.287961
H18   H     H_    0.522318 0.865246 0.149131 0.156230
H19   H     H_    0.397587 0.934222 0.067612 0.163263
H20   H     H_    0.571776 0.809679 0.050028 0.171950
N7    N     N_2   0.740154 0.329634 0.751246 -0.377626
H21   H     H_    0.849851 0.316170 0.785905 0.287814
C25   C     C_3   0.677422 0.191719 0.719422 -0.641525
H22   H     H_    0.651187 0.113505 0.767488 0.210717
H23   H     H_    0.777056 0.142719 0.682125 0.231357
H24   H     H_    0.558536 0.208175 0.682868 0.210628
N8    N     N_2   0.269344 0.685647 0.251980 -0.385967
H25   H     H_    0.162110 0.707932 0.216994 0.277880
C26   C     C_3   0.334967 0.813374 0.293569 -0.642153
H26   H     H_    0.314039 0.913588 0.257216 0.211869
H27   H     H_    0.474540 0.802909 0.308683 0.204193
H28   H     H_    0.263973 0.826707 0.348517 0.241493

loop_
_geom_bond_atom_site_label_1
_geom_bond_atom_site_label_2
_ccdc_geom_bond_type
Cu1   Cu2   S    
C24   H20   S    
C3    O7    A    
N3    N4    D    
C26   H28   S    
Cu2   O3    S    
C23   H16   S    
C2    C18   S    
C9    C11   A    
C26   H26   S    
C12   N4    S    
C1    C17   S    
C19   H2    S    
C23   H17   S    
O11   C23   S    
C25   H24   S    
C1    O3    A    
N1    N2    T    
C22   H14   S    
C10   O9    S    
N5    H1    S    
C3    C5    S    
N8    H25   S    
C2    O2    A    
Cu2   O6    S    
O9    C21   S    
Cu2   N1    S    
C2    O4    A    
C1    O1    A    
Cu1   O4    S    
C26   H27   S    
C21   H11   S    
C3    O5    A    
C4    O8    A    
C16   N8    S    
C10   C12   A    
Cu1   O8    S    
C11   N3    S    
N5    C19   S    
C12   C14   A    
C17   C18   T    
C5    C7    A    
C8    N5    S    
C13   C15   A    
C24   H18   S    
Cu1   O1    S    
C20   H8    S    
C21   H10   S    
C5    C15   A    
C4    C6    S    
N7    C25   S    
C9    O10   S    
C25   H23   S    
C6    C16   A    
C25   H22   S    
Cu1   O5    S    
C7    C9    A    
C11   C13   A    
Cu1   N2    S    
C14   O12   S    
C23   H15   S    
C19   H3    S    
N6    C20   S    
N7    H21   S    
C20   H6    S    
N8    C26   S    
N6    H5    S    
C24   H19   S    
C7    N6    S    
C19   H4    S    
C6    C8    A    
O10   C22   S    
C22   H13   S    
C14   C16   A    
C21   H9    S    
C8    C10   A    
C4    O6    A    
C20   H7    S    
C22   H12   S    
Cu2   O2    S    
O12   C24   S    
C13   O11   S    
Cu2   O7    S    
C15   N7    S    
