data_mof_unit_18642.cif
_audit_creation_date              2012-12-10T17:10:25-0500
_audit_creation_method            fapswitch 2.2
_symmetry_space_group_name_H-M    P1
_symmetry_Int_Tables_number       1
_space_group_crystal_system       triclinic
_cell_length_a                    10.809233
_cell_length_b                    13.078351
_cell_length_c                    11.616303
_cell_angle_alpha                 100.336287
_cell_angle_beta                  91.814626
_cell_angle_gamma                 92.300866
_cell_volume                      1612.94667329

loop_
_atom_site_label
_atom_site_type_symbol
_atom_type_description
_atom_site_fract_x
_atom_site_fract_y
_atom_site_fract_z
_atom_type_partial_charge
C1    C     C_R   0.507388 0.299422 0.477734 0.895255
C2    C     C_R   0.492578 0.700648 0.521998 0.872225
C3    C     C_R   0.483960 0.814479 0.534719 -0.255076
C4    C     C_R   0.517037 0.185752 0.463505 -0.206683
C5    C     C_R   0.466149 0.016649 0.346166 -0.215153
C6    C     C_R   0.533533 0.984163 0.652374 -0.220975
C7    C     C_R   0.490356 0.122572 0.353163 0.522590
C8    C     C_R   0.507953 0.878238 0.645191 0.456682
C9    C     C_R   0.546484 0.138985 0.561260 -0.094544
C10   C     C_R   0.460298 0.860965 0.435275 -0.089632
C11   C     C_R   0.521947 0.031105 0.553313 0.007582
C12   C     C_R   0.481406 0.969307 0.444533 0.005873
C13   C     C_R   0.382412 0.398387 0.024280 -0.092787
C14   C     C_R   0.623335 0.597641 0.974816 -0.103991
C15   C     C_R   0.393310 0.410629 0.146844 0.063788
C16   C     C_R   0.608365 0.588198 0.852711 0.054887
C17   C     C_R   0.551626 0.542411 0.156415 0.098599
C18   C     C_R   0.449076 0.457319 0.843680 0.084467
C19   C     C_R   0.546713 0.534130 0.033134 0.020207
C20   C     C_R   0.459371 0.461542 0.966169 0.000344
C21   C     C_R   0.261172 0.491598 0.502478 0.836372
C22   C     C_R   0.738617 0.509539 0.497693 0.836668
C23   C     C_R   0.118219 0.557754 0.723457 -0.176719
C24   C     C_R   0.881866 0.448310 0.277557 -0.179241
C25   C     C_R   0.063680 0.625421 0.813201 -0.002168
C26   C     C_R   0.931230 0.375667 0.189644 0.026055
C27   C     C_R   0.959339 0.677299 0.785702 -0.224503
C28   C     C_R   0.029773 0.318388 0.219610 -0.214698
C29   C     C_R   0.902006 0.653984 0.673492 -0.050152
C30   C     C_R   0.092412 0.344929 0.329746 -0.120755
C31   C     C_R   0.945594 0.571290 0.590335 0.033582
C32   C     C_R   0.053216 0.431883 0.410546 0.053363
C33   C     C_R   0.065088 0.536616 0.608178 0.041913
C34   C     C_R   0.934924 0.468370 0.392462 0.040256
C35   C     C_R   0.874715 0.523953 0.489472 -0.111277
C36   C     C_R   0.124871 0.479723 0.511054 -0.126569
Cu1   Cu    Cu3+1 0.509250 0.507730 0.615930 1.005489
Cu2   Cu    Cu3+1 0.490750 0.492270 0.384070 0.991233
H1    H     H_    0.053851 0.251150 0.157545 0.205176
H2    H     H_    0.924276 0.737839 0.850974 0.236569
H3    H     H_    0.197403 0.517448 0.747150 0.190984
H4    H     H_    0.804881 0.491241 0.253975 0.216195
H5    H     H_    0.434157 0.972971 0.261878 0.175271
H6    H     H_    0.561151 0.028447 0.737514 0.195109
H7    H     H_    0.381333 0.405797 0.789657 0.174491
H8    H     H_    0.613326 0.598801 0.211498 0.174777
H9    H     H_    0.666004 0.635556 0.806767 0.181613
H10   H     H_    0.335393 0.363460 0.192687 0.144561
N1    N     N_R   0.523180 0.519350 0.790130 -0.217335
N2    N     N_R   0.476820 0.480650 0.209870 -0.216757
O1    O     O_R   0.506570 0.354460 0.582000 -0.570862
O2    O     O_R   0.493430 0.645540 0.418000 -0.576621
O3    O     O_R   0.490940 0.341410 0.386200 -0.545634
O4    O     O_R   0.509060 0.658590 0.613800 -0.538365
O5    O     O_R   0.327470 0.506520 0.597900 -0.608014
O6    O     O_R   0.672530 0.493480 0.402100 -0.610071
O7    O     O_R   0.311840 0.493460 0.402100 -0.577784
O8    O     O_R   0.688160 0.506540 0.597900 -0.578439
C37   C     C_2   0.289568 0.320029 0.961385 0.817940
O9    O     O_2   0.184931 0.315934 0.997369 -0.573225
O10   O     O_R   0.321848 0.249059 0.863368 -0.730140
H11   H     H_    0.250288 0.199272 0.829086 0.353638
C38   C     C_2   0.720213 0.673297 0.036400 0.864954
O11   O     O_2   0.733734 0.758919 0.008881 -0.564897
O12   O     O_R   0.799373 0.645741 0.122141 -0.750858
H12   H     H_    0.861046 0.704214 0.157567 0.363535
C39   C     C_2   0.118323 0.645766 0.934482 0.853653
O13   O     O_2   0.206344 0.597289 0.960333 -0.625908
O14   O     O_R   0.068765 0.720495 0.019974 -0.751600
H13   H     H_    0.113490 0.727235 0.099137 0.340633
C40   C     C_2   0.874464 0.354143 0.068951 0.868526
O15   O     O_2   0.789921 0.405863 0.042387 -0.609080
O16   O     O_R   0.916925 0.274061 0.985162 -0.720241
H14   H     H_    0.870615 0.267028 0.906642 0.354536
C41   C     C_2   0.813706 0.728512 0.638876 0.831382
O17   O     O_2   0.763223 0.788662 0.713846 -0.546905
O18   O     O_R   0.795926 0.735829 0.520856 -0.770875
H15   H     H_    0.741497 0.794652 0.509000 0.330210
C42   C     C_2   0.178480 0.269317 0.367721 0.861858
O19   O     O_2   0.194616 0.267511 0.471855 -0.562111
O20   O     O_R   0.234963 0.194310 0.287841 -0.703680
H16   H     H_    0.233031 0.206508 0.204436 0.307428
C43   C     C_2   0.410312 0.796893 0.323132 0.883787
O21   O     O_2   0.471306 0.788336 0.235257 -0.626081
O22   O     O_R   0.295931 0.742550 0.320477 -0.741408
H17   H     H_    0.274581 0.697517 0.241299 0.339932
C44   C     C_2   0.613142 0.201185 0.666567 0.883549
O23   O     O_2   0.714872 0.242334 0.656515 -0.587584
O24   O     O_R   0.558544 0.215582 0.775351 -0.733037
H18   H     H_    0.612848 0.260412 0.839281 0.341074
O25   O     O_3   0.514822 0.836513 0.746486 -0.519669
C45   C     C_3   0.405030 0.857544 0.807571 0.049616
H19   H     H_    0.321391 0.827658 0.750937 0.143387
H20   H     H_    0.398838 0.942649 0.839550 0.154659
C46   C     C_3   0.405495 0.803758 0.913290 -0.666748
H21   H     H_    0.489798 0.828955 0.970014 0.275514
H22   H     H_    0.322456 0.824133 0.964970 0.210810
H23   H     H_    0.403418 0.718148 0.883969 0.251675
O26   O     O_3   0.476410 0.165574 0.252993 -0.559424
C47   C     C_3   0.572285 0.135428 0.175524 0.055625
H24   H     H_    0.540792 0.146294 0.086746 0.190639
H25   H     H_    0.593721 0.051896 0.167478 0.153853
C48   C     C_3   0.689511 0.203974 0.211022 -0.781982
H26   H     H_    0.725214 0.195091 0.299179 0.235273
H27   H     H_    0.761832 0.180515 0.147104 0.227770
H28   H     H_    0.669375 0.286729 0.212135 0.262620

loop_
_geom_bond_atom_site_label_1
_geom_bond_atom_site_label_2
_ccdc_geom_bond_type
C44   O23   D    
C38   O12   S    
C27   C29   A    
C24   H4    S    
O16   H14   S    
C46   H21   S    
C25   C39   S    
O20   H16   S    
C46   H23   S    
C21   O5    A    
C21   C36   S    
O18   H15   S    
C22   C35   S    
C7    O26   S    
C43   O21   D    
C32   C36   A    
C24   C26   A    
Cu1   O1    S    
Cu2   O2    S    
C10   C43   S    
C33   C36   A    
Cu1   N1    S    
C34   C35   A    
C15   N2    A    
C1    O3    A    
C47   H24   S    
C19   C20   A    
C23   C33   A    
C31   C33   A    
C18   C20   A    
Cu1   O8    S    
C23   C25   A    
C5    H5    S    
C37   O9    D    
C6    H6    S    
C26   C40   S    
O14   H13   S    
C15   H10   S    
C4    C7    A    
C10   C12   A    
C16   H9    S    
C47   H25   S    
C37   O10   S    
C39   O13   D    
C16   N1    A    
C5    C12   A    
C3    C8    A    
C2    O4    A    
O25   C45   S    
C42   O20   S    
C22   O6    A    
C28   H1    S    
O22   H17   S    
C47   C48   S    
C24   C34   A    
C42   O19   D    
C39   O14   S    
C32   C34   A    
C41   O17   D    
C21   O7    A    
Cu1   Cu2   S    
Cu2   O7    S    
C9    C11   A    
O26   C47   S    
C27   H2    S    
C45   H20   S    
C48   H27   S    
C8    O25   S    
C17   H8    S    
C41   O18   S    
C2    O2    A    
C29   C41   S    
C30   C42   S    
C43   O22   S    
C13   C15   A    
C14   C16   A    
Cu1   O4    S    
O24   H18   S    
C18   H7    S    
C6    C11   A    
C5    C7    A    
C13   C20   A    
C14   C19   A    
C23   H3    S    
C17   N2    A    
C22   O8    A    
C6    C8    A    
C11   C12   A    
C46   H22   S    
Cu2   N2    S    
C25   C27   A    
C26   C28   A    
C1    O1    A    
C1    C4    S    
C28   C30   A    
C2    C3    S    
C4    C9    A    
C40   O15   D    
C29   C31   A    
C3    C10   A    
C9    C44   S    
C30   C32   A    
Cu2   O3    S    
C14   C38   S    
C45   H19   S    
C17   C19   A    
C48   H28   S    
C31   C35   A    
C45   C46   S    
O10   H11   S    
C38   O11   D    
Cu1   O5    S    
Cu2   O6    S    
O12   H12   S    
C40   O16   S    
C48   H26   S    
C44   O24   S    
C13   C37   S    
C18   N1    A    
