data_mof_unit_67145.cif
_audit_creation_date              2013-03-05T15:58:57-0500
_audit_creation_method            fapswitch 2.2
_symmetry_space_group_name_H-M    P1
_symmetry_Int_Tables_number       1
_space_group_crystal_system       triclinic
_cell_length_a                    8.377971
_cell_length_b                    12.933174
_cell_length_c                    15.004096
_cell_angle_alpha                 96.028601
_cell_angle_beta                  97.443106
_cell_angle_gamma                 99.234802
_cell_volume                      1577.95611994

loop_
_atom_site_label
_atom_site_type_symbol
_atom_site_description
_atom_site_fract_x
_atom_site_fract_y
_atom_site_fract_z
_atom_type_partial_charge
P1    P     P_3+3 0.998730 0.403530 0.291970 0.472840
O1    O     O_2   0.827880 0.435260 0.277750 -0.406221
O2    O     O_3   0.100280 0.438960 0.391170 -0.356692
O3    O     O_3   0.625580 0.634130 0.333250 -0.351306
O4    O     O_2   0.701971 0.546789 0.177682 -0.452500
O5    O     O_3   0.972306 0.268742 0.267005 -0.604409
O6    O     O_3   0.598370 0.719464 0.156999 -0.621914
H1    H     H_    0.715994 0.842361 0.255671 0.006029
C1    C     C_3   0.617536 0.898088 0.131274 -0.563928
H2    H     H_    0.744255 0.910880 0.119350 0.238548
P2    P     P_3+3 0.687380 0.751030 0.571310 0.489829
P3    P     P_3+3 0.108723 0.826203 0.375553 0.568082
O7    O     O_2   0.857130 0.766340 0.543890 -0.416666
O8    O     O_3   0.056550 0.691050 0.379010 -0.426698
O9    O     O_2   0.969426 0.876862 0.410674 -0.357378
O10   O     O_3   0.727863 0.774918 0.689146 -0.527080
O11   O     O_3   0.102856 0.847889 0.260339 -0.408774
C2    C     C_3   0.015916 0.758974 0.200232 0.271252
H3    H     H_    0.890115 0.743151 0.214685 0.062683
H4    H     H_    0.067327 0.687060 0.213042 0.106693
C3    C     C_3   0.014860 0.775023 0.096631 0.316495
C4    C     C_3   0.222925 0.789734 0.666329 0.335917
H5    H     H_    0.342631 0.803855 0.642223 0.098319
H6    H     H_    0.125715 0.749525 0.611374 0.117111
C5    C     C_3   0.178035 0.895663 0.696587 -0.842672
H7    H     H_    0.256525 0.933751 0.760498 0.311698
H8    H     H_    0.193003 0.947338 0.642815 0.222142
H9    H     H_    0.049035 0.884820 0.708481 0.244487
Ba1   Ba    Ba6+2 0.843750 0.550210 0.455600 1.590201
C6    C     C_3   0.864485 0.216292 0.316661 0.637485
H10   H     H_    0.773660 0.263496 0.337480 0.025383
C7    C     C_3   0.777446 0.118914 0.254424 -0.196203
H11   H     H_    0.682398 0.143400 0.206502 0.137086
H12   H     H_    0.717975 0.059029 0.293284 0.132432
C8    C     C_3   0.762837 0.683768 0.724514 0.333112
H13   H     H_    0.875359 0.662631 0.701730 0.058422
H14   H     H_    0.660442 0.616166 0.704205 0.147592
C9    C     C_3   0.787801 0.706586 0.827478 -0.570697
H15   H     H_    0.819293 0.636831 0.857930 0.189569
H16   H     H_    0.672481 0.723296 0.850452 0.236040
P4    P     P_3+3 0.190990 0.596560 0.708040 0.462950
O12   O     O_2   0.361830 0.564780 0.722310 -0.368341
O13   O     O_3   0.089430 0.561130 0.608830 -0.426694
O14   O     O_3   0.564130 0.365960 0.666760 -0.354359
O15   O     O_3   0.239186 0.733580 0.740547 -0.531466
P5    P     P_3+3 0.082768 0.172839 0.628330 0.540043
O16   O     O_3   0.601940 0.368240 0.453770 -0.399713
O17   O     O_3   0.133170 0.309040 0.621000 -0.326414
O18   O     O_2   0.200454 0.120396 0.574369 -0.362883
O19   O     O_3   0.144735 0.153799 0.740473 -0.501372
Ba2   Ba    Ba6+2 0.346090 0.449880 0.544410 1.602588
P6    P     P_3+3 0.574715 0.607453 0.213743 0.466651
C10   C     C_3   0.605064 0.820921 0.203799 0.756887
H17   H     H_    0.587821 0.974482 0.155506 0.213387
O20   O     O_3   0.587780 0.631850 0.546230 -0.395893
C11   C     C_3   0.365149 0.229690 0.265909 0.434773
H18   H     H_    0.243746 0.200768 0.284974 0.193187
C12   C     C_3   0.360322 0.191859 0.165623 -0.766795
H19   H     H_    0.369805 0.107289 0.156106 0.310595
H20   H     H_    0.244885 0.204074 0.125947 0.249658
H21   H     H_    0.465168 0.236021 0.138944 0.203057
P7    P     P_3+3 0.509594 0.232203 0.433113 0.434870
O21   O     O_2   0.332590 0.233690 0.456160 -0.318565
O22   O     O_3   0.486490 0.187451 0.316673 -0.609551
C13   C     C_3   0.092016 0.230525 0.797697 0.459319
H22   H     H_    0.163931 0.309926 0.795100 0.100605
H23   H     H_    0.960020 0.231659 0.777576 0.010800
C14   C     C_3   0.117735 0.205885 0.895122 -0.733640
H24   H     H_    0.248405 0.230438 0.924930 0.252973
H25   H     H_    0.044316 0.249714 0.936824 0.195443
H26   H     H_    0.079352 0.120125 0.897864 0.315208
P8    P     P_3+3 0.611719 0.376386 0.784675 0.411067
C15   C     C_3   0.602202 0.187448 0.834902 0.657001
O23   O     O_2   0.523728 0.464255 0.819439 -0.409641
O24   O     O_3   0.504091 0.265359 0.822738 -0.568355
H27   H     H_    0.734722 0.220961 0.848713 -0.042652
C16   C     C_3   0.570829 0.106730 0.749714 -0.160469
H28   H     H_    0.616109 0.145087 0.693234 0.067168
H29   H     H_    0.437506 0.078764 0.729868 0.172399
C17   C     C_R   0.831975 0.425477 0.828620 0.131502
C18   C     C_R   0.899528 0.431211 0.921123 -0.041147
C19   C     C_R   0.037157 0.443213 0.107485 -0.074002
C20   C     C_R   0.873951 0.395891 0.076168 -0.015734
C21   C     C_R   0.805603 0.393030 0.985878 -0.192300
C22   C     C_R   0.103043 0.461110 0.201677 0.230035
H30   H     H_    0.794773 0.362725 0.121039 0.170889
H31   H     H_    0.676931 0.361319 0.968190 0.169779
C23   C     C_R   0.262517 0.513200 0.228083 -0.449937
C24   C     C_R   0.088561 0.523661 0.795056 0.242277
C25   C     C_R   0.161472 0.522619 0.887088 -0.006641
C26   C     C_R   0.066611 0.475528 0.949669 0.026389
C27   C     C_R   0.325626 0.567123 0.919555 0.018359
C28   C     C_R   0.399064 0.556426 0.006449 -0.134991
C29   C     C_R   0.305260 0.518314 0.071179 0.022930
C30   C     C_R   0.136626 0.478080 0.042590 0.014615
C31   C     C_R   0.368065 0.534142 0.165711 0.316786
C32   C     C_R   0.928142 0.469468 0.767438 -0.527178
H32   H     H_    0.528318 0.586328 0.023882 0.157941
H33   H     H_    0.400436 0.612384 0.879216 0.164123
H34   H     H_    0.309834 0.531055 0.299284 0.154087
H35   H     H_    0.873050 0.467157 0.697772 0.178704
C33   C     C_R   0.761545 0.180730 0.549361 -0.439843
C34   C     C_R   0.413561 0.812237 0.478705 -0.310776
C35   C     C_R   0.379133 0.988802 0.450634 -0.097972
C36   C     C_R   0.314345 0.880876 0.443480 0.257773
C37   C     C_R   0.575545 0.850233 0.521011 0.292567
C38   C     C_R   0.640709 0.961091 0.530670 -0.087283
C39   C     C_R   0.540887 0.030730 0.493807 -0.088965
C40   C     C_R   0.606538 0.140571 0.500477 0.244151
C41   C     C_R   0.863814 0.114084 0.582835 0.274164
C42   C     C_R   0.803081 0.004619 0.573710 -0.080816
H36   H     H_    0.302065 0.038618 0.419901 0.214670
H37   H     H_    0.884099 0.954842 0.600008 0.159664
H38   H     H_    0.807906 0.264632 0.555480 0.173736
N1    N     N_R   0.957759 0.190119 0.396747 0.190347
O25   O     O_R   0.035288 0.267211 0.455989 -0.338971
O26   O     O_R   0.971984 0.093696 0.408734 -0.398068
N2    N     N_R   0.893287 0.075851 0.202758 0.260637
O27   O     O_R   0.909542 0.103974 0.123213 -0.292756
O28   O     O_R   0.003627 0.029990 0.243222 -0.306901
N3    N     N_3   0.918211 0.796709 0.859556 -0.100667
H39   H     H_    0.021951 0.785164 0.830936 0.209805
H40   H     H_    0.882085 0.864886 0.838492 0.269698
N4    N     N_R   0.464070 0.833014 0.249234 0.250274
O29   O     O_R   0.432276 0.926946 0.270141 -0.419244
O30   O     O_R   0.389880 0.755309 0.284450 -0.436420
N5    N     N_3   0.400615 0.344458 0.278078 -0.240820
H41   H     H_    0.364523 0.372852 0.338606 0.151804
H42   H     H_    0.525961 0.370576 0.280912 0.164432
N6    N     N_3   0.514548 0.862896 0.043365 -0.105577
H43   H     H_    0.503641 0.782334 0.022616 0.206492
H44   H     H_    0.399307 0.882463 0.046335 0.269450
N7    N     N_R   0.150060 0.737292 0.060283 0.219664
O31   O     O_R   0.162263 0.739632 0.975101 -0.441356
O32   O     O_R   0.272850 0.719988 0.113702 -0.434765
N8    N     N_R   0.560170 0.134889 0.912631 0.239563
O33   O     O_R   0.670518 0.138603 0.982912 -0.369387
O34   O     O_R   0.414723 0.080472 0.910867 -0.379384
N9    N     N_R   0.653303 0.017722 0.765305 0.246696
O35   O     O_R   0.569064 0.926423 0.773113 -0.357983
O36   O     O_R   0.812020 0.031479 0.779244 -0.439611
N10   N     N_3   0.351506 0.701602 0.473247 -0.146494
H45   H     H_    0.330209 0.665137 0.406893 0.190881
H46   H     H_    0.248655 0.687206 0.504884 0.135943
N11   N     N_3   0.866405 0.713401 0.041312 -0.219797
H47   H     H_    0.843495 0.637469 0.059974 0.111659
H48   H     H_    0.766420 0.749889 0.047097 0.139223
N12   N     N_R   0.030130 0.887208 0.084216 0.277235
O37   O     O_R   0.937192 0.917450 0.019210 -0.355870
O38   O     O_R   0.165996 0.950128 0.118558 -0.297421

loop_
_geom_bond_atom_site_label_1
_geom_bond_atom_site_label_2
_geom_bond_distance
_ccdc_geom_bond_type
P4    C24   1.902388 S    
C23   C31   1.386323 A    
C28   C29   1.406351 A    
C17   C32   1.403471 A    
C2    C3    1.588783 S    
C15   O24   1.410630 S    
P4    O12   1.546377 D    
C8    H13   1.107638 S    
C21   H31   1.077899 S    
O16   P7    1.782284 S    
N11   H47   1.044434 S    
C42   H37   1.074748 S    
C16   H28   1.104237 S    
C39   C40   1.426778 A    
C5    H9    1.107307 S    
P5    O18   1.547192 D    
O3    P6    1.772203 S    
O1    Ba1   2.891360 S    
O7    Ba1   2.943467 S    
C8    H14   1.108502 S    
N12   O38   1.298481 A    
O6    P6    1.753119 S    
C2    H3    1.095004 S    
O10   C8    1.399691 S    
C6    H10   1.104489 S    
C37   C38   1.435027 A    
C12   H20   1.110998 S    
N1    O25   1.289379 A    
P2    O7    1.519646 D    
C11   H18   1.109954 S    
P1    O1    1.546144 D    
C11   N5    1.453370 S    
O2    Ba1   2.976981 S    
N2    O27   1.301025 A    
P7    O22   1.757489 S    
C41   C42   1.411369 A    
O17   Ba2   2.783601 S    
C14   H24   1.109533 S    
N1    O26   1.300364 A    
C4    C5    1.517698 S    
P3    O11   1.775857 S    
C38   C39   1.429358 A    
C11   O22   1.406071 S    
O4    P6    1.540707 D    
P6    C31   1.849894 S    
C6    C7    1.507195 S    
C1    H2    1.088825 S    
C2    H4    1.110032 S    
O3    Ba1   2.841621 S    
O12   Ba2   2.891915 S    
C12   H21   1.111811 S    
Ba1   O13   2.855655 S    
P4    O13   1.597869 S    
P8    O24   1.758193 S    
C3    N7    1.449181 S    
C35   C36   1.401693 A    
N11   H48   1.033942 S    
C6    N1    1.447823 S    
C16   H29   1.108449 S    
P1    C22   1.861046 S    
C9    H15   1.106352 S    
P5    O17   1.762756 S    
P1    O5    1.716298 S    
C3    N12   1.469544 S    
C8    C9    1.522558 S    
Ba2   O21   2.943782 S    
N12   O37   1.300646 A    
N8    O34   1.301287 A    
C7    N2    1.459706 S    
C35   H36   1.078615 S    
O2    Ba2   2.856424 S    
C17   C18   1.418985 A    
O16   Ba2   2.956187 S    
Ba1   O20   2.956956 S    
C13   H23   1.110824 S    
C12   H19   1.105006 S    
C1    N6    1.464364 S    
C24   C32   1.400578 A    
P1    O2    1.597713 S    
C3    N11   1.465074 S    
N6    H44   1.041815 S    
N5    H42   1.044166 S    
P7    O21   1.568330 D    
C33   H38   1.082274 S    
P2    O10   1.741453 S    
C25   C27   1.404790 A    
C20   C21   1.395071 A    
C15   N8    1.463662 S    
C13   C14   1.524161 S    
C32   H35   1.081914 S    
C4    O15   1.395854 S    
P2    C37   1.870713 S    
P1    Ba1   3.456938 S    
O11   C2    1.417544 S    
C34   C36   1.407091 A    
C29   C31   1.428850 A    
N3    H39   1.042567 S    
C23   H34   1.077416 S    
O14   Ba2   2.840946 S    
P8    O23   1.533295 D    
O5    C6    1.383860 S    
Ba1   O16   2.843482 S    
C13   H22   1.111291 S    
P3    O9    1.549552 D    
P5    C41   1.878188 S    
N7    O31   1.298395 A    
C15   H27   1.109287 S    
C4    H6    1.101648 S    
C33   C41   1.394922 A    
C1    C10   1.554080 S    
O6    C10   1.410898 S    
O8    Ba1   2.783009 S    
N5    H41   1.042977 S    
C34   N10   1.431766 S    
C35   C39   1.418821 A    
C18   C21   1.407539 A    
P2    O20   1.611749 S    
N4    O30   1.292927 A    
Ba1   Ba2   4.572660 S    
C22   C23   1.383403 A    
P4    O15   1.754715 S    
C19   C30   1.423987 A    
N10   H45   1.036243 S    
C38   C42   1.426441 A    
C16   N9    1.458520 S    
P3    O8    1.740343 S    
N8    O33   1.300582 A    
C10   N4    1.459463 S    
H1    C10   1.109465 S    
N9    O35   1.299636 A    
C5    H8    1.107193 S    
C19   C22   1.429594 A    
P5    O19   1.750158 S    
C7    H11   1.109873 S    
N6    H43   1.041544 S    
C5    H7    1.108169 S    
P8    C17   1.861124 S    
C9    H16   1.112041 S    
N9    O36   1.299141 A    
O13   Ba2   2.977843 S    
C25   C26   1.429091 A    
P3    C36   1.873276 S    
P7    C40   1.852977 S    
C14   H26   1.110790 S    
C27   C28   1.398164 A    
C11   C12   1.525911 S    
O14   P8    1.748457 S    
C34   C37   1.408320 A    
Ba2   O20   2.842927 S    
C29   C30   1.418081 A    
O19   C13   1.406022 S    
N2    O28   1.296597 A    
N3    H40   1.043257 S    
C9    N3    1.456408 S    
C26   C30   1.435692 A    
C18   C26   1.416699 A    
C20   H30   1.078121 S    
P2    Ba1   3.494319 S    
C14   H25   1.108287 S    
C19   C20   1.403386 A    
N7    O32   1.284025 A    
C15   C16   1.528795 S    
C4    H5    1.104099 S    
C33   C40   1.396752 A    
C1    H17   1.094203 S    
C24   C25   1.438087 A    
C28   H32   1.077761 S    
P4    Ba2   3.457498 S    
N10   H46   1.037079 S    
C27   H33   1.075529 S    
C7    H12   1.111008 S    
N4    O29   1.300252 A    
