data_mof_unit_64609.cif
_audit_creation_date              2012-12-10T17:40:20-0500
_audit_creation_method            fapswitch 2.2
_symmetry_space_group_name_H-M    P1
_symmetry_Int_Tables_number       1
_space_group_crystal_system       triclinic
_cell_length_a                    37.017342
_cell_length_b                    30.387646
_cell_length_c                    21.938143
_cell_angle_alpha                 90.763663
_cell_angle_beta                  124.891217
_cell_angle_gamma                 89.393049
_cell_volume                      20239.5777527

loop_
_atom_site_label
_atom_site_type_symbol
_atom_type_description
_atom_site_fract_x
_atom_site_fract_y
_atom_site_fract_z
_atom_type_partial_charge
C1    C     C_R   0.414884 0.500048 0.914641 0.788541
C2    C     C_R   0.585116 0.499951 0.085360 0.789440
C3    C     C_R   0.914884 0.000048 0.914640 0.788679
C4    C     C_R   0.085116 0.999931 0.085388 0.789436
C5    C     C_2   0.509287 0.496660 0.826146 -0.267458
C6    C     C_2   0.490172 0.503274 0.173241 -0.280620
C7    C     C_2   0.009317 0.996664 0.826178 -0.268383
C8    C     C_2   0.990155 0.003278 0.173221 -0.282194
C9    C     C_R   0.297167 0.462280 0.812689 -0.162827
C10   C     C_R   0.702303 0.462784 0.223467 -0.161265
C11   C     C_R   0.797168 0.962282 0.812704 -0.163545
C12   C     C_R   0.203004 0.961552 0.187190 -0.162976
C13   C     C_R   0.343010 0.462340 0.859134 -0.177697
C14   C     C_R   0.656437 0.462471 0.176118 -0.164562
C15   C     C_R   0.843011 0.962344 0.859154 -0.177915
C16   C     C_R   0.157146 0.961714 0.140730 -0.175452
C17   C     C_R   0.366554 0.500042 0.865415 -0.025786
C18   C     C_R   0.633446 0.499953 0.134591 -0.026582
C19   C     C_R   0.866554 0.000040 0.865410 -0.025646
C20   C     C_R   0.133446 0.999712 0.134724 -0.026005
C21   C     C_R   0.343557 0.537522 0.823891 -0.166782
C22   C     C_R   0.656994 0.537650 0.140872 -0.179526
C23   C     C_R   0.843557 0.037512 0.823855 -0.167337
C24   C     C_R   0.156286 0.037367 0.176580 -0.169321
C25   C     C_R   0.297691 0.537202 0.776542 -0.161886
C26   C     C_R   0.702838 0.537702 0.187316 -0.163225
C27   C     C_R   0.797692 0.037189 0.776500 -0.161887
C28   C     C_R   0.202145 0.036947 0.223959 -0.162256
C29   C     C_R   0.274249 0.499666 0.771039 0.098356
C30   C     C_R   0.725750 0.500314 0.228966 0.097985
C31   C     C_R   0.774250 0.999658 0.771024 0.098555
C32   C     C_R   0.225753 0.999128 0.229160 0.098197
C33   C     C_R   0.203243 0.513019 0.648669 -0.160523
C34   C     C_R   0.797884 0.513665 0.248773 -0.166743
C35   C     C_R   0.703243 0.012972 0.648636 -0.161080
C36   C     C_R   0.296660 0.012904 0.351697 -0.161067
C37   C     C_R   0.157311 0.512676 0.603116 -0.180951
C38   C     C_R   0.843730 0.513372 0.293873 -0.178072
C39   C     C_R   0.657311 0.012631 0.603088 -0.182231
C40   C     C_R   0.342593 0.012734 0.397170 -0.182507
C41   C     C_R   0.133498 0.499674 0.631668 -0.030534
C42   C     C_R   0.866502 0.500311 0.368329 -0.029428
C43   C     C_R   0.633499 0.999671 0.631664 -0.031006
C44   C     C_R   0.366505 0.999458 0.368370 -0.030811
C45   C     C_R   0.502973 0.499508 0.885645 0.853632
C46   C     C_R   0.496903 0.500479 0.114213 0.858343
C47   C     C_R   0.002980 0.999509 0.885653 0.853809
C48   C     C_R   0.996899 0.000480 0.114208 0.858989
C49   C     C_R   0.156266 0.486596 0.706114 -0.178638
C50   C     C_R   0.842692 0.487308 0.396885 -0.181714
C51   C     C_R   0.656270 0.986633 0.706130 -0.179321
C52   C     C_R   0.343838 0.985872 0.293770 -0.179165
C53   C     C_R   0.202112 0.486297 0.751216 -0.167300
C54   C     C_R   0.796760 0.486958 0.351334 -0.161132
C55   C     C_R   0.702116 0.986330 0.751227 -0.168100
C56   C     C_R   0.297987 0.985372 0.248743 -0.168016
C57   C     C_R   0.225870 0.499665 0.722886 0.098733
C58   C     C_R   0.774129 0.500306 0.277113 0.099112
C59   C     C_R   0.725872 0.999657 0.722873 0.098843
C60   C     C_R   0.274131 0.999077 0.277309 0.098487
C61   C     C_R   0.500063 0.415056 0.500170 0.850494
C62   C     C_R   0.000063 0.915056 0.500168 0.850667
C63   C     C_R   0.499128 0.502145 0.616746 0.815535
C64   C     C_R   0.500879 0.498094 0.383258 0.810727
C65   C     C_R   0.999128 0.002139 0.616746 0.814958
C66   C     C_R   0.000879 0.998104 0.383257 0.809624
C67   C     C_R   0.499938 0.585149 0.499789 0.783257
C68   C     C_R   0.999946 0.085145 0.499820 0.781488
C69   C     C_R   0.000013 0.414860 0.499675 0.845315
C70   C     C_R   0.499948 0.914847 0.499609 0.843383
C71   C     C_R   0.085134 0.499934 0.584499 0.789556
C72   C     C_R   0.914866 0.500072 0.415501 0.789417
C73   C     C_R   0.585134 0.999933 0.584498 0.788991
C74   C     C_R   0.414867 0.999895 0.415503 0.788635
C75   C     C_R   0.999975 0.585156 0.500302 0.793050
C76   C     C_R   0.499975 0.085156 0.500304 0.793679
C77   C     C_R   0.522883 0.297242 0.477485 -0.178461
C78   C     C_R   0.478172 0.298475 0.525744 -0.180167
C79   C     C_R   0.022860 0.797242 0.477432 -0.178701
C80   C     C_R   0.978189 0.798473 0.525768 -0.180204
C81   C     C_R   0.999894 0.274052 0.498256 -0.128151
C82   C     C_R   0.499468 0.774067 0.497678 -0.099912
C83   C     C_R   0.522767 0.343101 0.476603 0.115521
C84   C     C_R   0.477924 0.344350 0.525495 0.120578
C85   C     C_R   0.022746 0.843102 0.476557 0.115345
C86   C     C_R   0.977941 0.844349 0.525521 0.120436
C87   C     C_R   0.500230 0.366986 0.500718 -0.117366
C88   C     C_R   0.000229 0.866986 0.500712 -0.117701
C89   C     C_R   0.500567 0.274594 0.501803 0.022294
C90   C     C_R   0.000565 0.774594 0.501788 0.022082
C91   C     C_R   0.005498 0.703092 0.561230 -0.159275
C92   C     C_R   0.994929 0.702363 0.441522 -0.161350
C93   C     C_R   0.505462 0.203091 0.561211 -0.159281
C94   C     C_R   0.494969 0.202364 0.441563 -0.161328
C95   C     C_R   0.005213 0.657219 0.560795 -0.181465
C96   C     C_R   0.994843 0.656547 0.441223 -0.183560
C97   C     C_R   0.505176 0.157217 0.560772 -0.183180
C98   C     C_R   0.494885 0.156549 0.441262 -0.181748
C99   C     C_R   0.999978 0.633557 0.500837 -0.034369
C100  C     C_R   0.499980 0.133558 0.500843 -0.034979
C101  C     C_R   0.000365 0.726049 0.501584 0.129127
C102  C     C_R   0.500367 0.226049 0.501597 0.128963
C103  C     C_R   0.460295 0.702883 0.469832 -0.115065
C104  C     C_R   0.538844 0.702520 0.525780 -0.117098
C105  C     C_R   0.038647 0.202729 0.549168 -0.121941
C106  C     C_R   0.961219 0.202628 0.447449 -0.124058
C107  C     C_R   0.460376 0.657035 0.470349 -0.196491
C108  C     C_R   0.539047 0.656675 0.526795 -0.196725
C109  C     C_R   0.038700 0.156894 0.549563 -0.200663
C110  C     C_R   0.961105 0.156777 0.448213 -0.199406
C111  C     C_R   0.499792 0.633534 0.499040 -0.028830
C112  C     C_R   0.999883 0.133521 0.499234 -0.029270
C113  C     C_R   0.991350 0.296927 0.435887 0.403577
C114  C     C_R   0.008488 0.297469 0.560997 0.402659
C115  C     C_R   0.509091 0.796685 0.453089 0.407290
C116  C     C_R   0.489961 0.797349 0.542756 0.405614
C117  C     C_R   0.499506 0.725748 0.497493 0.218259
C118  C     C_R   0.999943 0.225728 0.498081 0.165200
C119  C     C_R   0.000037 0.366459 0.499075 -0.157787
C120  C     C_R   0.499743 0.866413 0.498758 -0.141227
C121  C     C_R   0.990976 0.342954 0.436322 -0.274176
C122  C     C_R   0.009030 0.343438 0.561388 -0.276000
C123  C     C_R   0.507843 0.842863 0.452296 -0.295124
C124  C     C_R   0.491464 0.843468 0.544597 -0.293608
C125  C     C_2   0.528634 0.523844 0.745098 -0.225418
C126  C     C_2   0.472183 0.475412 0.255755 -0.206247
C127  C     C_2   0.028605 0.023882 0.745066 -0.229276
C128  C     C_2   0.972198 0.975406 0.255772 -0.207473
C129  C     C_2   0.495006 0.508374 0.678778 0.045224
C130  C     C_2   0.505051 0.492573 0.321224 0.046189
C131  C     C_2   0.995005 0.008345 0.678779 0.045765
C132  C     C_2   0.005049 0.992606 0.321219 0.045498
C133  C     C_2   0.524615 0.529759 0.807640 -0.140290
C134  C     C_2   0.476330 0.469613 0.193342 -0.127673
C135  C     C_2   0.024580 0.029790 0.807603 -0.139826
C136  C     C_2   0.976347 0.969606 0.193360 -0.125421
Cu1   Cu    Cu3+1 0.500000 0.544050 0.000000 0.962110
Cu2   Cu    Cu3+1 0.000000 0.044050 0.000000 0.958049
Cu3   Cu    Cu3+1 0.500000 0.455950 0.000000 0.969533
Cu4   Cu    Cu3+1 0.000000 0.955950 0.000000 0.970019
Cu5   Cu    Cu3+1 0.544050 0.500000 0.544060 1.010589
Cu6   Cu    Cu3+1 0.455950 0.500000 0.455940 1.008818
Cu7   Cu    Cu3+1 0.044050 1.000000 0.544060 1.010063
Cu8   Cu    Cu3+1 0.955950 0.000000 0.455940 1.008010
Cu9   Cu    Cu3+1 0.000010 0.500010 0.438990 0.946424
Cu10  Cu    Cu3+1 0.999990 0.500010 0.561010 0.946632
Cu11  Cu    Cu3+1 0.500010 0.000010 0.438990 0.945837
Cu12  Cu    Cu3+1 0.499990 0.000010 0.561010 0.945889
H1    H     H_    0.559423 0.533130 0.753409 0.157103
H2    H     H_    0.442087 0.464331 0.248319 0.155966
H3    H     H_    0.059369 0.033239 0.753344 0.156394
H4    H     H_    0.942121 0.964281 0.248361 0.155746
H5    H     H_    0.140459 0.523037 0.545937 0.152546
H6    H     H_    0.861339 0.523691 0.270604 0.152054
H7    H     H_    0.640458 0.022959 0.545893 0.152509
H8    H     H_    0.359367 0.023470 0.454480 0.152222
H9    H     H_    0.138655 0.476273 0.729376 0.152711
H10   H     H_    0.859546 0.476956 0.454069 0.151509
H11   H     H_    0.638661 0.976343 0.729413 0.153149
H12   H     H_    0.361539 0.975309 0.270339 0.153057
H13   H     H_    0.219077 0.476168 0.808546 0.132498
H14   H     H_    0.778863 0.476766 0.374154 0.137762
H15   H     H_    0.719082 0.976232 0.808573 0.132415
H16   H     H_    0.281089 0.974873 0.191281 0.132894
H17   H     H_    0.540631 0.279290 0.459367 0.157854
H18   H     H_    0.460484 0.281481 0.544120 0.157705
H19   H     H_    0.040591 0.779291 0.459281 0.157946
H20   H     H_    0.960516 0.781478 0.544172 0.158000
H21   H     H_    0.010304 0.720606 0.608652 0.135838
H22   H     H_    0.990204 0.719279 0.394305 0.135157
H23   H     H_    0.510238 0.220603 0.608612 0.135964
H24   H     H_    0.490273 0.219281 0.394368 0.135433
H25   H     H_    0.009444 0.640332 0.607653 0.156033
H26   H     H_    0.990471 0.639177 0.394017 0.155550
H27   H     H_    0.509376 0.140330 0.607604 0.155790
H28   H     H_    0.490546 0.139181 0.394080 0.156537
H29   H     H_    0.983545 0.360140 0.387425 0.179157
H30   H     H_    0.016507 0.360965 0.610640 0.178670
H31   H     H_    0.513362 0.860270 0.415598 0.168363
H32   H     H_    0.486069 0.861305 0.581783 0.169168
H33   H     H_    0.429679 0.720565 0.447649 0.123729
H34   H     H_    0.569379 0.719923 0.547625 0.123709
H35   H     H_    0.068790 0.220321 0.588429 0.146649
H36   H     H_    0.931071 0.220154 0.407935 0.147439
H37   H     H_    0.429674 0.640043 0.448753 0.158215
H38   H     H_    0.569858 0.639392 0.548975 0.158645
H39   H     H_    0.069021 0.139805 0.589577 0.157829
H40   H     H_    0.930777 0.139572 0.408649 0.159056
H41   H     H_    0.535964 0.560083 0.840004 0.166458
H42   H     H_    0.466425 0.438722 0.162538 0.170316
H43   H     H_    0.035861 0.060143 0.839893 0.166754
H44   H     H_    0.966476 0.938702 0.162596 0.170307
H45   H     H_    0.502674 0.465019 0.797906 0.185094
H46   H     H_    0.495394 0.535231 0.199984 0.175475
H47   H     H_    0.002766 0.965008 0.798002 0.184767
H48   H     H_    0.995344 0.035242 0.199924 0.173370
H49   H     H_    0.279557 0.432936 0.808760 0.133253
H50   H     H_    0.719534 0.433538 0.254908 0.134342
H51   H     H_    0.779557 0.932942 0.808796 0.132548
H52   H     H_    0.220759 0.932002 0.190872 0.133259
H53   H     H_    0.359992 0.433052 0.890678 0.151929
H54   H     H_    0.638978 0.433084 0.172487 0.157298
H55   H     H_    0.859993 0.933063 0.890722 0.151690
H56   H     H_    0.140275 0.932291 0.108920 0.153037
H57   H     H_    0.361011 0.566914 0.827522 0.155633
H58   H     H_    0.640017 0.566939 0.109326 0.151411
H59   H     H_    0.861012 0.066899 0.827467 0.155266
H60   H     H_    0.138712 0.066992 0.173174 0.154381
H61   H     H_    0.280455 0.566447 0.745101 0.134210
H62   H     H_    0.720453 0.567042 0.191243 0.133342
H63   H     H_    0.780455 0.066426 0.745035 0.134128
H64   H     H_    0.219250 0.066333 0.255647 0.133859
H65   H     H_    0.221141 0.523216 0.625855 0.137690
H66   H     H_    0.780918 0.523786 0.191438 0.132228
H67   H     H_    0.721141 0.023137 0.625804 0.137629
H68   H     H_    0.278682 0.023380 0.374676 0.137702
O1    O     O_R   0.435730 0.537200 0.935720 -0.589376
O2    O     O_R   0.564270 0.537200 0.064280 -0.590188
O3    O     O_R   0.935730 0.037200 0.935720 -0.589711
O4    O     O_R   0.064270 0.037200 0.064280 -0.592582
O5    O     O_R   0.064280 0.500010 0.512760 -0.587226
O6    O     O_R   0.935720 0.500010 0.487240 -0.587089
O7    O     O_R   0.564280 0.000010 0.512760 -0.588658
O8    O     O_R   0.435720 0.000010 0.487240 -0.588715
O9    O     O_R   0.064270 0.500010 0.615800 -0.588434
O10   O     O_R   0.935730 0.500010 0.384200 -0.588496
O11   O     O_R   0.564270 0.000010 0.615800 -0.587124
O12   O     O_R   0.435730 0.000010 0.384200 -0.587068
O13   O     O_R   0.000010 0.564280 0.448470 -0.590632
O14   O     O_R   0.999990 0.564280 0.551530 -0.586189
O15   O     O_R   0.500010 0.064280 0.448470 -0.588364
O16   O     O_R   0.499990 0.064280 0.551530 -0.587981
O17   O     O_R   0.435730 0.462800 0.935730 -0.588938
O18   O     O_R   0.564270 0.462800 0.064270 -0.587759
O19   O     O_R   0.935730 0.962800 0.935730 -0.588944
O20   O     O_R   0.064270 0.962800 0.064270 -0.585486
O21   O     O_R   0.500010 0.537200 0.910980 -0.579922
O22   O     O_R   0.499990 0.537200 0.089020 -0.584127
O23   O     O_R   0.000010 0.037200 0.910980 -0.578523
O24   O     O_R   0.999990 0.037200 0.089020 -0.587451
O25   O     O_R   0.500010 0.462800 0.910980 -0.581072
O26   O     O_R   0.499990 0.462800 0.089020 -0.578183
O27   O     O_R   0.000010 0.962800 0.910980 -0.583055
O28   O     O_R   0.999990 0.962800 0.089020 -0.575483
O29   O     O_R   0.537200 0.435730 0.537210 -0.559244
O30   O     O_R   0.462800 0.435730 0.462790 -0.563111
O31   O     O_R   0.037200 0.935730 0.537210 -0.559286
O32   O     O_R   0.962800 0.935730 0.462790 -0.562913
O33   O     O_R   0.537190 0.500000 0.626220 -0.599890
O34   O     O_R   0.462810 0.500000 0.373780 -0.601421
O35   O     O_R   0.037190 0.000000 0.626220 -0.601074
O36   O     O_R   0.962810 0.000000 0.373780 -0.602986
O37   O     O_R   0.462790 0.500000 0.551820 -0.542944
O38   O     O_R   0.537210 0.500000 0.448180 -0.542619
O39   O     O_R   0.962790 1.000000 0.551820 -0.541728
O40   O     O_R   0.037210 1.000000 0.448180 -0.541194
O41   O     O_R   0.537200 0.564270 0.537200 -0.592336
O42   O     O_R   0.462800 0.564270 0.462800 -0.589990
O43   O     O_R   0.037200 0.064270 0.537200 -0.592075
O44   O     O_R   0.962800 0.064270 0.462800 -0.590125
O45   O     O_R   0.000000 0.435740 0.448480 -0.587431
O46   O     O_R   0.000000 0.435740 0.551520 -0.591695
O47   O     O_R   0.500000 0.935740 0.448480 -0.589321
O48   O     O_R   0.500000 0.935740 0.551520 -0.589444
O49   O     O_3   0.981586 0.274282 0.373153 -0.573983
C137  C     C_3   0.020678 0.269315 0.376647 0.071185
H69   H     H_    0.047024 0.252971 0.429143 0.140527
H70   H     H_    0.032654 0.301879 0.372561 0.142440
C138  C     C_3   0.011372 0.240622 0.311866 -0.756192
H71   H     H_    0.985639 0.256209 0.258434 0.249157
H72   H     H_    0.041883 0.236522 0.313883 0.198034
H73   H     H_    0.999821 0.207695 0.315064 0.252646
O50   O     O_3   0.018176 0.275374 0.623366 -0.574843
C139  C     C_3   0.979029 0.271040 0.619621 0.071294
H74   H     H_    0.952681 0.254700 0.566738 0.140563
H75   H     H_    0.967096 0.303852 0.624382 0.141540
C140  C     C_3   0.988219 0.242732 0.683719 -0.758706
H76   H     H_    0.013947 0.258328 0.737528 0.248453
H77   H     H_    0.957668 0.239140 0.681516 0.198510
H78   H     H_    0.999725 0.209576 0.679817 0.252273
O51   O     O_3   0.515856 0.772973 0.405987 -0.567838
C141  C     C_3   0.558010 0.782231 0.422843 0.057258
H79   H     H_    0.583735 0.783549 0.483998 0.128165
H80   H     H_    0.557427 0.813979 0.397682 0.149545
C142  C     C_3   0.570855 0.745983 0.390130 -0.754516
H81   H     H_    0.546442 0.744177 0.328921 0.254656
H82   H     H_    0.603834 0.752946 0.402527 0.198745
H83   H     H_    0.572035 0.713805 0.414676 0.248570
O52   O     O_3   0.483189 0.774301 0.589506 -0.568424
C143  C     C_3   0.441048 0.784179 0.572822 0.057965
H84   H     H_    0.415313 0.785263 0.511689 0.128470
H85   H     H_    0.441656 0.816221 0.598445 0.149497
C144  C     C_3   0.428196 0.748571 0.605040 -0.757145
H86   H     H_    0.452620 0.747028 0.666223 0.254230
H87   H     H_    0.395228 0.756025 0.592772 0.198826
H88   H     H_    0.426993 0.716116 0.580029 0.248168
I1    I     I_    0.555331 0.373848 0.434269 -0.336959
I2    I     I_    0.444949 0.377064 0.566779 -0.329095
I3    I     I_    0.055281 0.873854 0.434175 -0.334059
I4    I     I_    0.944991 0.877060 0.566852 -0.329342
I5    I     I_    0.429286 0.501923 0.651114 -0.316618
I6    I     I_    0.570232 0.502823 0.348296 -0.322422
I7    I     I_    0.929303 0.001756 0.651146 -0.316355
I8    I     I_    0.070210 0.002955 0.348267 -0.322710

loop_
_geom_bond_atom_site_label_1
_geom_bond_atom_site_label_2
_ccdc_geom_bond_type
C71   O5    A    
C55   C59   A    
C143  C144  S    
Cu5   O33   S    
C104  H34   S    
C6    H46   S    
Cu9   Cu10  S    
C133  H41   S    
C77   C89   A    
C141  H79   S    
Cu6   O37   S    
Cu7   O35   S    
C136  H44   S    
C108  H38   S    
C95   C99   A    
Cu9   O5    S    
Cu7   Cu8   S    
C96   C99   A    
C128  C132  D    
C139  H74   S    
Cu6   O42   S    
C31   C59   S    
C75   O13   A    
Cu3   O26   S    
C9    C13   A    
C79   C90   A    
C80   C86   A    
C94   H24   S    
Cu11  O15   S    
C12   C16   A    
C92   H22   S    
Cu6   O30   S    
C3    C19   S    
C84   I2    S    
C106  C118  A    
C71   O9    A    
C103  C117  A    
C41   C49   A    
C78   C89   A    
C25   C29   A    
Cu8   O39   S    
C66   O36   A    
C115  C123  A    
C86   C88   A    
C27   C31   A    
C28   C32   A    
C73   O11   A    
C73   O7    A    
C69   O45   A    
C62   C88   S    
C69   C119  S    
C17   C21   A    
Cu4   O28   S    
C76   O15   A    
C19   C23   A    
C10   C30   A    
C16   C20   A    
C42   C72   S    
C44   C74   S    
C125  H1    S    
C64   O34   A    
C138  H72   S    
C105  C118  A    
Cu11  O47   S    
C79   C85   A    
C104  C117  A    
C23   H59   S    
C103  H33   S    
C15   H55   S    
C108  C111  A    
Cu10  O9    S    
C76   C100  S    
C56   H16   S    
C66   C132  S    
C95   H25   S    
C55   H15   S    
C142  H82   S    
C52   C56   A    
C49   C53   A    
C65   O39   A    
C51   C55   A    
Cu1   O21   S    
C127  C131  D    
C67   O42   A    
C22   C26   A    
C4    C20   S    
C125  C129  D    
C94   C102  A    
Cu1   O1    S    
C2    O2    A    
C126  C130  D    
C103  C107  A    
C79   H19   S    
C16   H56   S    
C80   H20   S    
C114  O50   S    
C52   H12   S    
C97   H27   S    
Cu11  Cu12  S    
C50   H10   S    
C70   O48   A    
C110  H40   S    
Cu5   O38   S    
C131  I7    S    
C82   C115  A    
C77   H17   S    
C92   C96   A    
C22   H58   S    
C68   C112  S    
C74   O12   A    
C61   C87   S    
C127  H3    S    
C128  H4    S    
C70   C120  S    
C81   C114  A    
C76   O16   A    
Cu4   O19   S    
Cu5   O29   S    
Cu10  O46   S    
C41   C71   S    
C3    O19   A    
C44   C52   A    
C72   O6    A    
C140  H76   S    
C4    O20   A    
C49   H9    S    
C11   C15   A    
C91   C101  A    
C9    H49   S    
C45   O21   A    
C119  C121  A    
C91   H21   S    
Cu7   O43   S    
C123  H31   S    
C10   C14   A    
C1    O17   A    
C121  H29   S    
C61   O30   A    
C39   H7    S    
C144  H86   S    
C62   O32   A    
C75   C99   S    
O52   C143  S    
C12   H52   S    
Cu2   O23   S    
C26   H62   S    
Cu12  O48   S    
C126  C134  S    
C137  H70   S    
C42   C50   A    
C47   O23   A    
C66   O40   A    
Cu2   O3    S    
C26   C30   A    
Cu9   O45   S    
C93   C97   A    
C97   C100  A    
C34   C58   A    
C85   C88   A    
C105  C109  A    
C18   C22   A    
C107  C111  A    
C24   C28   A    
C64   C130  S    
C137  C138  S    
C141  H80   S    
C13   C17   A    
C65   O35   A    
C36   H68   S    
C126  H2    S    
C85   I3    S    
C86   I4    S    
C14   H54   S    
C139  H75   S    
C37   C41   A    
Cu3   O25   S    
C110  C112  A    
C91   C95   A    
C40   C44   A    
C113  C121  A    
C141  C142  S    
C140  H78   S    
Cu5   O41   S    
C35   H67   S    
C83   C87   A    
C43   C73   S    
C8    C136  D    
C139  C140  S    
C48   O28   A    
C115  O51   S    
C15   C19   A    
Cu1   Cu3   S    
C129  I5    S    
C50   C54   A    
C96   H26   S    
C127  C135  S    
C144  H88   S    
C128  C136  S    
C54   C58   A    
Cu10  O6    S    
C94   C98   A    
C74   O8    A    
C35   C59   A    
C143  H84   S    
C21   C25   A    
C2    O18   A    
C4    O4    A    
Cu12  O16   S    
C120  C123  A    
C72   O10   A    
C138  H71   S    
C130  I6    S    
C48   O24   A    
C78   H18   S    
C37   H5    S    
C34   H66   S    
C53   C57   A    
C5    C45   S    
C81   C118  S    
C24   H60   S    
C109  H39   S    
C56   C60   A    
C7    C47   S    
C75   O14   A    
C35   C39   A    
C8    C48   S    
C142  H81   S    
C98   H28   S    
C105  H35   S    
C106  H36   S    
C67   O41   A    
C92   C101  A    
C83   I1    S    
C67   C111  S    
C63   O33   A    
C29   C57   S    
C98   C100  A    
C46   O26   A    
C7    H47   S    
C104  C108  A    
Cu11  O7    S    
C5    H45   S    
C122  H30   S    
C93   H23   S    
C33   H65   S    
C116  C124  A    
C1    C17   S    
C93   C102  A    
C68   O43   A    
C69   O46   A    
C28   H64   S    
Cu9   O10   S    
Cu4   O27   S    
C82   C116  A    
C47   O27   A    
C43   C51   A    
Cu7   O31   S    
C8    H48   S    
C63   C129  S    
C11   H51   S    
C3    O3    A    
C132  I8    S    
C138  H73   S    
C81   C113  A    
Cu4   O20   S    
C1    O1    A    
C82   C117  S    
Cu6   O34   S    
C89   C102  S    
C2    C18   S    
C14   C18   A    
C84   C87   A    
C38   C42   A    
C142  H83   S    
C77   C83   A    
C61   O29   A    
C116  O52   S    
C21   H57   S    
Cu1   O22   S    
C20   C24   A    
Cu1   O2    S    
Cu2   O24   S    
C23   C27   A    
O49   C137  S    
C9    C29   A    
Cu8   O36   S    
C11   C31   A    
C12   C32   A    
Cu12  O11   S    
C10   H50   S    
C65   C131  S    
C64   O38   A    
C70   O47   A    
C36   C40   A    
C109  C112  A    
C39   C43   A    
O51   C141  S    
C90   C101  S    
C7    C135  D    
C135  H43   S    
Cu3   O18   S    
C27   H63   S    
O50   C139  S    
C54   H14   S    
C25   H61   S    
C68   O44   A    
Cu2   Cu4   S    
C5    C133  D    
Cu7   O40   S    
C140  H77   S    
C38   H6    S    
Cu8   O32   S    
C45   O25   A    
C33   C37   A    
Cu10  O14   S    
C119  C122  A    
C125  C133  S    
C33   C57   A    
C6    C46   S    
C34   C38   A    
C36   C60   A    
Cu11  O12   S    
C107  H37   S    
C134  H42   S    
Cu12  O8    S    
C144  H87   S    
Cu5   Cu6   S    
C53   H13   S    
C62   O31   A    
C63   O37   A    
C30   C58   S    
C51   H11   S    
C13   H53   S    
C143  H85   S    
C46   O22   A    
C80   C90   A    
Cu8   O44   S    
C113  O49   S    
C124  H32   S    
C137  H69   S    
Cu2   O4    S    
C114  C122  A    
C78   C84   A    
C6    C134  D    
C106  C110  A    
C32   C60   S    
C40   H8    S    
Cu9   O13   S    
Cu3   O17   S    
C120  C124  A    
