data_mof_unit_11793.cif
_audit_creation_date              2012-12-10T20:52:44-0500
_audit_creation_method            fapswitch 2.2
_symmetry_space_group_name_H-M    P1
_symmetry_Int_Tables_number       1
_space_group_crystal_system       triclinic
_cell_length_a                    8.688681
_cell_length_b                    15.858861
_cell_length_c                    15.08721
_cell_angle_alpha                 90.095885
_cell_angle_beta                  98.501768
_cell_angle_gamma                 89.945677
_cell_volume                      2056.05779322

loop_
_atom_site_label
_atom_site_type_symbol
_atom_type_description
_atom_site_fract_x
_atom_site_fract_y
_atom_site_fract_z
_atom_type_partial_charge
C1    C     C_R   0.499811 0.339034 0.499938 0.900670
C2    C     C_R   0.500189 0.660966 0.500062 0.900669
C3    C     C_R   0.500392 0.500131 0.905145 -0.038916
C4    C     C_R   0.499619 0.499868 0.094856 -0.038918
C5    C     C_R   0.593355 0.558810 0.960788 0.066270
C6    C     C_R   0.406659 0.441188 0.039212 0.066271
C7    C     C_1   0.500747 0.499999 0.807001 0.033665
C8    C     C_1   0.499258 0.500001 0.192999 0.033663
C9    C     C_R   0.201233 0.498095 0.477096 0.929548
C10   C     C_R   0.798767 0.501904 0.522904 0.929551
C11   C     C_2   0.038803 0.507804 0.464997 -0.061866
C12   C     C_2   0.961198 0.492193 0.535004 -0.061852
C13   C     C_R   0.587948 0.956349 0.572752 0.034925
C14   C     C_R   0.412180 0.043650 0.427223 0.034941
C15   C     C_R   0.502420 0.912897 0.500068 -0.013165
C16   C     C_R   0.497691 0.087103 0.499913 -0.013147
C17   C     C_R   0.414284 0.955363 0.427849 0.166038
C18   C     C_R   0.585836 0.044637 0.572129 0.166038
C19   C     C_1   0.502160 0.823740 0.499926 -0.045465
C20   C     C_1   0.497910 0.176260 0.500069 -0.045475
C21   C     C_1   0.498723 0.250936 0.499932 -0.201470
C22   C     C_1   0.501310 0.749063 0.500069 -0.201464
C23   C     C_R   0.406655 0.441502 0.944236 0.064171
C24   C     C_R   0.593356 0.558497 0.055764 0.064167
N1    N     N_1   0.499960 0.500020 0.270540 -0.098472
N2    N     N_1   0.500040 0.499980 0.729460 -0.098472
O1    O     O_R   0.500000 0.378020 0.573650 -0.613400
O2    O     O_R   0.500000 0.621980 0.426350 -0.613404
O3    O     O_R   0.500070 0.378020 0.426320 -0.614636
O4    O     O_R   0.499930 0.621980 0.573680 -0.614634
O5    O     O_R   0.271720 0.500000 0.556430 -0.624552
O6    O     O_R   0.728280 0.500000 0.443570 -0.624546
O7    O     O_R   0.271790 0.500000 0.409110 -0.597554
O8    O     O_R   0.728210 0.500000 0.590890 -0.597566
Zn1   Zn    Zn3+2 0.499950 0.500000 0.598370 0.953581
Zn2   Zn    Zn3+2 0.500050 0.500000 0.401630 0.953581
N3    N     N_2   0.970649 0.546759 0.382840 -0.298935
H1    H     H_    0.894896 0.596641 0.384693 0.231137
C25   C     C_3   0.950310 0.494349 0.303216 -0.700865
H2    H     H_    0.825478 0.479037 0.283688 0.235756
H3    H     H_    0.015862 0.434125 0.314160 0.236128
H4    H     H_    0.992592 0.528881 0.247648 0.223193
N4    N     N_2   0.029349 0.453231 0.617157 -0.298937
H5    H     H_    0.105111 0.403353 0.615301 0.231139
C26   C     C_3   0.049675 0.505631 0.696788 -0.700886
H6    H     H_    0.174497 0.520973 0.716303 0.235767
H7    H     H_    0.007446 0.471077 0.752359 0.223177
H8    H     H_    0.984068 0.565839 0.685862 0.236147
N5    N     N_2   0.669611 0.090445 0.645303 -0.306954
H9    H     H_    0.607513 0.139119 0.668535 0.235892
C27   C     C_3   0.824617 0.115683 0.632024 -0.805963
H10   H     H_    0.885776 0.144261 0.694717 0.239772
H11   H     H_    0.818809 0.162988 0.577395 0.245082
H12   H     H_    0.892856 0.060260 0.614884 0.240034
N6    N     N_2   0.330507 0.909553 0.354677 -0.306959
H13   H     H_    0.392594 0.860869 0.331455 0.235899
C28   C     C_3   0.175488 0.884333 0.367949 -0.805976
H14   H     H_    0.114331 0.855753 0.305258 0.239769
H15   H     H_    0.107262 0.939766 0.385075 0.240036
H16   H     H_    0.181269 0.837036 0.422584 0.245086
C29   C     C_3   0.676879 0.908618 0.651816 -0.376673
C30   C     C_3   0.567331 0.881039 0.717274 -0.322801
C31   C     C_3   0.653486 0.828675 0.793744 -0.905154
H17   H     H_    0.701933 0.770835 0.766791 0.265593
H18   H     H_    0.749642 0.865853 0.831837 0.263936
H19   H     H_    0.571644 0.809805 0.840125 0.246056
H20   H     H_    0.516992 0.937741 0.745633 0.222072
H21   H     H_    0.470193 0.842702 0.681799 0.229896
H22   H     H_    0.736062 0.852868 0.627413 0.194617
H23   H     H_    0.771374 0.947604 0.688682 0.222429
C32   C     C_3   0.323261 0.091382 0.348156 -0.376692
C33   C     C_3   0.432833 0.119007 0.282730 -0.322818
C34   C     C_3   0.346656 0.171334 0.206236 -0.905169
H24   H     H_    0.250526 0.134129 0.168154 0.263943
H25   H     H_    0.298176 0.229176 0.233167 0.265592
H26   H     H_    0.428496 0.190202 0.159853 0.246060
H27   H     H_    0.529894 0.157384 0.318223 0.229905
H28   H     H_    0.483284 0.062326 0.254396 0.222066
H29   H     H_    0.228816 0.052384 0.311260 0.222453
H30   H     H_    0.264014 0.147111 0.372558 0.194614
C35   C     C_3   0.304667 0.379665 0.081931 -0.411192
C36   C     C_3   0.143377 0.418054 0.085189 -0.338523
C37   C     C_3   0.035953 0.355575 0.122376 -0.904251
H31   H     H_    0.019884 0.298389 0.079400 0.264057
H32   H     H_    0.085401 0.337031 0.191687 0.261255
H33   H     H_    0.920514 0.385314 0.123704 0.251908
H34   H     H_    0.155347 0.475262 0.128318 0.223693
H35   H     H_    0.088986 0.437230 0.016918 0.211870
H36   H     H_    0.294500 0.318341 0.046193 0.202794
H37   H     H_    0.359056 0.362814 0.150872 0.205038
C38   C     C_3   0.695353 0.620330 0.918070 -0.411185
C39   C     C_3   0.856647 0.581942 0.914822 -0.338521
C40   C     C_3   0.964079 0.644420 0.877640 -0.904246
H38   H     H_    0.914651 0.662956 0.808323 0.261250
H39   H     H_    0.980130 0.701611 0.920608 0.264058
H40   H     H_    0.079525 0.614683 0.876327 0.251908
H41   H     H_    0.911027 0.562769 0.983096 0.211870
H42   H     H_    0.844686 0.524732 0.871696 0.223692
H43   H     H_    0.640974 0.637178 0.849125 0.205040
H44   H     H_    0.705513 0.681656 0.953803 0.202783
C41   C     C_3   0.309091 0.378444 0.883362 -0.426469
C42   C     C_3   0.405186 0.300151 0.867445 -0.325809
C43   C     C_3   0.311265 0.239050 0.802385 -0.885120
H45   H     H_    0.205915 0.217715 0.829658 0.257942
H46   H     H_    0.275598 0.269924 0.736472 0.264467
H47   H     H_    0.383621 0.183080 0.792268 0.245462
H48   H     H_    0.510978 0.319152 0.839098 0.228904
H49   H     H_    0.442931 0.267327 0.932028 0.212533
H50   H     H_    0.202022 0.359741 0.909971 0.201829
H51   H     H_    0.264677 0.407903 0.818069 0.205988
C44   C     C_3   0.690910 0.621558 0.116638 -0.426463
C45   C     C_3   0.594806 0.699850 0.132547 -0.325805
C46   C     C_3   0.688695 0.760942 0.197632 -0.885114
H52   H     H_    0.724295 0.730064 0.263549 0.264469
H53   H     H_    0.794084 0.782269 0.170393 0.257945
H54   H     H_    0.616342 0.816919 0.207730 0.245460
H55   H     H_    0.557101 0.732683 0.067965 0.212528
H56   H     H_    0.488990 0.680847 0.160868 0.228902
H57   H     H_    0.735321 0.592102 0.181933 0.205994
H58   H     H_    0.797981 0.640263 0.090032 0.201822

loop_
_geom_bond_atom_site_label_1
_geom_bond_atom_site_label_2
_ccdc_geom_bond_type
C29   H23   S    
N6    H13   S    
C31   H18   S    
C1    C21   S    
C40   H38   S    
C14   C32   S    
C3    C23   A    
C44   C45   S    
C4    C8    S    
C32   H29   S    
C35   C36   S    
C39   H42   S    
C25   H3    S    
C26   H6    S    
C15   C19   S    
O3    Zn2   S    
C41   C42   S    
C7    N2    T    
C13   C18   A    
O6    Zn2   S    
N3    H1    S    
C12   N4    S    
C3    C7    S    
C45   H55   S    
C4    C24   A    
C28   H15   S    
C41   H50   S    
C36   H34   S    
O7    Zn2   S    
C44   H57   S    
O8    Zn1   S    
C34   H24   S    
C11   N3    S    
C45   C46   S    
C33   H28   S    
C33   H27   S    
C43   H46   S    
N5    C27   S    
C2    C22   S    
C42   H49   S    
C38   H44   S    
C17   N6    S    
C46   H54   S    
C35   H36   S    
C31   H19   S    
C40   H39   S    
C6    C35   S    
C9    O7    A    
C8    N1    T    
C34   H25   S    
C14   C17   A    
C29   C30   S    
C24   C44   S    
C32   H30   S    
C39   H41   S    
C25   H4    S    
C26   H7    S    
C27   H10   S    
C19   C22   T    
C4    C6    A    
C25   H2    S    
C28   H16   S    
O1    Zn1   S    
C41   H51   S    
C44   H58   S    
C27   H11   S    
N4    H5    S    
C30   C31   S    
N4    C26   S    
C37   H31   S    
C16   C20   S    
C1    O3    A    
C42   H48   S    
C10   O8    A    
C9    C11   S    
C5    C38   S    
C10   C12   S    
C35   H37   S    
C30   H20   S    
C37   H32   S    
N5    H9    S    
C40   H40   S    
N6    C28   S    
C34   H26   S    
C14   C16   A    
C38   C39   S    
C46   H52   S    
C26   H8    S    
C29   H22   S    
C15   C17   A    
C33   C34   S    
C3    C5    A    
C11   C12   D    
O4    Zn1   S    
C30   H21   S    
C2    O4    A    
C27   H12   S    
C13   C15   A    
C32   C33   S    
N3    C25   S    
C45   H56   S    
C28   H14   S    
C23   C41   S    
C5    C24   A    
C36   H35   S    
C6    C23   A    
C39   C40   S    
C43   H47   S    
O5    Zn1   S    
C42   C43   S    
C9    O5    A    
N1    Zn2   S    
C31   H17   S    
C10   O6    A    
N2    Zn1   S    
C37   H33   S    
C13   C29   S    
C20   C21   T    
O2    Zn2   S    
C16   C18   A    
C36   C37   S    
C43   H45   S    
C1    O1    A    
C2    O2    A    
C38   H43   S    
C18   N5    S    
C46   H53   S    
