data_mof_unit_27087.cif
_audit_creation_date              2013-03-05T15:44:34-0500
_audit_creation_method            fapswitch 2.2
_symmetry_space_group_name_H-M    P1
_symmetry_Int_Tables_number       1
_space_group_crystal_system       triclinic
_cell_length_a                    27.798661
_cell_length_b                    10.956246
_cell_length_c                    9.667789
_cell_angle_alpha                 90.455325
_cell_angle_beta                  89.859004
_cell_angle_gamma                 90.287632
_cell_volume                      2944.36981346

loop_
_atom_site_label
_atom_site_type_symbol
_atom_site_description
_atom_site_fract_x
_atom_site_fract_y
_atom_site_fract_z
_atom_type_partial_charge
O1    O     O_R   0.500010 0.321960 0.617040 -0.585837
O2    O     O_R   0.499990 0.321920 0.382900 -0.560132
C1    C     C_R   0.499529 0.265301 0.499066 0.832132
O3    O     O_R   0.430270 0.500040 0.617060 -0.564059
O4    O     O_R   0.430260 0.500000 0.382910 -0.567944
C2    C     C_R   0.407145 0.501042 0.500005 0.857121
Cu1   Cu    Cu3+1 0.500010 0.500020 0.638630 1.012341
Cu2   Cu    Cu3+1 0.499990 0.499980 0.361370 1.016116
O5    O     O_R   0.500010 0.678080 0.617100 -0.565069
O6    O     O_R   0.499990 0.678040 0.382960 -0.568108
O7    O     O_R   0.569740 0.500000 0.617090 -0.556447
O8    O     O_R   0.569730 0.499960 0.382940 -0.579478
C3    C     C_R   0.501916 0.734367 0.500798 0.910192
C4    C     C_R   0.592527 0.502757 0.499799 0.878478
C5    C     C_R   0.175319 0.397190 0.496348 0.578537
O9    O     O_2   0.199649 0.293697 0.522747 -0.499413
N1    N     N_R   0.199769 0.504925 0.478235 -0.447692
C6    C     C_R   0.175869 0.609353 0.443301 0.589012
C7    C     C_R   0.278653 0.542104 0.375462 -0.135101
C8    C     C_R   0.328653 0.548244 0.380499 -0.065766
C9    C     C_R   0.325786 0.464178 0.615011 -0.116165
C10   C     C_R   0.274884 0.473907 0.613695 -0.031732
C11   C     C_R   0.251527 0.507714 0.490349 0.261659
C12   C     C_R   0.100032 0.498615 0.445664 -0.043917
C13   C     C_R   0.124965 0.393498 0.486586 -0.030643
C14   C     C_R   0.099089 0.288117 0.520048 -0.117796
C15   C     C_R   0.125907 0.607162 0.422519 -0.029365
C16   C     C_R   0.353372 0.504411 0.498852 -0.153979
H1    H     H_    0.117103 0.207971 0.558925 0.195807
C17   C     C_R   0.645594 0.503804 0.497253 -0.072911
C18   C     C_R   0.973306 0.379797 0.429559 0.038332
C19   C     C_R   0.973128 0.601182 0.388725 0.021937
C20   C     C_R   0.947838 0.490445 0.412838 0.058077
C21   C     C_R   0.947201 0.267814 0.420870 -0.106808
C22   C     C_R   0.896872 0.267690 0.441318 -0.099632
C23   C     C_R   0.871961 0.380243 0.450220 -0.049573
C24   C     C_R   0.896836 0.490265 0.421406 -0.046436
C25   C     C_R   0.870691 0.600036 0.403441 -0.080878
C26   C     C_R   0.819940 0.594697 0.413354 0.543547
N2    N     N_R   0.797700 0.491929 0.460871 -0.449422
C27   C     C_R   0.822545 0.387128 0.483480 0.638393
C28   C     C_R   0.717872 0.431752 0.383223 -0.098988
C29   C     C_R   0.668202 0.437496 0.391216 -0.190447
C30   C     C_R   0.673926 0.567159 0.597270 -0.123502
C31   C     C_R   0.724925 0.559800 0.589524 -0.039757
C32   C     C_R   0.746413 0.492323 0.480598 0.293031
O10   O     O_2   0.799461 0.291477 0.540971 -0.480957
C33   C     C_R   0.023814 0.385084 0.452638 0.069670
C34   C     C_R   0.049256 0.495337 0.429019 0.069129
C35   C     C_R   0.024376 0.602590 0.391015 0.049573
C36   C     C_R   0.049295 0.285553 0.508126 -0.131065
H2    H     H_    0.647240 0.388890 0.313961 0.198154
H3    H     H_    0.734493 0.381261 0.299176 0.169687
H4    H     H_    0.031053 0.205151 0.545929 0.138493
O11   O     O_2   0.200360 0.715236 0.429191 -0.507895
C37   C     C_R   0.101489 0.710995 0.379001 -0.123867
H5    H     H_    0.260088 0.569672 0.282346 0.185832
H6    H     H_    0.120690 0.795058 0.357463 0.199145
C38   C     C_R   0.946286 0.708005 0.366893 -0.182693
C39   C     C_R   0.896142 0.709218 0.373570 -0.008880
O12   O     O_2   0.792582 0.689850 0.375235 -0.528002
C40   C     C_R   0.051868 0.708713 0.362060 -0.191939
H7    H     H_    0.963475 0.794926 0.350684 0.159434
H8    H     H_    0.036444 0.792298 0.325495 0.155945
C41   C     C_2   0.507888 0.931934 0.390471 -0.111388
C42   C     C_2   0.508561 0.865047 0.505063 -0.242406
H9    H     H_    0.504576 0.889337 0.289017 0.202676
H10   H     H_    0.514966 0.907642 0.605371 0.161595
C43   C     C_2   0.516341 0.063730 0.399822 -0.032187
C44   C     C_2   0.492201 0.134066 0.494267 -0.248029
C45   C     C_2   0.475425 0.422164 0.921693 -0.057910
N3    N     N_2   0.499480 0.498660 0.846910 -0.284847
H11   H     H_    0.455122 0.350602 0.870028 0.189836
H12   H     H_    0.516784 0.570342 0.894595 0.208747
C46   C     C_2   0.473088 0.427179 0.077446 -0.032702
N4    N     N_2   0.499460 0.498630 0.153040 -0.278989
H13   H     H_    0.448313 0.365322 0.128537 0.168604
H14   H     H_    0.524891 0.552479 0.106108 0.200660
C47   C     C_2   0.349200 0.409900 0.737401 0.476891
H15   H     H_    0.342229 0.446613 0.840043 0.094011
O13   O     O_2   0.374584 0.319924 0.724491 -0.544543
C48   C     C_2   0.651134 0.641837 0.708215 0.455071
H16   H     H_    0.665629 0.640922 0.812303 0.089336
O14   O     O_2   0.617331 0.708804 0.683143 -0.532611
C49   C     C_2   0.872649 0.829435 0.357216 0.436624
H17   H     H_    0.843825 0.857622 0.425898 0.140006
O15   O     O_2   0.886297 0.899718 0.267724 -0.513325
C50   C     C_2   0.756417 0.624458 0.690933 0.834920
O16   O     O_2   0.747496 0.729259 0.726694 -0.555922
O17   O     O_R   0.797032 0.565978 0.743165 -0.745165
H18   H     H_    0.815972 0.619565 0.809663 0.348407
C51   C     C_2   0.555493 0.111108 0.308848 0.879803
O18   O     O_2   0.582855 0.191216 0.350054 -0.604430
O19   O     O_R   0.562367 0.059157 0.177676 -0.754842
H19   H     H_    0.590338 0.097441 0.126006 0.346779
C52   C     C_2   0.245465 0.449530 0.739699 0.871158
O20   O     O_2   0.253694 0.360887 0.811834 -0.543440
O21   O     O_R   0.207468 0.527416 0.773841 -0.743353
H20   H     H_    0.189692 0.501033 0.860364 0.344999
C53   C     C_2   0.451230 0.089579 0.580460 0.400683
H21   H     H_    0.443758 0.133225 0.679312 0.120658
O22   O     O_2   0.423849 0.009935 0.538894 -0.481251
C54   C     C_2   0.870567 0.149366 0.437133 0.526096
H22   H     H_    0.882441 0.074312 0.500870 0.017984
O23   O     O_2   0.836735 0.133802 0.358472 -0.459472
C55   C     C_2   0.970269 0.154646 0.365398 0.386371
H23   H     H_    0.958362 0.065099 0.398407 0.057838
O24   O     O_2   0.002012 0.160765 0.278105 -0.499754
C56   C     C_2   0.352884 0.606898 0.261232 0.902701
O25   O     O_2   0.382518 0.688148 0.280475 -0.551620
O26   O     O_R   0.340014 0.573035 0.126512 -0.764268
H24   H     H_    0.358657 0.619944 0.053808 0.332521

loop_
_geom_bond_atom_site_label_1
_geom_bond_atom_site_label_2
_geom_bond_distance
_ccdc_geom_bond_type
C42   H10   1.087544 S    
C7    C8    1.392170 A    
C12   C15   1.405926 A    
Cu1   Cu2   2.680489 S    
C49   H17   1.083923 S    
C7    H5    1.084509 S    
Cu1   O7    1.949043 S    
N1    C11   1.443986 S    
C23   C24   1.415916 A    
N4    H14   1.025780 S    
C30   C48   1.486350 S    
C56   O26   1.398318 S    
C28   H3    1.083197 S    
O4    C2    1.300317 A    
O7    C4    1.298007 A    
C29   H2    1.083377 S    
C5    C13   1.403526 A    
C55   H23   1.084041 S    
C5    O9    1.349619 S    
Cu2   N4    2.014117 S    
Cu1   O5    1.963587 S    
C21   C22   1.412487 A    
C28   C32   1.394482 A    
O5    C3    1.287539 A    
C51   O18   1.223441 D    
C40   H8    1.075768 S    
C33   C36   1.413370 A    
C2    C16   1.495535 S    
O26   H24   1.013933 S    
C41   H9    1.086771 S    
C52   O21   1.398472 S    
C18   C20   1.417498 A    
C43   C51   1.491444 S    
C38   C39   1.395391 A    
C9    C10   1.419652 A    
C17   C30   1.422912 A    
C23   C27   1.412315 A    
C43   C44   1.367077 D    
C4    C17   1.475311 S    
O3    Cu1   1.950376 S    
C51   O19   1.398968 S    
C44   C53   1.491755 S    
C3    C42   1.442987 S    
C49   O15   1.221266 D    
C26   O12   1.347769 S    
C21   C55   1.493969 S    
C31   C50   1.488765 S    
C12   C13   1.407094 A    
O3    C2    1.303023 A    
Cu1   N3    2.013797 S    
C47   O13   1.220626 D    
C15   C37   1.395958 A    
C8    C16   1.424057 A    
C13   C14   1.396992 A    
C31   C32   1.414666 A    
C48   H16   1.085031 S    
C20   C24   1.419988 A    
C8    C56   1.483186 S    
O1    C1    1.294265 A    
C22   C23   1.419223 A    
C22   C54   1.485509 S    
C7    C11   1.394254 A    
C46   N4    1.293120 D    
C24   C25   1.420407 A    
Cu2   O8    1.950371 S    
C52   O20   1.222971 D    
C9    C47   1.481962 S    
C53   O22   1.221277 D    
N1    C6    1.370905 A    
C27   O10   1.348968 S    
C18   C21   1.424331 A    
C54   O23   1.221401 D    
C1    C44   1.451589 S    
C46   H13   1.084697 S    
C19   C35   1.424840 A    
C6    O11   1.349818 S    
C25   C39   1.418061 A    
N3    H12   1.025804 S    
N2    C27   1.362319 A    
C9    C16   1.429601 A    
C50   O17   1.398356 S    
O21   H20   1.013821 S    
C48   O14   1.221040 D    
C18   C33   1.423043 A    
C35   C40   1.417586 A    
C37   C40   1.389575 A    
C17   C29   1.401170 A    
C28   C29   1.384435 A    
N2    C32   1.437970 S    
C26   N2    1.364126 A    
C30   C31   1.422160 A    
C45   H11   1.083274 S    
C12   C34   1.421292 A    
C5    N1    1.371338 A    
C33   C34   1.416514 A    
O1    Cu1   1.960354 S    
C10   C52   1.490687 S    
O2    Cu2   1.963587 S    
C6    C15   1.403895 A    
O8    C4    1.296813 A    
O6    C3    1.292429 A    
O4    Cu2   1.949046 S    
C39   C49   1.482842 S    
C38   H7    1.075750 S    
C36   H4    1.080020 S    
C19   C20   1.419762 A    
O2    C1    1.287310 A    
C45   N3    1.293799 D    
C14   C36   1.389396 A    
C45   C46   1.507612 S    
O17   H18   1.013794 S    
C25   C26   1.414788 A    
C55   O24   1.221463 D    
C41   C43   1.463946 S    
C53   H21   1.085305 S    
C37   H6    1.083560 S    
C41   C42   1.333358 D    
O19   H19   1.013999 S    
C47   H15   1.085143 S    
C50   O16   1.222941 D    
C14   H1    1.083366 S    
Cu2   O6    1.960353 S    
C34   C35   1.417909 A    
C54   H22   1.084719 S    
C10   C11   1.412108 A    
C19   C38   1.408744 A    
C56   O25   1.223267 D    
