data_mof_unit_63833.cif
_audit_creation_date              2012-12-10T19:01:56-0500
_audit_creation_method            fapswitch 2.2
_symmetry_space_group_name_H-M    P1
_symmetry_Int_Tables_number       1
_space_group_crystal_system       triclinic
_cell_length_a                    15.859031
_cell_length_b                    14.259008
_cell_length_c                    13.383616
_cell_angle_alpha                 90.000539
_cell_angle_beta                  89.928901
_cell_angle_gamma                 89.99965
_cell_volume                      3026.48895802

loop_
_atom_site_label
_atom_site_type_symbol
_atom_type_description
_atom_site_fract_x
_atom_site_fract_y
_atom_site_fract_z
_atom_type_partial_charge
C1    C     C_1   0.499999 0.225916 0.499999 -0.224790
C2    C     C_R   0.500000 0.673427 0.500000 0.924536
C3    C     C_R   0.335665 0.499978 0.500064 0.938689
C4    C     C_R   0.664335 0.500022 0.499936 0.938690
C5    C     C_1   0.499999 0.141346 0.499999 -0.007392
C6    C     C_1   0.500001 0.858654 0.500001 -0.007392
C7    C     C_1   0.499986 0.500000 0.169453 0.070941
C8    C     C_1   0.500014 0.500000 0.830547 0.070941
C9    C     C_1   0.500000 0.042282 0.500000 0.008268
C10   C     C_1   0.500000 0.957718 0.500000 0.008268
C11   C     C_3   0.972499 0.425145 0.549005 0.211814
C12   C     C_1   0.500001 0.774084 0.500001 -0.224790
C13   C     C_3   0.027501 0.574855 0.450995 0.211832
C14   C     C_3   0.027792 0.423076 0.455241 0.233769
C15   C     C_3   0.972208 0.576924 0.544760 0.233771
C16   C     C_1   0.499995 0.500000 0.049521 -0.048677
C17   C     C_1   0.500004 0.500000 0.950479 -0.048677
C18   C     C_1   0.247579 0.500105 0.500323 -0.204832
C19   C     C_1   0.752421 0.499895 0.499677 -0.204834
C20   C     C_3   0.000003 0.277479 0.364936 -0.759795
C21   C     C_3   0.999999 0.722533 0.635039 -0.759790
C22   C     C_3   0.999529 0.288180 0.653823 -0.796244
C23   C     C_3   0.027675 0.502397 0.596996 -0.284761
C24   C     C_3   0.000467 0.711820 0.346181 -0.796269
C25   C     C_3   0.972325 0.497602 0.403005 -0.284749
C26   C     C_3   0.082944 0.500274 0.501088 -0.003350
C27   C     C_3   0.917056 0.499725 0.498913 -0.003348
C28   C     C_1   0.172985 0.500211 0.500711 -0.039003
C29   C     C_1   0.827015 0.499788 0.499289 -0.039013
C30   C     C_R   0.500000 0.326573 0.499999 0.924537
H1    H     H_    0.948745 0.495615 0.324982 0.160351
H2    H     H_    0.042039 0.684507 0.687542 0.243976
H3    H     H_    0.886656 0.360760 0.644168 0.234604
H4    H     H_    0.967973 0.225176 0.685121 0.242878
H5    H     H_    0.027490 0.329006 0.716241 0.237007
H6    H     H_    0.050228 0.264359 0.602701 0.247584
H7    H     H_    0.113341 0.639243 0.355831 0.234603
H8    H     H_    0.032019 0.774833 0.314898 0.242883
H9    H     H_    0.949761 0.735626 0.397300 0.247585
H10   H     H_    0.972515 0.671000 0.283753 0.237010
H11   H     H_    0.051255 0.504385 0.675019 0.160352
H12   H     H_    0.108104 0.307307 0.447559 0.222385
H13   H     H_    0.032615 0.220940 0.322959 0.234730
H14   H     H_    0.958015 0.315508 0.312377 0.243970
H15   H     H_    0.961680 0.245126 0.425264 0.257043
H16   H     H_    0.891883 0.692681 0.552456 0.222382
H17   H     H_    0.967390 0.779039 0.677071 0.234738
H18   H     H_    0.038268 0.754930 0.574689 0.257039
N1    N     N_1   0.499980 0.500000 0.261870 -0.064350
N2    N     N_1   0.500020 0.500000 0.738130 -0.064350
N3    N     N_2   0.061867 0.340591 0.406800 -0.298072
N4    N     N_2   0.938133 0.659408 0.593203 -0.298078
N5    N     N_2   0.938397 0.344446 0.600828 -0.300190
N6    N     N_2   0.061601 0.655554 0.399173 -0.300184
O1    O     O_R   0.500010 0.373720 0.576470 -0.597382
O2    O     O_R   0.499990 0.626280 0.423530 -0.597382
O3    O     O_R   0.499990 0.373720 0.423530 -0.596475
O4    O     O_R   0.500010 0.626280 0.576470 -0.596476
O5    O     O_R   0.376780 0.500000 0.576440 -0.608482
O6    O     O_R   0.623220 0.500000 0.423560 -0.608481
O7    O     O_R   0.376770 0.500000 0.423530 -0.608093
O8    O     O_R   0.623230 0.500000 0.576470 -0.608094
Zn1   Zn    Zn3+2 0.500010 0.500000 0.602090 0.973309
Zn2   Zn    Zn3+2 0.499990 0.500000 0.397910 0.973310

loop_
_geom_bond_atom_site_label_1
_geom_bond_atom_site_label_2
_ccdc_geom_bond_type
C25   H1    S    
O7    Zn2   S    
C24   H8    S    
O2    Zn2   S    
C6    C10   S    
O8    Zn1   S    
N2    Zn1   S    
C4    O8    A    
C25   C27   S    
C22   H6    S    
C9    C10   T    
C26   C28   S    
C20   H15   S    
C23   H11   S    
C8    N2    T    
C11   C27   S    
H12   N3    S    
O6    Zn2   S    
C21   H18   S    
C2    C12   S    
C22   N5    S    
C4    O6    A    
C15   C23   S    
N1    Zn2   S    
C2    O2    A    
C15   N4    S    
C14   C26   S    
C8    C17   S    
H3    N5    S    
C22   H5    S    
C13   C25   S    
C5    C9    S    
O1    Zn1   S    
O3    Zn2   S    
C1    C5    T    
H7    N6    S    
C11   C23   S    
C7    C16   S    
C11   C14   S    
C20   H14   S    
C20   N3    S    
C13   C15   S    
C14   C25   S    
C6    C12   T    
C2    O4    A    
C22   H4    S    
C21   H2    S    
C21   H17   S    
C13   C26   S    
C27   C29   S    
C3    O7    A    
C24   N6    S    
C19   C29   T    
C30   O3    A    
H16   N4    S    
C24   H9    S    
C18   C28   T    
C7    N1    T    
C3    C18   S    
C13   N6    S    
C30   O1    A    
C23   C26   S    
O4    Zn1   S    
C1    C30   S    
C24   H10   S    
C4    C19   S    
O5    Zn1   S    
C20   H13   S    
C21   N4    S    
C14   N3    S    
C3    O5    A    
C16   C17   T    
C15   C27   S    
C11   N5    S    
