data_mof_unit_12191.cif
_audit_creation_date              2012-12-10T20:27:57-0500
_audit_creation_method            fapswitch 2.2
_symmetry_space_group_name_H-M    P1
_symmetry_Int_Tables_number       1
_space_group_crystal_system       triclinic
_cell_length_a                    12.816449
_cell_length_b                    10.751243
_cell_length_c                    9.890225
_cell_angle_alpha                 89.159577
_cell_angle_beta                  97.260322
_cell_angle_gamma                 90.689522
_cell_volume                      1351.65807446

loop_
_atom_site_label
_atom_site_type_symbol
_atom_type_description
_atom_site_fract_x
_atom_site_fract_y
_atom_site_fract_z
_atom_type_partial_charge
C1    C     C_R   0.497988 0.260351 0.500509 0.903184
C2    C     C_R   0.472821 0.941222 0.366934 -0.054873
C3    C     C_R   0.490743 0.872591 0.492025 -0.221644
C4    C     C_R   0.298292 0.501604 0.473074 0.893780
C5    C     C_R   0.491703 0.933873 0.615654 0.158533
C6    C     C_3   0.569809 0.925636 0.741398 -0.497798
C7    C     C_3   0.568353 0.066450 0.744416 -0.448668
C8    C     C_R   0.433259 0.423755 0.060936 0.114140
C9    C     C_R   0.571127 0.568928 0.082427 -0.071124
C10   C     C_R   0.570297 0.570141 0.938448 -0.126662
C11   C     C_R   0.437097 0.418277 0.919702 0.250713
C12   C     C_R   0.026739 0.463621 0.550017 0.180043
C13   C     C_3   0.319971 0.404129 0.889667 -0.405037
C14   C     C_3   0.314701 0.420241 0.043294 -0.240442
C15   C     C_R   0.499733 0.740176 0.498042 0.869375
C16   C     C_R   0.701631 0.500314 0.526906 0.863691
C17   C     C_R   0.813605 0.496371 0.543654 -0.042202
C18   C     C_R   0.186236 0.509134 0.456604 -0.031369
C19   C     C_R   0.026337 0.604239 0.353407 -0.182090
C20   C     C_R   0.133869 0.588823 0.358420 -0.105467
C21   C     C_R   0.132728 0.445163 0.549958 -0.271199
C22   C     C_2   0.284654 0.278551 0.833485 0.510835
C23   C     C_R   0.972758 0.542694 0.449732 0.169287
C24   C     C_2   0.262759 0.543100 0.066082 0.939609
C25   C     C_2   0.271600 0.311299 0.120058 0.911897
C26   C     C_2   0.469310 0.888328 0.228302 0.463385
C27   C     C_R   0.866037 0.558244 0.447220 -0.269174
C28   C     C_R   0.867138 0.422449 0.646795 -0.195261
C29   C     C_R   0.974196 0.405234 0.649416 -0.182085
C30   C     C_R   0.489940 0.060744 0.619176 0.249528
C31   C     C_R   0.485522 0.129096 0.498702 -0.181588
C32   C     C_R   0.468252 0.069444 0.373262 -0.186971
H1    H     H_    0.823219 0.616513 0.368977 0.141214
H2    H     H_    0.015431 0.345657 0.727399 0.143429
H3    H     H_    0.176507 0.642441 0.289917 0.168418
H4    H     H_    0.174219 0.382846 0.623883 0.135378
H5    H     H_    0.461432 0.122847 0.279020 0.239938
H6    H     H_    0.535589 0.880943 0.828115 0.235134
H7    H     H_    0.203106 0.250061 0.832900 0.053618
H8    H     H_    0.278501 0.723398 0.119141 0.352634
H9    H     H_    0.166872 0.249482 0.242550 0.342314
H10   H     H_    0.523306 0.816809 0.206741 0.086521
H11   H     H_    0.646670 0.887638 0.721445 0.195645
H12   H     H_    0.534269 0.102858 0.833642 0.257889
H13   H     H_    0.644116 0.110600 0.725158 0.182705
H14   H     H_    0.627358 0.626413 0.144782 0.121789
H15   H     H_    0.625363 0.629190 0.892422 0.144188
H16   H     H_    0.283777 0.481490 0.824916 0.175263
H17   H     H_    0.825498 0.374124 0.720989 0.157075
H18   H     H_    0.985815 0.666091 0.277187 0.149103
N1    N     N_R   0.499290 0.499140 0.142710 -0.090430
N2    N     N_R   0.499290 0.499180 0.857070 -0.117243
O1    O     O_R   0.500010 0.316790 0.614690 -0.583829
O2    O     O_2   0.167698 0.553057 0.035294 -0.616514
O3    O     O_R   0.322660 0.646369 0.114613 -0.780369
O4    O     O_2   0.310469 0.208219 0.116943 -0.606056
O5    O     O_R   0.187432 0.328515 0.194900 -0.780596
O6    O     O_2   0.408512 0.929661 0.133693 -0.531666
O7    O     O_R   0.500000 0.316760 0.385350 -0.628417
O8    O     O_R   0.346360 0.499990 0.595720 -0.625866
O9    O     O_R   0.346350 0.499960 0.366370 -0.593865
O10   O     O_R   0.500000 0.683240 0.614650 -0.605090
O11   O     O_R   0.499990 0.683210 0.385310 -0.631392
O12   O     O_R   0.653650 0.500040 0.633630 -0.629996
O13   O     O_R   0.653640 0.500010 0.404280 -0.624787
O14   O     O_2   0.345487 0.208933 0.787607 -0.557407
Zn1   Zn    Zn3+2 0.500010 0.500020 0.653130 0.975424
Zn2   Zn    Zn3+2 0.499990 0.499980 0.346870 0.981498

loop_
_geom_bond_atom_site_label_1
_geom_bond_atom_site_label_2
_ccdc_geom_bond_type
C13   H16   S    
C19   C23   A    
C6    H6    S    
C4    C18   S    
C6    C7    S    
C16   O13   A    
C23   C27   A    
C12   C29   A    
C18   C21   A    
C11   C13   S    
C9    C10   A    
C31   C32   A    
O9    Zn2   S    
C25   O4    D    
C15   O11   A    
C6    H11   S    
O13   Zn2   S    
C10   N2    A    
H8    O3    S    
C12   C23   A    
C2    C3    A    
H9    O5    S    
C9    H14   S    
C2    C26   S    
C7    C30   S    
C7    H12   S    
C27   H1    S    
C24   O3    S    
C26   O6    D    
C8    N1    A    
C4    O8    A    
C30   C31   A    
N2    Zn1   S    
C25   O5    S    
O10   Zn1   S    
C8    C11   A    
C22   H7    S    
C12   C21   A    
C28   C29   A    
C15   O10   A    
C13   C22   S    
C18   C20   A    
N1    Zn2   S    
C1    O7    A    
C14   C25   S    
C5    C6    S    
O1    Zn1   S    
C19   H18   S    
C32   H5    S    
C24   O2    D    
C17   C27   A    
O12   Zn1   S    
C7    H13   S    
C1    C31   S    
C3    C15   S    
C26   H10   S    
C2    C32   A    
C5    C30   A    
C28   H17   S    
C14   C24   S    
C10   H15   S    
C21   H4    S    
O7    Zn2   S    
C1    O1    A    
O11   Zn2   S    
C22   O14   D    
C8    C14   S    
C11   N2    A    
C16   O12   A    
C3    C5    A    
C13   C14   S    
C17   C28   A    
C4    O9    A    
C20   H3    S    
C19   C20   A    
O8    Zn1   S    
C16   C17   S    
C29   H2    S    
C9    N1    A    
