data_mof_unit_33943.cif
_audit_creation_date              2013-03-05T16:43:41-0500
_audit_creation_method            fapswitch 2.2
_symmetry_space_group_name_H-M    P1
_symmetry_Int_Tables_number       1
_space_group_crystal_system       triclinic
_cell_length_a                    15.716817
_cell_length_b                    10.616221
_cell_length_c                    9.936824
_cell_angle_alpha                 91.525573
_cell_angle_beta                  90.337392
_cell_angle_gamma                 91.426106
_cell_volume                      1656.85424359

loop_
_atom_site_label
_atom_site_type_symbol
_atom_site_description
_atom_site_fract_x
_atom_site_fract_y
_atom_site_fract_z
_atom_type_partial_charge
O1    O     O_R   0.500010 0.316790 0.614690 -0.578443
O2    O     O_R   0.500000 0.316760 0.385350 -0.618713
C1    C     C_R   0.499833 0.260699 0.498517 0.874132
O3    O     O_R   0.376780 0.500010 0.614650 -0.564172
O4    O     O_R   0.376770 0.499970 0.385310 -0.635708
C2    C     C_R   0.338264 0.502209 0.499446 0.864331
Zn1   Zn    Zn3+2 0.500010 0.500020 0.653130 1.035306
Zn2   Zn    Zn3+2 0.499990 0.499980 0.346870 0.959541
O5    O     O_R   0.500000 0.683240 0.614650 -0.591615
O6    O     O_R   0.499990 0.683210 0.385310 -0.625309
O7    O     O_R   0.623230 0.500030 0.614690 -0.617264
O8    O     O_R   0.623220 0.499990 0.385350 -0.619625
C3    C     C_R   0.500853 0.739474 0.501626 0.864093
C4    C     C_R   0.661796 0.500444 0.500415 0.909933
C5    C     C_3   0.971970 0.421244 0.582159 0.608036
C6    C     C_3   0.026802 0.397713 0.456653 0.592707
H1    H     H_    0.944679 0.461151 0.268964 0.195956
C7    C     C_1   0.249677 0.507663 0.497822 -0.161246
C8    C     C_1   0.750522 0.502766 0.501253 -0.131074
C9    C     C_3   0.028755 0.535914 0.623065 0.031580
C10   C     C_3   0.083873 0.512073 0.498065 -0.164384
C11   C     C_3   0.973398 0.623154 0.540805 0.157902
C12   C     C_3   0.916387 0.508395 0.499478 -0.145070
C13   C     C_3   0.027456 0.597938 0.415343 0.166529
C14   C     C_3   0.970142 0.483280 0.371566 -0.365841
C15   C     C_1   0.174570 0.510915 0.497312 0.048576
C16   C     C_1   0.825715 0.505280 0.501017 0.071445
C17   C     C_R   0.573372 0.069025 0.537567 -0.121505
C18   C     C_R   0.501112 0.128951 0.494252 -0.020324
C19   C     C_R   0.431017 0.060449 0.441945 -0.229020
H2    H     H_    0.375204 0.107509 0.406346 0.144095
C20   C     C_R   0.431045 0.930300 0.444684 -0.154089
H3    H     H_    0.376229 0.876033 0.406862 0.140943
C21   C     C_R   0.500095 0.871480 0.503608 0.045786
C22   C     C_R   0.573249 0.939975 0.542229 -0.223366
C23   C     C_3   0.622708 0.943972 0.672290 0.600336
C24   C     C_3   0.623922 0.087226 0.664505 1.050294
C25   C     C_R   0.447270 0.420093 0.068530 0.071803
N1    N     N_R   0.499430 0.499140 0.142800 -0.126567
C26   C     C_R   0.559364 0.566710 0.075498 -0.086439
H4    H     H_    0.605882 0.623173 0.132622 0.158839
C27   C     C_R   0.560853 0.565744 0.932273 0.273487
N2    N     N_R   0.499430 0.499180 0.857150 -0.126608
C28   C     C_R   0.446561 0.417806 0.926193 0.108498
C29   C     C_3   0.349245 0.407007 0.926895 0.673180
C30   C     C_3   0.353668 0.409383 0.081593 -0.131700
H5    H     H_    0.325261 0.495043 0.127920 0.177639
F1    F     F_    0.056340 0.281584 0.414791 -0.630610
N3    N     N_2   0.705694 0.887308 0.659828 -0.349525
H6    H     H_    0.737241 0.905360 0.571301 0.217760
C31   C     C_3   0.760031 0.900092 0.777828 -0.668095
H7    H     H_    0.816870 0.841464 0.763509 0.221418
H8    H     H_    0.725888 0.867865 0.868658 0.280874
H9    H     H_    0.781758 0.999614 0.794195 0.284813
F2    F     F_    0.579908 0.145640 0.768103 -0.623225
F3    F     F_    0.702888 0.143010 0.641356 -0.679938
N4    N     N_2   0.627445 0.634382 0.869371 -0.277198
H10   H     H_    0.613965 0.665645 0.775222 0.314109
C32   C     C_3   0.710566 0.579660 0.882037 -0.748423
H11   H     H_    0.757846 0.633431 0.822542 0.240402
H12   H     H_    0.708898 0.480304 0.843705 0.284271
H13   H     H_    0.731721 0.582742 0.988916 0.230006
F4    F     F_    0.310223 0.512226 0.877729 -0.657583
N5    N     N_2   0.310781 0.288569 0.874560 -0.317744
H14   H     H_    0.255268 0.264633 0.923760 0.259236
C33   C     C_3   0.297604 0.271801 0.731755 -0.655363
H15   H     H_    0.270126 0.175995 0.709830 0.225047
H16   H     H_    0.358341 0.278198 0.678596 0.254851
H17   H     H_    0.251887 0.341323 0.695869 0.265193
N6    N     N_2   0.325137 0.293418 0.146389 -0.314410
H18   H     H_    0.302924 0.308330 0.242760 0.257759
C34   C     C_3   0.374524 0.179676 0.132398 -0.699338
H19   H     H_    0.336262 0.097999 0.168009 0.233660
H20   H     H_    0.433848 0.189283 0.192713 0.262897
H21   H     H_    0.392287 0.159273 0.026549 0.271691
F5    F     F_    0.941556 0.328895 0.666233 -0.616500
N7    N     N_2   0.061139 0.691525 0.325208 -0.286371
H22   H     H_    0.111812 0.659660 0.269582 0.239039
C35   C     C_3   0.998286 0.751577 0.243553 -0.743766
H23   H     H_    0.029622 0.827352 0.185330 0.250648
H24   H     H_    0.948720 0.794656 0.307662 0.253613
H25   H     H_    0.967849 0.681897 0.171861 0.226451
N8    N     N_2   0.939675 0.742692 0.586004 -0.315975
H26   H     H_    0.888718 0.770548 0.529242 0.228358
C36   C     C_3   0.001771 0.843012 0.613159 -0.693120
H27   H     H_    0.969475 0.925595 0.658462 0.257317
H28   H     H_    0.032872 0.872231 0.518611 0.269997
H29   H     H_    0.050792 0.812898 0.685312 0.238293
N9    N     N_2   0.063674 0.560269 0.756676 -0.258427
H30   H     H_    0.112788 0.626444 0.759685 0.253569
C37   C     C_3   0.001896 0.577828 0.862301 -0.690649
H31   H     H_    0.035206 0.584536 0.961152 0.232052
H32   H     H_    0.956081 0.496605 0.863819 0.282621
H33   H     H_    0.966780 0.665961 0.847799 0.232201
F6    F     F_    0.575631 0.898480 0.779008 -0.628771

loop_
_geom_bond_atom_site_label_1
_geom_bond_atom_site_label_2
_geom_bond_distance
_ccdc_geom_bond_type
C33   H16   1.095215 S    
C10   C15   1.425903 S    
C6    C10   1.537114 S    
C22   C23   1.503303 S    
C7    C15   1.181783 T    
C6    F1    1.382720 S    
C35   H25   1.110801 S    
N7    H22   1.030972 S    
Zn1   O7    1.976138 S    
C17   C18   1.387295 A    
C34   H21   1.107014 S    
O4    C2    1.288592 A    
O7    C4    1.290385 A    
N4    C32   1.449051 S    
C33   H17   1.107056 S    
C5    C6    1.538575 S    
C21   C22   1.391514 A    
C1    C18   1.398824 S    
O5    C3    1.285854 A    
C24   F3    1.384909 S    
C17   C22   1.371993 A    
N3    C31   1.447954 S    
N6    H18   1.030827 S    
Zn2   N1    2.027556 S    
C12   C16   1.424829 S    
N9    C37   1.445582 S    
C8    C16   1.181448 T    
C5    C12   1.538316 S    
C5    F5    1.382968 S    
C32   H11   1.108865 S    
O3    Zn1   1.971954 S    
C27   N4    1.418114 S    
N7    C35   1.445708 S    
C5    C9    1.535909 S    
C2    C7    1.394969 S    
C32   H12   1.111508 S    
C25   C30   1.479419 S    
C36   H28   1.109594 S    
C31   H7    1.109110 S    
C25   N1    1.358895 A    
C13   C14   1.547554 S    
O3    C2    1.292840 A    
N1    C26   1.359578 A    
C35   H24   1.109015 S    
C36   H27   1.110290 S    
C29   F4    1.386443 S    
C31   H8    1.110249 S    
C20   C21   1.398654 A    
N2    C28   1.382017 A    
C25   C28   1.413913 A    
C18   C19   1.394972 A    
C37   H32   1.110027 S    
N8    H26   1.030692 S    
Zn2   O8    1.971955 S    
C34   H20   1.106525 S    
C26   H4    1.082229 S    
N8    C36   1.445481 S    
O8    C4    1.290862 A    
Zn1   N2    2.027641 S    
C11   C13   1.534216 S    
C27   N2    1.384931 A    
C37   H31   1.110118 S    
C28   C29   1.531010 S    
C36   H29   1.108078 S    
C6    C14   1.550924 S    
Zn1   O5    1.992299 S    
C30   H5    1.112913 S    
C23   C24   1.524491 S    
C32   H13   1.110403 S    
O1    Zn1   1.972354 S    
C4    C8    1.394060 S    
O2    Zn2   1.992297 S    
C9    C11   1.534579 S    
C34   H19   1.109768 S    
O6    C3    1.286667 A    
O4    Zn2   1.976139 S    
C9    N9    1.448044 S    
C29   N5    1.463051 S    
C31   H9    1.109765 S    
H1    C14   1.110212 S    
C11   N8    1.448808 S    
O2    C1    1.286223 A    
C3    C21   1.401365 S    
C20   H3    1.084133 S    
C37   H33   1.110278 S    
C19   C20   1.382699 A    
C23   F6    1.387064 S    
N4    H10   1.023717 S    
C19   H2    1.082483 S    
C17   C24   1.492363 S    
N5    H14   1.032191 S    
C26   C27   1.423297 A    
C33   H15   1.110717 S    
C12   C14   1.551206 S    
C30   N6    1.466079 S    
C35   H23   1.110334 S    
C24   F2    1.385134 S    
C29   C30   1.537882 S    
C13   N7    1.447879 S    
C9    C10   1.537583 S    
Zn2   O6    1.972354 S    
N3    H6    1.032369 S    
C10   C13   1.537649 S    
C11   C12   1.539632 S    
N6    C34   1.455638 S    
O1    C1    1.284711 A    
N9    H30   1.030493 S    
C23   N3    1.454426 S    
N5    C33   1.438573 S    
