data_mof_unit_59346.cif
_audit_creation_date              2012-12-10T17:34:59-0500
_audit_creation_method            fapswitch 2.2
_symmetry_space_group_name_H-M    P1
_symmetry_Int_Tables_number       1
_space_group_crystal_system       triclinic
_cell_length_a                    11.98104
_cell_length_b                    12.90017
_cell_length_c                    15.746821
_cell_angle_alpha                 90.123812
_cell_angle_beta                  86.50074
_cell_angle_gamma                 93.127858
_cell_volume                      2425.63032968

loop_
_atom_site_label
_atom_site_type_symbol
_atom_type_description
_atom_site_fract_x
_atom_site_fract_y
_atom_site_fract_z
_atom_type_partial_charge
C1    C     C_R   0.521835 0.700472 0.498686 0.879906
C2    C     C_3   0.402876 0.571997 0.051830 -0.027423
C3    C     C_3   0.496291 0.502654 0.083015 0.297324
C4    C     C_3   0.482565 0.389947 0.049779 -0.377108
C5    C     C_3   0.476785 0.390354 0.952249 -0.361525
C6    C     C_1   0.497572 0.501726 0.174403 -0.122719
C7    C     C_1   0.501057 0.501277 0.825772 -0.121669
C8    C     C_1   0.501133 0.500562 0.750511 -0.184288
C9    C     C_R   0.465388 0.188238 0.501720 -0.052234
C10   C     C_R   0.534613 0.811761 0.498120 -0.051604
C11   C     C_R   0.650216 0.969893 0.500657 -0.223284
C12   C     C_R   0.500362 0.500021 0.661728 0.914044
C13   C     C_R   0.640813 0.862543 0.499367 -0.207285
C14   C     C_R   0.438031 0.867658 0.497491 -0.284355
C15   C     C_R   0.446563 0.974279 0.499015 0.186227
C16   C     C_R   0.553445 0.025719 0.500702 0.186193
C17   C     C_R   0.561975 0.132338 0.502270 -0.280101
C18   C     C_R   0.359191 0.137459 0.500423 -0.205344
C19   C     C_R   0.349792 0.030108 0.499064 -0.225149
C20   C     C_R   0.954709 0.401976 0.421464 -0.335699
C21   C     C_R   0.838370 0.411377 0.429095 0.027615
C22   C     C_R   0.858193 0.542529 0.533747 -0.049152
C23   C     C_R   0.478165 0.299527 0.501275 0.883298
C24   C     C_R   0.975653 0.535784 0.528367 0.095233
C25   C     C_R   0.024379 0.464423 0.471416 0.093631
C26   C     C_R   0.141830 0.457604 0.466118 -0.051953
C27   C     C_R   0.161638 0.588761 0.570775 0.025664
C28   C     C_R   0.045325 0.598294 0.578268 -0.335806
C29   C     C_R   0.499614 0.500014 0.338299 0.914389
C30   C     C_3   0.405055 0.569619 0.952996 -0.443125
C31   C     C_3   0.614130 0.550004 0.947430 -0.127224
C32   C     C_3   0.611525 0.548885 0.046120 -0.442022
C33   C     C_1   0.498660 0.500826 0.249582 -0.192035
C34   C     C_3   0.500511 0.502274 0.917342 0.279607
H1    H     H_    0.429845 0.653054 0.069124 0.122616
H2    H     H_    0.324567 0.539223 0.929146 0.181443
H3    H     H_    0.555607 0.345926 0.066480 0.194771
H4    H     H_    0.644346 0.171449 0.503646 0.163026
H5    H     H_    0.284037 0.180430 0.499906 0.161610
H6    H     H_    0.732480 0.009072 0.501864 0.139117
H7    H     H_    0.267529 0.990930 0.497846 0.138282
H8    H     H_    0.715966 0.819574 0.499918 0.160819
H9    H     H_    0.355660 0.828543 0.496126 0.161739
H10   H     H_    0.180841 0.403208 0.422723 0.122198
H11   H     H_    0.418533 0.650310 0.927945 0.149965
H12   H     H_    0.215309 0.637014 0.609250 0.130564
H13   H     H_    0.989727 0.346465 0.377008 0.143734
H14   H     H_    0.010321 0.653933 0.622609 0.141519
H15   H     H_    0.784696 0.363144 0.390607 0.132316
H16   H     H_    0.819194 0.596954 0.577118 0.121373
H17   H     H_    0.622832 0.632646 0.926444 0.084096
H18   H     H_    0.626491 0.629626 0.069671 0.144049
H19   H     H_    0.680034 0.503583 0.069535 0.211556
H20   H     H_    0.392290 0.360069 0.935282 0.153249
H21   H     H_    0.537663 0.336686 0.923024 0.213766
H22   H     H_    0.408067 0.347711 0.080903 0.160944
N1    N     N_R   0.207800 0.519340 0.515510 -0.100165
N2    N     N_R   0.792190 0.480660 0.484490 -0.100734
O1    O     O_R   0.421690 0.658830 0.504140 -0.630923
O2    O     O_R   0.609320 0.646410 0.494190 -0.628927
O3    O     O_R   0.406150 0.506210 0.627840 -0.616946
O4    O     O_R   0.593770 0.493790 0.617880 -0.615571
O5    O     O_R   0.390680 0.353590 0.505810 -0.627694
O6    O     O_R   0.578310 0.341170 0.495860 -0.629435
O7    O     O_R   0.406230 0.506210 0.382120 -0.620149
O8    O     O_R   0.593850 0.493790 0.372160 -0.615790
Zn1   Zn    Zn3+2 0.374720 0.508290 0.506640 0.941836
Zn2   Zn    Zn3+2 0.625280 0.491710 0.493360 0.945105
C35   C     C_3   0.283515 0.555908 0.097499 -0.396874
C36   C     C_3   0.204167 0.469593 0.063217 -0.325125
C37   C     C_3   0.108235 0.440188 0.128546 -0.881431
H23   H     H_    0.141260 0.407483 0.186609 0.256474
H24   H     H_    0.060616 0.509381 0.146164 0.264389
H25   H     H_    0.050353 0.380687 0.101146 0.257138
H26   H     H_    0.166638 0.497391 0.005226 0.213783
H27   H     H_    0.248287 0.398981 0.046151 0.224212
H28   H     H_    0.291418 0.543979 0.166605 0.217993
H29   H     H_    0.240830 0.629965 0.092720 0.184393
C38   C     C_2   0.715360 0.498457 0.907864 0.394953
H30   H     H_    0.766542 0.537861 0.857247 0.055881
O9    O     O_2   0.739123 0.412250 0.930317 -0.581169

loop_
_geom_bond_atom_site_label_1
_geom_bond_atom_site_label_2
_ccdc_geom_bond_type
C2    H1    S    
O8    Zn2   S    
C30   H11   S    
C35   H28   S    
C3    C6    S    
C21   H15   S    
C26   H10   S    
C7    C8    T    
C15   C19   A    
O6    Zn2   S    
C35   C36   S    
C1    O1    A    
C20   C25   A    
C15   C16   A    
C29   C33   S    
C18   C19   A    
C32   H18   S    
O1    Zn1   S    
C16   C17   A    
O7    Zn1   S    
C36   C37   S    
C2    C35   S    
C22   H16   S    
C23   O5    A    
C4    H22   S    
C35   H29   S    
C3    C32   S    
N1    Zn1   S    
C13   H8    S    
O5    Zn1   S    
C30   C34   S    
C5    H20   S    
C24   C25   A    
C27   N1    A    
C1    O2    A    
C38   O9    D    
C9    C23   S    
C25   C26   A    
C38   H30   S    
C18   H5    S    
C12   O4    A    
C11   C16   A    
O3    Zn1   S    
C31   C32   S    
C8    C12   S    
C5    C34   S    
C31   C34   S    
C4    H3    S    
C29   O7    A    
C27   H12   S    
N2    Zn2   S    
C23   O6    A    
C36   H27   S    
C7    C34   S    
C22   C24   A    
C3    C4    S    
C32   H19   S    
C36   H26   S    
C37   H24   S    
C9    C17   A    
C28   H14   S    
C5    H21   S    
C1    C10   S    
C24   C28   A    
C31   H17   S    
C4    C5    S    
C10   C13   A    
C22   N2    A    
C37   H25   S    
C31   C38   S    
O4    Zn2   S    
C6    C33   T    
C30   H2    S    
C2    C30   S    
C2    C3    S    
C21   N2    A    
C12   O3    A    
C11   C13   A    
C17   H4    S    
C11   H6    S    
C26   N1    A    
C20   H13   S    
C29   O8    A    
C9    C18   A    
C37   H23   S    
C20   C21   A    
O2    Zn2   S    
C27   C28   A    
C14   C15   A    
C19   H7    S    
C10   C14   A    
C14   H9    S    
