data_mof_unit_15111.cif
_audit_creation_date              2012-12-11T17:05:26-0500
_audit_creation_method            fapswitch 2.2
_symmetry_space_group_name_H-M    P1
_symmetry_Int_Tables_number       1
_space_group_crystal_system       triclinic
_cell_length_a                    6.960707
_cell_length_b                    14.609193
_cell_length_c                    15.953986
_cell_angle_alpha                 90.228558
_cell_angle_beta                  90.130631
_cell_angle_gamma                 89.947963
_cell_volume                      1622.34803307

loop_
_atom_site_label
_atom_site_type_symbol
_atom_type_description
_atom_site_fract_x
_atom_site_fract_y
_atom_site_fract_z
_atom_type_partial_charge
O1    O     O_R   0.494380 0.415640 0.412830 -0.531499
O2    O     O_R   0.823960 0.405540 0.586560 -0.520431
O3    O     O_R   0.994270 0.584360 0.587170 -0.546721
C1    C     C_R   0.655610 0.384473 0.615897 0.724002
O4    O     O_R   0.824090 0.404620 0.413450 -0.544592
O5    O     O_R   0.994400 0.583430 0.412820 -0.544456
C2    C     C_R   0.655170 0.382345 0.384613 0.708770
O6    O     O_R   0.494250 0.416570 0.587180 -0.533749
O7    O     O_3   0.660800 0.558670 0.500000 -0.383192
V1    V     V_3+5 0.935650 0.489120 0.500000 1.463649
O8    O     O_R   0.324110 0.594460 0.413440 -0.542921
C3    C     C_R   0.154894 0.616246 0.384443 0.685123
O9    O     O_R   0.323980 0.595380 0.586550 -0.549458
C4    C     C_R   0.155483 0.616398 0.616382 0.637928
V2    V     V_3+5 0.435660 0.510880 0.500000 1.431423
O10   O     O_3   0.160640 0.441330 0.500000 -0.338964
C5    C     C_3   0.042164 0.644663 0.765261 -0.320291
H1    H     H_    0.895770 0.620749 0.747553 0.130607
H2    H     H_    0.123126 0.583968 0.788184 0.114211
C6    C     C_3   0.025616 0.716871 0.836910 -0.323108
H3    H     H_    0.093373 0.689575 0.894903 0.114619
H4    H     H_    0.871238 0.729309 0.851014 0.137618
H5    H     H_    0.881958 0.751986 0.642248 0.143852
H6    H     H_    0.873077 0.862854 0.744126 0.134208
C7    C     C_3   0.031358 0.771495 0.659750 -0.309492
C8    C     C_3   0.349064 0.716863 0.716005 -0.313412
C9    C     C_3   0.145282 0.685630 0.687626 0.115477
H7    H     H_    0.425778 0.749115 0.662573 0.146010
H8    H     H_    0.435383 0.656583 0.736073 0.126238
C10   C     C_3   0.123856 0.808096 0.811772 0.103333
C11   C     C_3   0.024965 0.843854 0.731031 -0.324603
C12   C     C_3   0.336809 0.786099 0.789311 -0.306314
H9    H     H_    0.412101 0.757462 0.844998 0.130542
H10   H     H_    0.413527 0.849917 0.771380 0.146804
H11   H     H_    0.099136 0.801747 0.603139 0.140984
H12   H     H_    0.101713 0.905757 0.709291 0.171441
C13   C     C_R   0.272848 0.815435 0.240293 0.154886
C14   C     C_R   0.118655 0.815778 0.183666 -0.119822
C15   C     C_R   0.966865 0.754431 0.199152 -0.187398
H13   H     H_    0.844433 0.752281 0.157465 0.130591
C16   C     C_R   0.977681 0.690710 0.265120 -0.177924
H14   H     H_    0.862777 0.641647 0.272365 0.124652
C17   C     C_R   0.140945 0.686136 0.317434 -0.114365
C18   C     C_R   0.284019 0.752100 0.305312 0.112498
C19   C     C_3   0.494696 0.739608 0.293618 -0.419989
C20   C     C_3   0.482626 0.808970 0.223100 -0.399738
H15   H     H_    0.530642 0.669400 0.271607 0.161981
H16   H     H_    0.578747 0.764378 0.348504 0.187270
H17   H     H_    0.512323 0.779232 0.160207 0.158462
H18   H     H_    0.558960 0.874021 0.237361 0.190504
C21   C     C_R   0.497206 0.251800 0.686320 0.107585
C22   C     C_R   0.647902 0.314651 0.682583 -0.154467
C23   C     C_R   0.795007 0.306735 0.742859 -0.152396
H19   H     H_    0.915424 0.353450 0.742056 0.111816
C24   C     C_R   0.781211 0.242473 0.808296 -0.133550
H20   H     H_    0.892091 0.241273 0.855945 0.123470
C25   C     C_R   0.622510 0.182730 0.814038 -0.094932
C26   C     C_R   0.486056 0.185997 0.749286 -0.033895
C27   C     C_3   0.272263 0.195054 0.753672 -0.303202
C28   C     C_3   0.286404 0.268822 0.686384 0.476406
H21   H     H_    0.222845 0.222098 0.815183 0.069392
H22   H     H_    0.248554 0.338724 0.708618 -0.005480
C29   C     C_R   0.488730 0.313290 0.259139 -0.015176
C30   C     C_R   0.646708 0.316269 0.313722 -0.073280
C31   C     C_R   0.799230 0.255381 0.297525 -0.148952
H23   H     H_    0.922672 0.254174 0.338623 0.161427
C32   C     C_R   0.787821 0.190846 0.231796 -0.157285
H24   H     H_    0.902396 0.141830 0.224024 0.199921
C33   C     C_R   0.623916 0.184952 0.180262 -0.063777
C34   C     C_R   0.477063 0.248635 0.194445 -0.013420
C35   C     C_3   0.270656 0.230667 0.212097 0.500115
C36   C     C_3   0.282149 0.302382 0.280887 -0.411717
H25   H     H_    0.173742 0.248656 0.159208 0.018533
H26   H     H_    0.261858 0.274486 0.345025 0.220377
H27   H     H_    0.197561 0.365065 0.266791 0.105627
O11   O     O_R   0.771490 0.080820 0.910070 -0.515895
O12   O     O_R   0.441590 0.092730 0.083780 -0.520698
O13   O     O_R   0.271350 0.913900 0.084390 -0.534149
C37   C     C_R   0.610638 0.114646 0.112965 0.707827
O14   O     O_R   0.441780 0.091820 0.910670 -0.548725
O15   O     O_R   0.271540 0.912980 0.910040 -0.543787
C38   C     C_R   0.610552 0.114558 0.882487 0.703347
O16   O     O_R   0.771300 0.081740 0.084420 -0.547082
O17   O     O_3   0.604960 0.938700 0.997240 -0.382343
V3    V     V_3+5 0.330090 0.008230 0.997220 1.454634
O18   O     O_R   0.941820 0.901930 0.910640 -0.542201
C39   C     C_R   0.111181 0.879025 0.882094 0.667108
O19   O     O_R   0.941630 0.902840 0.083750 -0.545696
C40   C     C_R   0.110591 0.880956 0.112642 0.715808
V4    V     V_3+5 0.830090 0.986410 0.997190 1.424058
O20   O     O_3   0.105080 0.055990 0.997200 -0.358785
C41   C     C_2   0.168749 0.109638 0.725884 0.895531
O21   O     O_2   0.218040 0.068421 0.662551 -0.530178
O22   O     O_R   0.012356 0.079262 0.772366 -0.668028
H28   H     H_    0.932596 0.031898 0.741727 0.267691
F1    F     F_    0.203648 0.245879 0.610057 -0.628215
F2    F     F_    0.244594 0.143403 0.243802 -0.678605

loop_
_geom_bond_atom_site_label_1
_geom_bond_atom_site_label_2
_ccdc_geom_bond_type
C7    C11   S    
C37   O16   A    
C24   H20   S    
C8    C12   S    
C16   H14   S    
C1    O6    A    
V3    O20   S    
C15   C16   A    
C6    C10   S    
C19   C20   S    
C18   C19   S    
C35   F2    S    
C20   H17   S    
C8    C9    S    
O14   V3    S    
C1    C22   S    
C3    C17   S    
O5    C3    A    
C10   C11   S    
V2    O10   S    
C25   C38   S    
C5    C6    S    
C28   H22   S    
C19   H15   S    
O8    V2    S    
C31   C32   A    
C34   C35   S    
O1    V2    S    
C4    C9    S    
O7    V1    S    
C13   C20   S    
O12   C37   A    
O12   V3    S    
C27   C28   S    
O9    C4    A    
C16   C17   A    
O22   H28   S    
O17   V4    S    
C36   H27   S    
C23   C24   A    
O13   C40   A    
C27   H21   S    
C32   H24   S    
C5    C9    S    
O17   V3    S    
C36   H26   S    
O18   V4    S    
O11   C38   A    
C15   H13   S    
O4    C2    A    
O18   C39   A    
C26   C27   S    
C23   H19   S    
C21   C22   A    
C32   C33   A    
C12   H10   S    
O2    C1    A    
C17   C18   A    
C13   C14   A    
C14   C40   S    
C29   C34   A    
C6    H3    S    
C41   O22   S    
C5    H1    S    
C21   C26   A    
C29   C36   S    
O15   C39   A    
O3    C4    A    
C7    H11   S    
C28   F1    S    
O13   V3    S    
O14   C38   A    
C6    H4    S    
O6    V2    S    
O9    V2    S    
C33   C37   S    
V4    O20   S    
O2    V1    S    
C22   C23   A    
C35   H25   S    
C19   H16   S    
O16   V4    S    
O1    C2    A    
O19   V4    S    
O5    V1    S    
O8    C3    A    
C7    C9    S    
C20   H18   S    
C8    H7    S    
C30   C31   A    
C13   C18   A    
C24   C25   A    
O7    V2    S    
H6    C11   S    
C35   C36   S    
O3    V1    S    
V1    O10   S    
C12   H9    S    
C10   C12   S    
C25   C26   A    
C14   C15   A    
C41   O21   D    
C5    H2    S    
C27   C41   S    
H5    C7    S    
C33   C34   A    
C2    C30   S    
C29   C30   A    
O4    V1    S    
O19   C40   A    
C8    H8    S    
C31   H23   S    
C11   H12   S    
C21   C28   S    
C10   C39   S    
O15   V3    S    
O11   V4    S    
