data_mof_unit_47329.cif
_audit_creation_date              2012-12-10T20:31:05-0500
_audit_creation_method            fapswitch 2.2
_symmetry_space_group_name_H-M    P1
_symmetry_Int_Tables_number       1
_space_group_crystal_system       triclinic
_cell_length_a                    14.903189
_cell_length_b                    10.723853
_cell_length_c                    9.971883
_cell_angle_alpha                 89.684736
_cell_angle_beta                  89.364745
_cell_angle_gamma                 88.992626
_cell_volume                      1593.3357206

loop_
_atom_site_label
_atom_site_type_symbol
_atom_type_description
_atom_site_fract_x
_atom_site_fract_y
_atom_site_fract_z
_atom_type_partial_charge
C1    C     C_R   0.500577 0.260812 0.500180 0.864621
C2    C     C_R   0.903011 0.609839 0.534940 0.042970
C3    C     C_R   0.954758 0.271862 0.461480 -0.054054
C4    C     C_R   0.047926 0.272665 0.468376 -0.083372
C5    C     C_R   0.094682 0.383754 0.486968 0.073211
C6    C     C_R   0.046026 0.496873 0.509293 0.043526
C7    C     C_R   0.091090 0.609879 0.532433 0.034230
C8    C     C_R   0.041480 0.719736 0.559264 -0.138142
C9    C     C_R   0.948242 0.721210 0.562628 -0.024581
C10   C     C_R   0.188966 0.384297 0.487453 -0.033044
C11   C     C_R   0.231852 0.498729 0.503082 -0.140128
C12   C     C_R   0.327588 0.499888 0.500771 0.914681
C13   C     C_R   0.184868 0.611499 0.524518 -0.062717
C14   C     C_R   0.542591 0.062071 0.602851 0.069431
C15   C     C_R   0.504795 0.129251 0.497626 -0.091208
C16   C     C_R   0.475885 0.068233 0.382791 -0.243122
C17   C     C_R   0.475237 0.939504 0.379516 0.242160
C18   C     C_R   0.502206 0.872062 0.495105 -0.108372
C19   C     C_R   0.539122 0.934825 0.603008 -0.044912
C20   C     C_3   0.522021 0.928722 0.751860 -0.008700
C21   C     C_3   0.528101 0.071269 0.751178 -0.430334
C22   C     C_R   0.427874 0.543219 0.071417 0.049824
C23   C     C_R   0.498994 0.739637 0.499185 0.941379
C24   C     C_R   0.574844 0.463705 0.070441 0.209206
C25   C     C_R   0.572158 0.453638 0.926771 -0.059964
C26   C     C_R   0.428277 0.545577 0.930072 -0.069197
C27   C     C_3   0.332369 0.503552 0.925251 -0.135493
C28   C     C_3   0.332493 0.501882 0.079782 -0.274682
C29   C     C_R   0.672342 0.499355 0.499453 0.866230
C30   C     C_R   0.809830 0.606897 0.535047 -0.241008
C31   C     C_R   0.767129 0.499146 0.499154 -0.005014
C32   C     C_R   0.813344 0.389809 0.469737 -0.243753
C33   C     C_R   0.906366 0.384941 0.479844 0.044849
C34   C     C_R   0.951959 0.497170 0.508257 0.090111
H1    H     H_    0.768633 0.687225 0.561292 0.108868
H2    H     H_    0.464620 0.121667 0.777965 0.207283
H3    H     H_    0.588118 0.108365 0.801222 0.206670
H4    H     H_    0.288734 0.574665 0.127390 0.213588
H5    H     H_    0.775041 0.309642 0.441352 0.114732
H6    H     H_    0.082921 0.184115 0.460738 0.233348
H7    H     H_    0.074641 0.807055 0.575512 0.182602
H8    H     H_    0.450015 0.119868 0.297338 0.170180
N1    N     N_R   0.499390 0.499140 0.142800 -0.136649
N2    N     N_R   0.499390 0.499180 0.857150 -0.175013
O1    O     O_R   0.500010 0.316790 0.614690 -0.662903
O2    O     O_R   0.500000 0.316760 0.385350 -0.637017
O3    O     O_R   0.367850 0.499990 0.614680 -0.648293
O4    O     O_R   0.367840 0.499950 0.385340 -0.605496
O5    O     O_R   0.500000 0.683240 0.614650 -0.659357
O6    O     O_R   0.499990 0.683210 0.385310 -0.574688
O7    O     O_R   0.632160 0.500050 0.614660 -0.629085
O8    O     O_R   0.632150 0.500010 0.385320 -0.602267
Zn1   Zn    Zn3+2 0.500010 0.500020 0.653130 0.914779
Zn2   Zn    Zn3+2 0.499990 0.499980 0.346870 0.969609
N3    N     N_2   0.440805 0.879867 0.264355 -0.257945
H9    H     H_    0.380403 0.917620 0.232899 0.264069
C35   C     C_3   0.504984 0.868245 0.155148 -0.687237
H10   H     H_    0.518137 0.961263 0.110072 0.237057
H11   H     H_    0.477604 0.806648 0.077445 0.219644
H12   H     H_    0.569089 0.825758 0.190575 0.254128
C36   C     C_2   0.429871 0.882374 0.790017 0.423887
H13   H     H_    0.423189 0.804889 0.859208 0.027527
O9    O     O_2   0.362177 0.929779 0.742269 -0.555860
C37   C     C_2   0.596805 0.859273 0.823254 0.312537
H14   H     H_    0.607821 0.760610 0.804341 0.107966
O10   O     O_2   0.644747 0.911337 0.903297 -0.559137
N4    N     N_2   0.655667 0.436693 0.139226 -0.261737
H15   H     H_    0.684161 0.350477 0.119090 0.244894
C38   C     C_3   0.719015 0.538081 0.136356 -0.576839
H16   H     H_    0.779089 0.511612 0.195624 0.229953
H17   H     H_    0.687968 0.623609 0.180639 0.224238
H18   H     H_    0.740823 0.560458 0.032459 0.260217
C39   C     C_2   0.641972 0.380563 0.853226 0.436011
H19   H     H_    0.622833 0.322249 0.770966 0.111706
O11   O     O_2   0.721332 0.384615 0.881069 -0.573947
C40   C     C_2   0.271150 0.603359 0.868077 0.507884
H20   H     H_    0.297718 0.673653 0.800884 0.050852
O12   O     O_2   0.190884 0.603961 0.894030 -0.506499
C41   C     C_2   0.322304 0.377275 0.859313 0.560279
H21   H     H_    0.378185 0.311021 0.857592 0.014185
O13   O     O_2   0.250730 0.346732 0.812146 -0.530195
C42   C     C_2   0.320199 0.374926 0.142364 0.502791
H22   H     H_    0.377277 0.319123 0.175490 0.059376
O14   O     O_2   0.244977 0.332588 0.152458 -0.471972
C43   C     C_2   0.910514 0.150352 0.439130 0.485869
H23   H     H_    0.842927 0.133742 0.475135 0.049707
O15   O     O_2   0.950214 0.065642 0.380856 -0.536964
C44   C     C_2   0.245147 0.267645 0.476583 0.434477
H24   H     H_    0.301554 0.253513 0.543177 0.073662
O16   O     O_2   0.232465 0.190443 0.389678 -0.524231
C45   C     C_2   0.234318 0.730598 0.537189 0.394365
H25   H     H_    0.219253 0.794010 0.619026 0.117403
O17   O     O_2   0.291244 0.759516 0.454378 -0.551778
C46   C     C_2   0.900907 0.841837 0.591425 0.496508
H26   H     H_    0.834636 0.862367 0.552812 0.038633
O18   O     O_2   0.936666 0.921659 0.658342 -0.531009

loop_
_geom_bond_atom_site_label_1
_geom_bond_atom_site_label_2
_ccdc_geom_bond_type
N3    H9    S    
C3    C43   S    
C39   H19   S    
C19   C20   S    
C12   O4    A    
C26   N2    A    
C7    C8    A    
C21   H2    S    
C43   H23   S    
O4    Zn2   S    
C10   C44   S    
C26   C27   S    
O6    Zn2   S    
C30   H1    S    
C14   C21   S    
C40   O12   D    
C27   C41   S    
C30   C31   A    
C1    O2    A    
C23   O5    A    
C3    C33   A    
C15   C16   A    
C36   O9    D    
C18   C19   A    
C32   H5    S    
C20   C36   S    
C38   H17   S    
C24   N4    S    
N2    Zn1   S    
C4    H6    S    
C8    C9    A    
C1    C15   S    
C17   N3    S    
O3    Zn1   S    
C2    C34   A    
O1    Zn1   S    
C8    H7    S    
C22   C28   S    
C13   C45   S    
C39   O11   D    
C38   H16   S    
C12   O3    A    
C25   N2    A    
O8    Zn2   S    
C17   C18   A    
C43   O15   D    
C28   C42   S    
N4    H15   S    
C40   H20   S    
C45   H25   S    
C41   O13   D    
C16   C17   A    
C35   H12   S    
C18   C23   S    
O7    Zn1   S    
C37   O10   D    
C20   C37   S    
C38   H18   S    
C45   O17   D    
N1    Zn2   S    
C31   C32   A    
C28   H4    S    
O2    Zn2   S    
C33   C34   A    
C46   H26   S    
C24   C25   A    
C46   O18   D    
C44   O16   D    
C42   O14   D    
N3    C35   S    
C27   C40   S    
C16   H8    S    
C29   O7    A    
C20   C21   S    
C14   C19   A    
C4    C5    A    
C23   O6    A    
C11   C12   S    
C6    C7    A    
C2    C30   A    
C32   C33   A    
C5    C10   A    
C29   C31   S    
C37   H14   S    
C11   C13   A    
C1    O1    A    
C35   H10   S    
C5    C6    A    
O5    Zn1   S    
C25   C39   S    
C36   H13   S    
C35   H11   S    
C10   C11   A    
C41   H21   S    
C6    C34   A    
C7    C13   A    
C21   H3    S    
C44   H24   S    
C42   H22   S    
C22   C26   A    
C27   C28   S    
C24   N1    A    
C14   C15   A    
N4    C38   S    
C2    C9    A    
C9    C46   S    
C22   N1    A    
C3    C4    A    
C29   O8    A    
