data_mof_unit_42167.cif
_audit_creation_date              2012-12-10T18:28:22-0500
_audit_creation_method            fapswitch 2.2
_symmetry_space_group_name_H-M    P1
_symmetry_Int_Tables_number       1
_space_group_crystal_system       triclinic
_cell_length_a                    22.742827
_cell_length_b                    19.74578
_cell_length_c                    14.952778
_cell_angle_alpha                 90.061745
_cell_angle_beta                  99.015621
_cell_angle_gamma                 89.938237
_cell_volume                      6631.95160003

loop_
_atom_site_label
_atom_site_type_symbol
_atom_type_description
_atom_site_fract_x
_atom_site_fract_y
_atom_site_fract_z
_atom_type_partial_charge
C1    C     C_R   0.576207 0.088326 0.554206 0.924810
C2    C     C_R   0.424817 0.910245 0.446857 0.913479
C3    C     C_R   0.423433 0.087894 0.445619 0.919796
C4    C     C_R   0.575102 0.910105 0.553013 0.917791
C5    C     C_R   0.076615 0.587830 0.554469 0.923290
C6    C     C_R   0.924974 0.410115 0.446947 0.913133
C7    C     C_R   0.923351 0.587815 0.445561 0.923589
C8    C     C_R   0.075145 0.410173 0.553043 0.912971
C9    C     C_R   0.179412 0.148688 0.600835 -0.192482
C10   C     C_R   0.713793 0.729745 0.294521 -0.186062
C11   C     C_R   0.821043 0.148545 0.401427 -0.190063
C12   C     C_R   0.285723 0.730656 0.704776 -0.185615
C13   C     C_R   0.679692 0.648688 0.601728 -0.193279
C14   C     C_R   0.214618 0.230977 0.294683 -0.185586
C15   C     C_R   0.319657 0.649456 0.397241 -0.192184
C16   C     C_R   0.782183 0.237465 0.702742 -0.201115
C17   C     C_R   0.630869 0.000062 0.203500 -0.265743
C18   C     C_R   0.369237 0.004894 0.796611 -0.272378
C19   C     C_R   0.130777 0.504761 0.203384 -0.271277
C20   C     C_R   0.869126 0.503267 0.796576 -0.277380
C21   C     C_R   0.608593 0.996548 0.284243 0.063694
C22   C     C_R   0.391350 0.999231 0.715869 0.063861
C23   C     C_R   0.108639 0.498902 0.284082 0.064898
C24   C     C_R   0.891369 0.497999 0.715873 0.064334
C25   C     C_R   0.509300 0.006649 0.208280 0.022215
C26   C     C_R   0.490892 0.005494 0.791664 0.023461
C27   C     C_R   0.009121 0.506129 0.208298 0.021397
C28   C     C_R   0.990764 0.506620 0.791744 0.021616
C29   C     C_R   0.528723 0.009787 0.123907 0.006939
C30   C     C_R   0.471652 0.009983 0.876095 0.008035
C31   C     C_R   0.028421 0.511486 0.123952 0.006801
C32   C     C_R   0.971364 0.511469 0.876087 0.007124
C33   C     C_R   0.591016 0.006537 0.122837 0.155755
C34   C     C_R   0.409308 0.010396 0.877215 0.165501
C35   C     C_R   0.090761 0.511070 0.122831 0.164665
C36   C     C_R   0.909036 0.509973 0.877180 0.168504
C37   C     C_R   0.488686 0.014042 0.041502 0.091513
C38   C     C_R   0.511849 0.012576 0.958468 0.082055
C39   C     C_R   0.988274 0.515372 0.041566 0.090833
C40   C     C_R   0.011440 0.515761 0.958501 0.090327
C41   C     C_R   0.574306 0.012164 0.960572 -0.174667
C42   C     C_R   0.426331 0.018318 0.039382 -0.185942
C43   C     C_R   0.073820 0.519068 0.960631 -0.187169
C44   C     C_R   0.925849 0.517514 0.039446 -0.186759
C45   C     C_R   0.613003 0.009201 0.041491 -0.164249
C46   C     C_R   0.387499 0.016193 0.958501 -0.183811
C47   C     C_R   0.112620 0.516683 0.041557 -0.183758
C48   C     C_R   0.887090 0.514824 0.958487 -0.186783
C49   C     C_R   0.608409 0.846303 0.576071 -0.199566
C50   C     C_R   0.371781 0.129217 0.405775 -0.193930
C51   C     C_R   0.391196 0.846778 0.423417 -0.200470
C52   C     C_R   0.626308 0.132374 0.592757 -0.193462
C53   C     C_R   0.108558 0.346488 0.576137 -0.200899
C54   C     C_R   0.871495 0.628860 0.405613 -0.194984
C55   C     C_R   0.891875 0.346286 0.424032 -0.200041
C56   C     C_R   0.128355 0.629045 0.594324 -0.194572
C57   C     C_R   0.628068 0.742176 0.663971 0.434993
C58   C     C_R   0.313373 0.188973 0.278962 0.448331
C59   C     C_R   0.371208 0.742848 0.335079 0.435352
C60   C     C_R   0.680189 0.203505 0.712080 0.447876
C61   C     C_R   0.127776 0.242055 0.663403 0.435076
C62   C     C_R   0.812580 0.687878 0.278538 0.448839
C63   C     C_R   0.873643 0.240863 0.338402 0.438507
C64   C     C_R   0.187188 0.688462 0.721160 0.448787
C65   C     C_R   0.607607 0.809651 0.657378 0.106307
C66   C     C_R   0.367675 0.160524 0.319680 0.080873
C67   C     C_R   0.391850 0.810213 0.341933 0.104971
C68   C     C_R   0.628468 0.167592 0.676075 0.079317
C69   C     C_R   0.107444 0.309586 0.657137 0.104060
C70   C     C_R   0.867044 0.659733 0.319181 0.082104
C71   C     C_R   0.893734 0.308499 0.343832 0.103606
C72   C     C_R   0.132817 0.660014 0.680769 0.082159
C73   C     C_R   0.634896 0.816775 0.507319 -0.223424
C74   C     C_R   0.322659 0.130833 0.451347 -0.239700
C75   C     C_R   0.364501 0.817458 0.491960 -0.223192
C76   C     C_R   0.675549 0.134433 0.547496 -0.244835
C77   C     C_R   0.135365 0.317261 0.507543 -0.224194
C78   C     C_R   0.822497 0.630570 0.451478 -0.236809
C79   C     C_R   0.864681 0.317804 0.492490 -0.226856
C80   C     C_R   0.177218 0.630995 0.548173 -0.238114
C81   C     C_R   0.654102 0.749622 0.511566 0.033339
C82   C     C_R   0.268811 0.160630 0.412933 0.046296
C83   C     C_R   0.345212 0.750393 0.487555 0.033443
C84   C     C_R   0.728736 0.165658 0.585464 0.052479
C85   C     C_R   0.154376 0.250061 0.511387 0.032885
C86   C     C_R   0.768493 0.660073 0.413109 0.046714
C87   C     C_R   0.845737 0.250699 0.489295 0.031985
C88   C     C_R   0.231125 0.660765 0.586299 0.046047
C89   C     C_R   0.653424 0.713069 0.592647 -0.030990
C90   C     C_R   0.265305 0.192891 0.327800 -0.035241
C91   C     C_R   0.345865 0.713812 0.406377 -0.032419
C92   C     C_R   0.730537 0.201680 0.667802 -0.033329
C93   C     C_R   0.153326 0.213169 0.592103 -0.032881
C94   C     C_R   0.764667 0.691945 0.327679 -0.035804
C95   C     C_R   0.847367 0.212896 0.409463 -0.034654
C96   C     C_R   0.234966 0.692691 0.671774 -0.035345
C97   C     C_R   0.680963 0.721033 0.441089 0.033533
C98   C     C_R   0.221286 0.167393 0.463072 0.043350
C99   C     C_R   0.318397 0.721905 0.558045 0.033612
C100  C     C_R   0.777479 0.169896 0.537238 0.045297
C101  C     C_R   0.181361 0.221713 0.440894 0.032876
C102  C     C_R   0.721096 0.666920 0.463483 0.047005
C103  C     C_R   0.817963 0.223562 0.559392 0.030589
C104  C     C_R   0.278380 0.667743 0.535687 0.043881
C105  C     C_R   0.213601 0.125578 0.537340 0.114749
C106  C     C_R   0.672339 0.745581 0.350747 0.115189
C107  C     C_R   0.785839 0.126773 0.464339 0.117537
C108  C     C_R   0.327056 0.746509 0.648436 0.115860
C109  C     C_R   0.713724 0.625389 0.538157 0.115617
C110  C     C_R   0.173065 0.246698 0.350767 0.115949
C111  C     C_R   0.285783 0.626173 0.460934 0.114185
C112  C     C_R   0.825564 0.249796 0.648775 0.113581
H1    H     H_    0.175268 0.116888 0.658455 0.200441
H2    H     H_    0.707511 0.750287 0.226564 0.206592
H3    H     H_    0.825699 0.115928 0.344703 0.201871
H4    H     H_    0.292033 0.751248 0.772757 0.206545
H5    H     H_    0.675818 0.617117 0.659670 0.197693
H6    H     H_    0.208581 0.251852 0.226914 0.206605
H7    H     H_    0.323545 0.617842 0.339249 0.200031
H8    H     H_    0.787644 0.259142 0.770098 0.209943
H9    H     H_    0.595258 0.013472 0.900928 0.161373
H10   H     H_    0.405605 0.022931 0.099021 0.145942
H11   H     H_    0.094539 0.523287 0.900944 0.146237
H12   H     H_    0.905064 0.521000 0.099159 0.145375
H13   H     H_    0.327813 0.111786 0.519752 0.201842
H14   H     H_    0.642607 0.847804 0.450983 0.212380
H15   H     H_    0.671364 0.113242 0.480295 0.202632
H16   H     H_    0.356767 0.848572 0.548305 0.213238
H17   H     H_    0.827856 0.611823 0.520045 0.203933
H18   H     H_    0.143411 0.348545 0.451627 0.212885
H19   H     H_    0.171814 0.612217 0.479571 0.202541
H20   H     H_    0.856252 0.349593 0.547856 0.210241
H21   H     H_    0.660538 0.007801 0.040234 0.160229
H22   H     H_    0.339976 0.018230 0.959745 0.147108
H23   H     H_    0.160158 0.518086 0.040330 0.146879
H24   H     H_    0.839536 0.515333 0.959708 0.143285
H25   H     H_    0.536792 0.006510 0.782637 0.148351
H26   H     H_    0.463373 0.008889 0.217085 0.143584
H27   H     H_    0.036741 0.507726 0.783040 0.143418
H28   H     H_    0.963143 0.506622 0.217059 0.142837
H29   H     H_    0.361367 0.995297 0.652560 0.162384
H30   H     H_    0.638427 0.991540 0.347565 0.162357
H31   H     H_    0.861477 0.493106 0.652611 0.162409
H32   H     H_    0.138599 0.494418 0.347326 0.162709
H33   H     H_    0.678532 0.997425 0.204035 0.167842
H34   H     H_    0.321524 0.004937 0.796090 0.165746
H35   H     H_    0.178488 0.504295 0.203897 0.165795
H36   H     H_    0.821424 0.501951 0.796037 0.159383
N1    N     N_R   0.549130 0.000000 0.284090 -0.097791
N2    N     N_R   0.450870 0.000000 0.715910 -0.098138
N3    N     N_R   0.049130 0.500000 0.284090 -0.097531
N4    N     N_R   0.950870 0.500000 0.715910 -0.096837
O1    O     O_R   0.541320 0.066090 0.608930 -0.584548
O2    O     O_R   0.458680 0.933910 0.391070 -0.577810
O3    O     O_R   0.458680 0.066090 0.391070 -0.589402
O4    O     O_R   0.541320 0.933910 0.608930 -0.577546
O5    O     O_R   0.041320 0.566090 0.608930 -0.589124
O6    O     O_R   0.958680 0.433910 0.391070 -0.579021
O7    O     O_R   0.958680 0.566090 0.391070 -0.589249
O8    O     O_R   0.041320 0.433910 0.608930 -0.578182
O9    O     O_R   0.572880 0.066110 0.470280 -0.608559
O10   O     O_R   0.427120 0.933890 0.529720 -0.605009
O11   O     O_R   0.427120 0.066110 0.529720 -0.608920
O12   O     O_R   0.572880 0.933890 0.470280 -0.605824
O13   O     O_R   0.072880 0.566110 0.470280 -0.607850
O14   O     O_R   0.927120 0.433890 0.529720 -0.605284
O15   O     O_R   0.927120 0.566110 0.529720 -0.606920
O16   O     O_R   0.072880 0.433890 0.470280 -0.604717
Zn1   Zn    Zn3+2 0.478910 0.000000 0.592580 0.990754
Zn2   Zn    Zn3+2 0.521090 0.000000 0.407420 0.988621
Zn3   Zn    Zn3+2 0.978910 0.500000 0.592580 0.988863
Zn4   Zn    Zn3+2 0.021090 0.500000 0.407420 0.988772
I1    I     I_    0.442454 0.175058 0.250805 -0.309355
I2    I     I_    0.583329 0.853546 0.777087 -0.294289
I3    I     I_    0.554761 0.174422 0.749091 -0.325819
I4    I     I_    0.416161 0.854240 0.222426 -0.299509
I5    I     I_    0.941474 0.673974 0.249455 -0.302656
I6    I     I_    0.082843 0.353225 0.776835 -0.298544
I7    I     I_    0.058488 0.674012 0.750844 -0.302862
I8    I     I_    0.919034 0.350936 0.224105 -0.289457
O17   O     O_3   0.627595 0.706604 0.743497 -0.595488
C113  C     C_3   0.573475 0.670455 0.736274 0.096970
H37   H     H_    0.569650 0.632821 0.680111 0.134045
H38   H     H_    0.534513 0.705346 0.724417 0.187245
C114  C     C_3   0.571487 0.632549 0.824187 -0.751862
H39   H     H_    0.574343 0.668930 0.881406 0.273802
H40   H     H_    0.529094 0.603941 0.819369 0.211558
H41   H     H_    0.609316 0.596418 0.837268 0.243251
O18   O     O_3   0.309285 0.218585 0.194408 -0.585778
C115  C     C_3   0.288738 0.169162 0.128477 0.072363
H42   H     H_    0.243074 0.151920 0.135656 0.140398
H43   H     H_    0.319138 0.124503 0.133769 0.149240
C116  C     C_3   0.286524 0.199647 0.034656 -0.717403
H44   H     H_    0.331688 0.216543 0.025042 0.268572
H45   H     H_    0.270465 0.161144 0.982318 0.203598
H46   H     H_    0.255724 0.243692 0.026405 0.262898
O19   O     O_3   0.371592 0.707309 0.255407 -0.596211
C117  C     C_3   0.425782 0.671207 0.262263 0.095140
H47   H     H_    0.429408 0.632978 0.317588 0.137067
H48   H     H_    0.464734 0.705991 0.275207 0.186541
C118  C     C_3   0.428135 0.634305 0.173602 -0.739072
H49   H     H_    0.425515 0.671339 0.117246 0.271737
H50   H     H_    0.470552 0.605670 0.178173 0.212149
H51   H     H_    0.390320 0.598314 0.159342 0.248013
O20   O     O_3   0.681602 0.239767 0.791715 -0.588800
C119  C     C_3   0.665559 0.307714 0.770018 0.096631
H52   H     H_    0.619499 0.310916 0.731824 0.168517
H53   H     H_    0.696694 0.331631 0.728905 0.142258
C120  C     C_3   0.667928 0.348146 0.857101 -0.748317
H54   H     H_    0.713731 0.346900 0.895977 0.256927
H55   H     H_    0.655274 0.401600 0.840935 0.199606
H56   H     H_    0.636506 0.326353 0.899170 0.273539
O21   O     O_3   0.126831 0.206143 0.742534 -0.596891
C121  C     C_3   0.072442 0.170461 0.734602 0.092990
H57   H     H_    0.068942 0.132494 0.678871 0.138384
H58   H     H_    0.033663 0.205574 0.721590 0.186642
C122  C     C_3   0.069436 0.133197 0.822684 -0.728991
H59   H     H_    0.071924 0.169967 0.879420 0.271496
H60   H     H_    0.026860 0.104883 0.817264 0.215631
H61   H     H_    0.107053 0.096878 0.836980 0.247671
O22   O     O_3   0.808161 0.717000 0.193639 -0.584247
C123  C     C_3   0.787489 0.667184 0.128331 0.068550
H62   H     H_    0.741843 0.650124 0.135872 0.139098
H63   H     H_    0.817838 0.622476 0.134029 0.148376
C124  C     C_3   0.785168 0.697023 0.034133 -0.712338
H64   H     H_    0.830323 0.713664 0.024148 0.269789
H65   H     H_    0.768957 0.658225 0.982285 0.201242
H66   H     H_    0.754452 0.741127 0.025486 0.263833
O23   O     O_3   0.875731 0.203884 0.260360 -0.589308
C125  C     C_3   0.930296 0.168270 0.270800 0.088067
H67   H     H_    0.933041 0.130911 0.327077 0.137447
H68   H     H_    0.968903 0.203506 0.284560 0.184021
C126  C     C_3   0.934835 0.130048 0.183832 -0.712559
H69   H     H_    0.933109 0.166194 0.126607 0.273758
H70   H     H_    0.977581 0.101817 0.191274 0.209248
H71   H     H_    0.897451 0.093550 0.168861 0.252515
O24   O     O_3   0.191607 0.717709 0.806059 -0.584749
C127  C     C_3   0.212646 0.668073 0.871347 0.069934
H72   H     H_    0.258447 0.651445 0.863872 0.139952
H73   H     H_    0.182698 0.623084 0.865566 0.148312
C128  C     C_3   0.214622 0.697914 0.965551 -0.714468
H74   H     H_    0.169300 0.714078 0.975475 0.269147
H75   H     H_    0.231174 0.659281 0.017389 0.202791
H76   H     H_    0.244903 0.742332 0.974278 0.263597
I9    I     I_    0.237322 0.021092 0.545767 -0.424368
I10   I     I_    0.592622 0.792927 0.285695 -0.387848
I11   I     I_    0.761723 0.022421 0.457497 -0.411791
I12   I     I_    0.406721 0.793890 0.713494 -0.386132
I13   I     I_    0.737652 0.520973 0.547239 -0.464115
I14   I     I_    0.093755 0.294715 0.285615 -0.381667
I15   I     I_    0.262364 0.521666 0.452121 -0.431166
I16   I     I_    0.905537 0.295750 0.715017 -0.377424

loop_
_geom_bond_atom_site_label_1
_geom_bond_atom_site_label_2
_ccdc_geom_bond_type
C22   N2    A    
C115  H42   S    
C29   C33   A    
C65   I2    S    
C33   C45   A    
C118  H49   S    
C5    C56   S    
O12   Zn2   S    
C119  C120  S    
C6    C55   S    
C26   H25   S    
C53   C69   A    
C76   C84   A    
C88   C96   A    
C85   C101  A    
O21   C121  S    
C110  I14   S    
C122  H61   S    
C99   C108  A    
C127  C128  S    
C62   C70   A    
C37   C38   A    
C98   C105  A    
C57   C89   A    
C32   C36   A    
C107  I11   S    
C78   H17   S    
C51   C75   A    
C21   H30   S    
C75   H16   S    
C72   I7    S    
C50   C74   A    
C126  H70   S    
C61   C93   A    
C60   O20   S    
C114  H40   S    
N2    Zn1   S    
C7    O7    A    
C10   C94   A    
C24   H31   S    
C9    C105  A    
C73   H14   S    
C63   C95   A    
O4    Zn1   S    
C120  H56   S    
O2    Zn2   S    
C125  C126  S    
C25   N1    A    
C128  H74   S    
C42   C46   A    
C62   O22   S    
C41   H9    S    
C37   C42   A    
C113  H37   S    
C14   C90   A    
C13   C109  A    
C8    O16   A    
C115  C116  S    
C59   C67   A    
C56   C80   A    
C85   C93   A    
C3    C50   S    
C40   C43   A    
C20   C24   A    
C15   H7    S    
C6    O14   A    
C56   C72   A    
C87   C95   A    
C115  H43   S    
C20   H36   S    
C66   I1    S    
C55   C71   A    
C117  H47   S    
C34   C46   A    
C5    O13   A    
C24   N4    A    
C126  H69   S    
C97   C102  A    
C10   H2    S    
C3    O11   A    
C63   O23   S    
C81   C89   A    
C78   C86   A    
O13   Zn4   S    
C32   C40   A    
C99   C104  A    
C77   C85   A    
O14   Zn3   S    
C2    O2    A    
C80   H19   S    
C83   C99   A    
O24   C127  S    
C86   C94   A    
C118  H50   S    
C2    O10   A    
O19   C117  S    
C28   H27   S    
C17   C33   A    
C117  C118  S    
C57   O17   S    
C88   C104  A    
C68   I3    S    
C58   C66   A    
C112  I16   S    
C113  H38   S    
C60   C92   A    
C25   C29   A    
C127  H73   S    
O7    Zn4   S    
C82   C98   A    
C27   C31   A    
N1    Zn2   S    
C84   C100  A    
C15   C111  A    
C26   N2    A    
C64   C96   A    
C38   C41   A    
C120  H54   S    
C39   C40   A    
C12   C108  A    
N4    Zn3   S    
C30   C34   A    
C121  H57   S    
C114  H41   S    
O15   Zn3   S    
C123  C124  S    
C116  H45   S    
C101  C110  A    
O17   C113  S    
C9    C93   A    
C15   C91   A    
C44   H12   S    
C100  C103  A    
C19   H35   S    
N3    Zn4   S    
C103  C112  A    
C128  H75   S    
C113  C114  S    
C20   C36   A    
C71   I8    S    
C61   O21   S    
C53   C77   A    
O23   C125  S    
C69   I6    S    
C46   H22   S    
O22   C123  S    
C55   C79   A    
C126  H71   S    
C41   C45   A    
C54   C70   A    
C16   C112  A    
C28   C32   A    
C67   I4    S    
C125  H68   S    
C116  H46   S    
C109  I13   S    
C58   O18   S    
C4    O12   A    
C124  H64   S    
C47   H23   S    
C51   C67   A    
C82   C90   A    
C106  I10   S    
C1    O1    A    
C18   C34   A    
C105  I9    S    
C64   O24   S    
C79   C87   A    
C49   C65   A    
C73   C81   A    
C87   C103  A    
O9    Zn2   S    
O20   C119  S    
C4    O4    A    
C63   C71   A    
C28   N4    A    
C21   N1    A    
C62   C94   A    
C11   C107  A    
C17   H33   S    
C118  H51   S    
C49   C73   A    
C23   H32   S    
C10   C106  A    
C3    O3    A    
C97   C106  A    
C29   C37   A    
C124  H66   S    
C86   C102  A    
C43   H11   S    
C75   C83   A    
C11   H3    S    
C42   H10   S    
C14   H6    S    
C59   C91   A    
C11   C95   A    
C14   C110  A    
C23   N3    A    
C127  H72   S    
C123  H63   S    
C100  C107  A    
C27   N3    A    
C16   H8    S    
C13   C89   A    
C119  H52   S    
C45   H21   S    
C48   H24   S    
C57   C65   A    
C43   C47   A    
C18   H34   S    
C121  C122  S    
C52   C68   A    
C8    C53   S    
C6    O6    A    
C104  C111  A    
C13   H5    S    
C50   C66   A    
C70   I5    S    
C16   C92   A    
C39   C44   A    
C31   C35   A    
C122  H60   S    
C98   C101  A    
C83   C91   A    
C108  I12   S    
C5    O5    A    
C27   H28   S    
C7    C54   S    
C52   C76   A    
C58   C90   A    
C128  H76   S    
C61   C69   A    
C18   C22   A    
C25   H26   S    
C122  H59   S    
C4    C49   S    
C9    H1    S    
C125  H67   S    
C80   C88   A    
C19   C35   A    
O5    Zn3   S    
O3    Zn2   S    
O6    Zn4   S    
C114  H39   S    
O10   Zn1   S    
C81   C97   A    
C59   O19   S    
C79   H20   S    
C22   H29   S    
C124  H65   S    
O8    Zn3   S    
C31   C39   A    
C36   C48   A    
C121  H58   S    
C77   H18   S    
C64   C72   A    
O18   C115  S    
O11   Zn1   S    
C1    C52   S    
C17   C21   A    
C2    C51   S    
C1    O9    A    
C74   H13   S    
C19   C23   A    
O16   Zn4   S    
C7    O15   A    
C60   C68   A    
C116  H44   S    
O1    Zn1   S    
C76   H15   S    
C120  H55   S    
C12   C96   A    
C102  C109  A    
C117  H48   S    
C84   C92   A    
C30   C38   A    
C54   C78   A    
C35   C47   A    
C119  H53   S    
C111  I15   S    
C123  H62   S    
C74   C82   A    
C44   C48   A    
C12   H4    S    
C26   C30   A    
C8    O8    A    
