data_mof_unit_7239.cif
_audit_creation_date              2012-10-26T19:46:27-0400
_audit_creation_method            fapswitch 2.2
_symmetry_space_group_name_H-M    P1
_symmetry_Int_Tables_number       1
_space_group_crystal_system       triclinic
_cell_length_a                    10.967776
_cell_length_b                    9.512846
_cell_length_c                    15.147053
_cell_angle_alpha                 89.393847
_cell_angle_beta                  90.308501
_cell_angle_gamma                 90.120371
_cell_volume                      1580.24955376

loop_
_atom_site_label
_atom_site_type_symbol
_atom_type_description
_atom_site_fract_x
_atom_site_fract_y
_atom_site_fract_z
_atom_type_partial_charge
C1    C     C_R   0.262579 0.499706 0.499293 0.630007
C2    C     C_R   0.938929 0.623067 0.474051 0.004504
C3    C     C_R   0.938168 0.375717 0.522403 -0.013510
C4    C     C_R   0.065471 0.616411 0.464488 0.001936
C5    C     C_R   0.593719 0.553321 0.092526 -0.097220
C6    C     C_R   0.596549 0.430420 0.905325 -0.102497
C7    C     C_R   0.400508 0.545948 0.906654 -0.102405
C8    C     C_R   0.406320 0.419471 0.095278 -0.102695
C9    C     C_R   0.592463 0.564132 0.184273 0.022243
C10   C     C_R   0.599067 0.438496 0.813284 0.017415
C11   C     C_R   0.399156 0.554260 0.814367 0.028785
C12   C     C_R   0.738285 0.500115 0.499090 0.582734
C13   C     C_R   0.403550 0.424979 0.187492 0.031256
C14   C     C_R   0.496381 0.500452 0.232924 -0.022704
C15   C     C_R   0.498788 0.497837 0.766830 -0.014981
C16   C     C_R   0.500155 0.483871 0.048172 -0.020192
C17   C     C_R   0.498039 0.483998 0.951728 -0.019387
C18   C     C_R   0.873144 0.499852 0.498533 -0.067646
C19   C     C_R   0.129218 0.498785 0.498369 -0.067073
C20   C     C_2   0.696133 0.638237 0.225944 0.582778
C21   C     C_2   0.712984 0.397108 0.768779 0.590733
C22   C     C_2   0.292273 0.622438 0.771044 0.600256
C23   C     C_R   0.499560 0.500502 0.329883 0.592455
C24   C     C_2   0.301251 0.352247 0.233120 0.589426
C25   C     C_2   0.128767 0.261217 0.575966 0.638084
C26   C     C_2   0.879410 0.760975 0.458704 0.655117
C27   C     C_2   0.876079 0.239470 0.538740 0.651954
C28   C     C_2   0.129481 0.730501 0.415204 0.634009
C29   C     C_R   0.499009 0.499479 0.670009 0.623341
C30   C     C_R   0.440411 0.075339 0.435370 0.049228
C31   C     C_R   0.558858 0.924697 0.564989 0.047578
C32   C     C_R   0.558520 0.073494 0.565144 0.024882
C33   C     C_R   0.440883 0.926584 0.435209 0.065246
C34   C     C_R   0.065011 0.380455 0.531182 -0.011385
Cu1   Cu    Cu3+1 0.500000 0.640660 0.500000 1.090587
Cu2   Cu    Cu3+1 0.500000 0.359340 0.500000 1.069402
H1    H     H_    0.392230 0.131954 0.383709 0.151199
H2    H     H_    0.846980 0.454021 0.685644 0.352104
H3    H     H_    0.176239 0.631509 0.667794 0.344703
H4    H     H_    0.181548 0.348752 0.333393 0.350204
H5    H     H_    0.172901 0.055691 0.575221 0.364564
H6    H     H_    0.836435 0.915910 0.372050 0.371404
H7    H     H_    0.785218 0.076857 0.485877 0.351621
H8    H     H_    0.220705 0.786871 0.305042 0.337488
H9    H     H_    0.606767 0.868089 0.616779 0.164930
H10   H     H_    0.606120 0.128741 0.617027 0.164663
H11   H     H_    0.394074 0.871449 0.383121 0.138742
H12   H     H_    0.666231 0.602969 0.054950 0.164891
H13   H     H_    0.673522 0.386645 0.941416 0.167113
H14   H     H_    0.325444 0.588708 0.944106 0.168825
H15   H     H_    0.334511 0.365544 0.059518 0.170686
H16   H     H_    0.878593 0.667086 0.230282 0.384169
N1    N     N_R   0.500000 0.852070 0.500000 -0.240327
N2    N     N_R   0.500000 0.147930 0.500000 -0.248193
O1    O     O_R   0.319640 0.618740 0.499990 -0.479967
O2    O     O_R   0.814903 0.608505 0.198792 -0.666339
O3    O     O_2   0.767707 0.291533 0.793019 -0.449860
O4    O     O_R   0.762261 0.484378 0.703406 -0.686060
O5    O     O_2   0.237996 0.716404 0.808810 -0.479204
O6    O     O_R   0.250740 0.577570 0.688869 -0.662555
O7    O     O_2   0.257607 0.245211 0.201764 -0.494439
O8    O     O_R   0.251884 0.407341 0.309993 -0.657413
O9    O     O_2   0.184125 0.280946 0.645035 -0.449884
O10   O     O_R   0.125543 0.127359 0.538883 -0.619610
O11   O     O_2   0.838574 0.825277 0.521361 -0.487454
O12   O     O_R   0.680360 0.381260 0.500010 -0.482679
O13   O     O_R   0.878201 0.821105 0.374202 -0.644022
O14   O     O_2   0.865913 0.192930 0.613888 -0.457543
O15   O     O_R   0.830975 0.164284 0.466912 -0.644160
O16   O     O_2   0.133100 0.849599 0.444648 -0.470832
O17   O     O_R   0.184551 0.700457 0.334628 -0.645785
O18   O     O_R   0.680360 0.618740 0.500010 -0.461876
O19   O     O_R   0.319640 0.381260 0.499990 -0.473665
O20   O     O_R   0.499990 0.618780 0.371460 -0.468998
O21   O     O_R   0.500010 0.381220 0.628540 -0.489200
O22   O     O_R   0.500010 0.618780 0.628540 -0.491932
O23   O     O_R   0.499990 0.381220 0.371460 -0.505564
O24   O     O_2   0.678060 0.729425 0.280400 -0.472010

loop_
_geom_bond_atom_site_label_1
_geom_bond_atom_site_label_2
_ccdc_geom_bond_type
Cu1   O20   S    
C8    C13   A    
Cu1   N1    S    
Cu1   Cu2   S    
C20   O2    S    
C29   O22   A    
C21   O3    D    
C30   N2    A    
C24   O7    D    
H8    O17   S    
C26   O13   S    
Cu2   O23   S    
C22   O6    S    
Cu2   O12   S    
C2    C18   A    
H4    O8    S    
C3    C18   A    
C25   O9    D    
C5    C16   A    
C27   O14   D    
H2    O4    S    
C4    C19   A    
C11   C15   A    
C16   C17   S    
C7    C17   A    
C15   C29   S    
C27   O15   S    
C25   C34   S    
C12   O18   A    
C8    C16   A    
C13   C14   A    
C32   N2    A    
C4    C28   S    
C7    C11   A    
C10   C21   S    
C33   N1    A    
C5    H12   S    
Cu1   O22   S    
C1    C19   S    
Cu1   O1    S    
C22   O5    D    
C3    C34   A    
C12   O12   A    
C23   O23   A    
C30   H1    S    
C25   O10   S    
C14   C23   S    
C2    C4    A    
C9    C14   A    
C5    C9    A    
Cu2   O21   S    
C9    C20   S    
C31   C32   A    
C2    C26   S    
C31   N1    A    
C8    H15   S    
Cu1   O18   S    
H6    O13   S    
C33   H11   S    
C28   O17   S    
C23   O20   A    
C6    C17   A    
C24   O8    S    
C30   C33   A    
C26   O11   D    
C32   H10   S    
C28   O16   D    
C7    H14   S    
C19   C34   A    
C6    C10   A    
C29   O21   A    
C11   C22   S    
C20   O24   D    
C10   C15   A    
C1    O19   A    
C3    C27   S    
C1    O1    A    
C21   O4    S    
H3    O6    S    
C6    H13   S    
Cu2   N2    S    
Cu2   O19   S    
C13   C24   S    
H7    O15   S    
C31   H9    S    
C12   C18   S    
H5    O10   S    
H16   O2    S    
