data_mof_unit_55048.cif
_audit_creation_date              2013-03-05T15:48:19-0500
_audit_creation_method            fapswitch 2.2
_symmetry_space_group_name_H-M    P1
_symmetry_Int_Tables_number       1
_space_group_crystal_system       triclinic
_cell_length_a                    21.116632
_cell_length_b                    7.230221
_cell_length_c                    18.280597
_cell_angle_alpha                 89.996314
_cell_angle_beta                  93.435377
_cell_angle_gamma                 89.997006
_cell_volume                      2786.02799404

loop_
_atom_site_label
_atom_site_type_symbol
_atom_site_description
_atom_site_fract_x
_atom_site_fract_y
_atom_site_fract_z
_atom_type_partial_charge
O1    O     O_R   0.448880 0.506250 0.415280 -0.574786
O2    O     O_R   0.551120 0.006250 0.584720 -0.574841
O3    O     O_R   0.434830 0.174000 0.557310 -0.553369
O4    O     O_R   0.565170 0.674000 0.442690 -0.552980
C1    C     C_R   0.417130 0.344523 0.579872 0.927337
C2    C     C_R   0.582877 0.844526 0.420137 0.927300
O5    O     O_R   0.441680 0.176440 0.414130 -0.575344
O6    O     O_R   0.558320 0.676440 0.585870 -0.575152
O7    O     O_R   0.558020 0.007570 0.440520 -0.547884
O8    O     O_R   0.441980 0.507570 0.559480 -0.547675
C3    C     C_R   0.428037 0.344765 0.388256 1.011374
C4    C     C_R   0.571965 0.844745 0.611746 1.011333
O9    O     O_3   0.538160 0.339670 0.508820 -0.266723
O10   O     O_3   0.461840 0.839670 0.491180 -0.266985
V1    V     V_3+5 0.492920 0.064260 0.498360 1.273283
V2    V     V_3+5 0.507080 0.564260 0.501640 1.273786
C5    C     C_R   0.866840 0.092056 0.699204 0.006493
C6    C     C_R   0.133078 0.591309 0.300890 0.006045
H1    H     H_    0.949614 0.140604 0.769008 0.160257
H2    H     H_    0.050345 0.640198 0.231048 0.160131
H3    H     H_    0.885425 0.178808 0.657474 0.199451
H4    H     H_    0.114469 0.677856 0.342669 0.199360
C7    C     C_R   0.886305 0.950105 0.818759 -0.263739
C8    C     C_R   0.113705 0.449990 0.181217 -0.264016
C9    C     C_R   0.584239 0.794594 0.746658 0.181927
C10   C     C_R   0.415832 0.295490 0.253293 0.181675
C11   C     C_R   0.620770 0.797400 0.813697 0.352181
C12   C     C_R   0.379320 0.298634 0.186242 0.352132
C13   C     C_R   0.685289 0.841212 0.814757 -0.182328
C14   C     C_R   0.314765 0.342006 0.185210 -0.182349
C15   C     C_R   0.715734 0.878039 0.749970 0.089555
C16   C     C_R   0.284272 0.378099 0.250026 0.089529
C17   C     C_R   0.677258 0.898881 0.683869 0.030284
C18   C     C_R   0.322711 0.398605 0.316170 0.030249
C19   C     C_R   0.782534 0.913269 0.750923 -0.073562
C20   C     C_R   0.217455 0.413020 0.249078 -0.073691
C21   C     C_R   0.805679 0.014979 0.691407 -0.063682
C22   C     C_R   0.194235 0.514184 0.308684 -0.063797
C23   C     C_R   0.766809 0.039169 0.626099 0.491023
C24   C     C_R   0.233034 0.537827 0.374071 0.490709
C25   C     C_R   0.704550 0.972553 0.622147 -0.295015
C26   C     C_R   0.295340 0.471548 0.377974 -0.295382
C27   C     C_R   0.827159 0.856349 0.809257 0.448686
C28   C     C_R   0.172881 0.356344 0.190666 0.448609
C29   C     C_R   0.904558 0.068580 0.763348 -0.227858
C30   C     C_R   0.095408 0.568190 0.236691 -0.227199
C31   C     C_R   0.611809 0.849946 0.681570 -0.332913
C32   C     C_R   0.388195 0.350078 0.318435 -0.332989
H5    H     H_    0.711577 0.849995 0.867152 0.209212
H6    H     H_    0.288484 0.351061 0.132815 0.209198
H7    H     H_    0.676096 0.989264 0.571445 0.147693
H8    H     H_    0.323759 0.487944 0.428717 0.147443
C33   C     C_1   0.864375 0.938861 0.131911 -0.249674
C34   C     C_1   0.135632 0.438858 0.868099 -0.249492
C35   C     C_1   0.821410 0.924737 0.175525 0.112805
C36   C     C_1   0.178603 0.424731 0.824494 0.112884
C37   C     C_1   0.770722 0.905530 0.227478 0.061775
C38   C     C_1   0.229299 0.405520 0.772550 0.061851
C39   C     C_1   0.728069 0.888813 0.271358 0.076627
C40   C     C_1   0.271957 0.388799 0.728676 0.076915
C41   C     C_1   0.677493 0.869611 0.323438 0.131318
C42   C     C_1   0.322535 0.369596 0.676599 0.131941
C43   C     C_1   0.634800 0.855667 0.367401 -0.194037
C44   C     C_1   0.365221 0.355658 0.632627 -0.193660
O11   O     O_R   0.058070 0.289240 0.940580 -0.557980
O12   O     O_R   0.941930 0.789240 0.059420 -0.558023
O13   O     O_R   0.058330 0.616740 0.085880 -0.615871
O14   O     O_R   0.941670 0.116740 0.914120 -0.615890
C45   C     C_R   0.072525 0.448906 0.111894 0.974428
C46   C     C_R   0.927482 0.948926 0.888094 0.974291
O15   O     O_R   0.065180 0.619040 0.942700 -0.570164
O16   O     O_R   0.934820 0.119040 0.057300 -0.570090
O17   O     O_R   0.948870 0.787780 0.915270 -0.512294
O18   O     O_R   0.051130 0.287780 0.084730 -0.512400
C47   C     C_R   0.083244 0.450304 0.920246 0.958665
C48   C     C_R   0.916757 0.950305 0.079756 0.958505
O19   O     O_3   0.961870 0.453310 0.991210 -0.251691
O20   O     O_3   0.038130 0.953310 0.008790 -0.251788
V3    V     V_3+5 0.007070 0.728770 0.001630 1.248411
V4    V     V_3+5 0.992930 0.228770 0.998370 1.248500
S1    S     S_3+6 0.794183 0.151015 0.547486 -0.009669
O21   O     O_2   0.805941 0.351737 0.564794 -0.238816
O22   O     O_2   0.855240 0.063983 0.526723 -0.268922
O23   O     O_3   0.740450 0.136312 0.476021 -0.509768
H9    H     H_    0.743386 0.006919 0.458797 0.335960
S2    S     S_3+6 0.205486 0.648377 0.452867 -0.009569
O24   O     O_2   0.193913 0.849460 0.436079 -0.238838
O25   O     O_2   0.144301 0.561263 0.473150 -0.268602
O26   O     O_3   0.259006 0.632083 0.524480 -0.510025
H10   H     H_    0.256150 0.502122 0.541063 0.335792
S3    S     S_3+6 0.818520 0.640928 0.855177 -0.029623
O27   O     O_2   0.810302 0.674695 0.935181 -0.292284
O28   O     O_2   0.763193 0.531397 0.822723 -0.286333
O29   O     O_3   0.884300 0.514235 0.846081 -0.510763
H11   H     H_    0.872775 0.388339 0.861826 0.379196
S4    S     S_3+6 0.181642 0.141289 0.144524 -0.029719
O30   O     O_2   0.189774 0.175668 0.064541 -0.292486
O31   O     O_2   0.237067 0.031868 0.176811 -0.286334
O32   O     O_3   0.115964 0.014113 0.153563 -0.510632
H12   H     H_    0.127557 0.888415 0.137644 0.379201
N1    N     N_R   0.518704 0.740347 0.744730 0.255362
O33   O     O_R   0.474723 0.851286 0.717807 -0.376912
O34   O     O_R   0.503114 0.576238 0.766619 -0.308214
N2    N     N_R   0.481413 0.241707 0.255182 0.255314
O35   O     O_R   0.525296 0.352727 0.282262 -0.376917
O36   O     O_R   0.497151 0.077946 0.233050 -0.308032
S5    S     S_3+6 0.586478 0.750438 0.897793 0.101308
O37   O     O_2   0.579990 0.544709 0.906202 -0.155242
O38   O     O_2   0.627591 0.823868 0.961248 -0.232925
O39   O     O_3   0.514147 0.847474 0.898698 -0.403709
H13   H     H_    0.521446 0.981315 0.891220 0.367412
S6    S     S_3+6 0.413687 0.252785 0.102100 0.101271
O40   O     O_2   0.420386 0.047198 0.093406 -0.155299
O41   O     O_2   0.372522 0.326467 0.038729 -0.232877
O42   O     O_3   0.485922 0.350478 0.101366 -0.403509
H14   H     H_    0.478487 0.484169 0.109067 0.367347

loop_
_geom_bond_atom_site_label_1
_geom_bond_atom_site_label_2
_geom_bond_distance
_ccdc_geom_bond_type
O14   V4    2.000069 S    
C14   C16   1.406461 A    
N1    O33   1.301239 A    
C7    C29   1.398241 A    
C11   C13   1.397790 A    
O1    C3    1.332315 A    
O16   C48   1.349497 A    
O2    C4    1.332370 A    
C2    O7    1.351836 A    
N2    O36   1.300834 A    
S1    O21   1.502863 D    
C23   C25   1.397983 A    
C13   H5    1.079759 S    
C12   S6    1.770982 S    
O5    C3    1.330956 A    
O12   V3    1.836699 S    
C16   C20   1.432434 A    
C19   C21   1.423736 A    
C5    C29   1.387868 A    
S2    O25   1.503669 D    
C37   C39   1.247350 T    
C38   C40   1.247353 T    
O42   H14   0.990686 S    
S4    O32   1.680436 S    
C7    C27   1.422580 A    
C40   C42   1.479235 S    
C24   S2    1.775559 S    
C41   C43   1.247258 T    
O39   H13   0.990665 S    
N2    O35   1.301240 A    
C42   C44   1.247264 T    
C10   N2    1.436808 S    
C18   C26   1.402497 A    
S4    O31   1.503717 D    
S5    O37   1.502486 D    
C15   C17   1.423125 A    
C19   C27   1.440138 A    
C9    C31   1.413449 A    
C10   C32   1.413437 A    
O5    V1    1.999901 S    
C14   H6    1.079784 S    
O6    V2    2.000029 S    
O11   V4    1.836701 S    
O18   V4    1.988060 S    
C13   C15   1.406459 A    
S5    O38   1.503541 D    
C7    C46   1.493508 S    
C3    C32   1.486500 S    
C4    C31   1.486566 S    
C6    C30   1.387877 A    
S6    O41   1.503546 D    
S6    O40   1.502486 D    
S1    O22   1.503665 D    
C8    C45   1.493366 S    
C33   C35   1.247364 T    
C34   C36   1.247364 T    
C39   C41   1.479235 S    
O13   V3    1.999938 S    
O23   H9    0.990241 S    
C23   S1    1.775603 S    
O4    C2    1.359553 A    
S3    O27   1.503047 D    
S2    O24   1.502855 D    
C5    H3    1.079459 S    
O15   V3    1.858530 S    
O16   V4    1.858526 S    
C1    C44   1.504901 S    
O13   C45   1.330913 A    
C16   C18   1.423112 A    
C2    C43   1.504901 S    
O4    V2    1.858492 S    
C28   S4    1.783888 S    
S3    O28   1.503727 D    
O32   H12   0.989505 S    
C11   S5    1.770980 S    
O6    C4    1.330926 A    
O12   C48   1.341856 A    
S4    O30   1.503046 D    
C46   O17   1.334641 A    
O17   V3    1.987993 S    
C45   O18   1.334585 A    
O1    V2    1.986523 S    
C5    C21   1.406034 A    
O2    V1    1.986456 S    
C35   C37   1.479462 S    
C17   C31   1.424827 A    
S5    O39   1.681766 S    
C15   C19   1.432485 A    
C20   C28   1.440054 A    
C33   C48   1.505252 S    
C18   C32   1.424808 A    
C20   C22   1.423663 A    
S1    O23   1.681635 S    
O3    V1    1.858495 S    
N1    O34   1.300836 A    
O19   V4    1.752871 S    
C6    H4    1.079477 S    
O3    C1    1.359559 A    
S2    O26   1.681547 S    
H1    C29   1.084148 S    
C9    C11   1.408567 A    
C10   C12   1.408590 A    
O11   C47   1.341861 A    
C8    C30   1.398237 A    
C12   C14   1.397796 A    
C6    C22   1.406028 A    
C17   C25   1.402453 A    
C1    O8    1.351848 A    
C21   C23   1.418500 A    
O8    V2    1.830292 S    
S3    O29   1.680412 S    
O15   C47   1.349506 A    
O20   V3    1.752949 S    
C9    N1    1.436811 S    
C22   C24   1.418427 A    
C8    C28   1.422595 A    
C24   C26   1.398027 A    
C36   C38   1.479464 S    
O7    V1    1.830292 S    
O29   H11   0.989460 S    
C27   S3    1.783841 S    
C34   C47   1.505255 S    
O14   C46   1.330912 A    
O9    V2    1.753380 S    
O10   V1    1.753459 S    
O26   H10   0.990271 S    
C25   H7    1.080698 S    
S6    O42   1.681772 S    
H2    C30   1.084149 S    
C26   H8    1.080724 S    
