data_mof_unit_15129.cif
_audit_creation_date              2012-12-11T15:49:12-0500
_audit_creation_method            fapswitch 2.2
_symmetry_space_group_name_H-M    P1
_symmetry_Int_Tables_number       1
_space_group_crystal_system       triclinic
_cell_length_a                    21.6251
_cell_length_b                    7.179507
_cell_length_c                    14.87042
_cell_angle_alpha                 90.482339
_cell_angle_beta                  106.479402
_cell_angle_gamma                 90.09894
_cell_volume                      2213.80710084

loop_
_atom_site_label
_atom_site_type_symbol
_atom_type_description
_atom_site_fract_x
_atom_site_fract_y
_atom_site_fract_z
_atom_type_partial_charge
O1    O     O_R   0.335860 0.638190 0.002110 -0.545886
O2    O     O_R   0.664140 0.361810 0.997890 -0.545886
O3    O     O_R   0.164140 0.138190 0.997890 -0.545609
O4    O     O_R   0.835860 0.861810 0.002110 -0.545608
O5    O     O_R   0.217530 0.305920 0.861960 -0.526690
O6    O     O_R   0.782470 0.694080 0.138040 -0.526689
O7    O     O_R   0.282470 0.805920 0.138040 -0.535981
O8    O     O_R   0.717530 0.194080 0.861960 -0.535981
C1    C     C_R   0.205876 0.475809 0.825675 0.722516
C2    C     C_R   0.794124 0.524191 0.174325 0.722516
C3    C     C_R   0.294035 0.977705 0.174190 0.723210
C4    C     C_R   0.705965 0.022295 0.825810 0.723210
O9    O     O_R   0.338690 0.308320 0.993240 -0.538932
O10   O     O_R   0.661310 0.691680 0.006760 -0.538932
O11   O     O_R   0.161310 0.808320 0.006760 -0.542808
O12   O     O_R   0.838690 0.191680 0.993240 -0.542808
O13   O     O_R   0.286170 0.140430 0.130100 -0.540398
O14   O     O_R   0.713830 0.859570 0.869900 -0.540398
O15   O     O_R   0.213830 0.640430 0.869900 -0.539164
O16   O     O_R   0.786170 0.359570 0.130100 -0.539164
C5    C     C_R   0.364979 0.477330 0.997780 0.691932
C6    C     C_R   0.635021 0.522670 0.002220 0.691931
C7    C     C_R   0.135027 0.977138 0.002214 0.699497
C8    C     C_R   0.864973 0.022862 0.997786 0.699498
O17   O     O_3   0.232630 0.472410 0.044750 -0.381980
O18   O     O_3   0.767370 0.527590 0.955250 -0.381980
O19   O     O_3   0.267370 0.972410 0.955250 -0.375982
O20   O     O_3   0.732630 0.027590 0.044750 -0.375983
V1    V     V_3+5 0.253220 0.196620 0.991700 1.461274
V2    V     V_3+5 0.746780 0.803380 0.008300 1.461274
V3    V     V_3+5 0.246780 0.696620 0.008300 1.445249
V4    V     V_3+5 0.753220 0.303380 0.991700 1.445249
C9    C     C_R   0.029399 0.826157 0.001533 -0.123296
C10   C     C_R   0.970601 0.173843 0.998467 -0.123297
C11   C     C_R   0.469515 0.326475 0.993919 -0.102546
C12   C     C_R   0.530485 0.673525 0.006081 -0.102547
H1    H     H_    0.050797 0.689688 0.002394 0.115966
H2    H     H_    0.949202 0.310312 0.997606 0.115966
H3    H     H_    0.447238 0.190195 0.989361 0.124881
H4    H     H_    0.552762 0.809804 0.010639 0.124881
C13   C     C_R   0.964422 0.837653 0.999876 -0.137601
C14   C     C_R   0.035578 0.162347 0.000124 -0.137601
C15   C     C_R   0.534501 0.337718 0.995580 -0.135599
C16   C     C_R   0.465499 0.662282 0.004420 -0.135599
H5    H     H_    0.938091 0.709216 0.999832 0.118558
H6    H     H_    0.061909 0.290784 0.000168 0.118558
H7    H     H_    0.559955 0.209405 0.991907 0.124658
H8    H     H_    0.440045 0.790595 0.008093 0.124658
C17   C     C_R   0.934007 0.011689 0.998297 -0.024930
C18   C     C_R   0.065993 0.988311 0.001703 -0.024930
C19   C     C_R   0.565989 0.511434 0.001675 -0.043277
C20   C     C_R   0.434011 0.488566 0.998325 -0.043277
C21   C     C_R   0.678653 0.010094 0.724036 -0.044732
C22   C     C_R   0.321347 0.989906 0.275964 -0.044732
C23   C     C_R   0.821151 0.520877 0.276418 -0.050516
C24   C     C_R   0.178849 0.479123 0.723582 -0.050515
C25   C     C_R   0.689744 0.979134 0.567594 -0.191438
C26   C     C_R   0.310256 0.020867 0.432406 -0.191438
C27   C     C_R   0.812960 0.594328 0.431419 -0.186010
C28   C     C_R   0.187040 0.405675 0.568581 -0.186009
C29   C     C_R   0.718142 0.982879 0.664798 0.194411
C30   C     C_R   0.281858 0.017122 0.335201 0.194410
C31   C     C_R   0.783057 0.567403 0.335516 0.195786
C32   C     C_R   0.216943 0.432600 0.664484 0.195786
C33   C     C_R   0.611796 0.022302 0.686678 -0.251499
C34   C     C_R   0.388203 0.977698 0.313322 -0.251499
C35   C     C_R   0.887404 0.492166 0.313856 -0.240830
C36   C     C_R   0.112595 0.507831 0.686145 -0.240830
C37   C     C_R   0.581808 0.996847 0.589814 0.079769
C38   C     C_R   0.418192 0.003152 0.410185 0.079769
C39   C     C_R   0.917600 0.504044 0.411419 0.078240
C40   C     C_R   0.082400 0.495955 0.588582 0.078240
C41   C     C_R   0.622482 0.991387 0.530188 0.093295
C42   C     C_R   0.377518 0.008613 0.469812 0.093294
C43   C     C_R   0.879820 0.570669 0.468484 0.094832
C44   C     C_R   0.120180 0.429332 0.531516 0.094832
C45   C     C_R   0.513119 0.989277 0.549829 0.010568
C46   C     C_R   0.486880 0.010723 0.450171 0.010567
C47   C     C_R   0.984974 0.468266 0.452788 0.012906
C48   C     C_R   0.015026 0.531732 0.547213 0.012906
C49   C     C_R   0.530605 0.041416 0.395427 -0.041702
C50   C     C_R   0.469395 0.958584 0.604573 -0.041702
C51   C     C_R   0.976345 0.629344 0.595559 -0.044791
C52   C     C_R   0.023654 0.370654 0.404441 -0.044791
C53   C     C_R   0.596465 0.014140 0.434176 -0.221419
C54   C     C_R   0.403535 0.985861 0.565824 -0.221419
C55   C     C_R   0.909545 0.631398 0.559518 -0.211292
C56   C     C_R   0.090454 0.368602 0.440482 -0.211292
H9    H     H_    0.628559 0.027436 0.390062 0.131892
H10   H     H_    0.371441 0.972565 0.609938 0.131892
H11   H     H_    0.880766 0.697871 0.599731 0.121999
H12   H     H_    0.119234 0.302129 0.400269 0.121999
H13   H     H_    0.415332 0.939074 0.265480 0.128517
H14   H     H_    0.584667 0.060924 0.734520 0.128516
H15   H     H_    0.084891 0.522156 0.735686 0.126755
H16   H     H_    0.915109 0.477840 0.264314 0.126755
H17   H     H_    0.720188 0.969971 0.520994 0.114458
H18   H     H_    0.279812 0.030031 0.479006 0.114459
H19   H     H_    0.784468 0.641558 0.476545 0.112199
H20   H     H_    0.215532 0.358447 0.523454 0.112199
N1    N     N_3   0.213122 0.031003 0.296514 -0.676587
H21   H     H_    0.203626 0.156330 0.259937 0.221219
H22   H     H_    0.190712 0.039924 0.350143 0.228076
N2    N     N_3   0.786878 0.969000 0.703486 -0.676587
H23   H     H_    0.796374 0.843672 0.740062 0.221219
H24   H     H_    0.809288 0.960082 0.649857 0.228077
N3    N     N_3   0.284980 0.401949 0.703185 -0.671042
H25   H     H_    0.306153 0.529921 0.728890 0.218853
H26   H     H_    0.305605 0.359998 0.650663 0.229844
N4    N     N_3   0.715020 0.598058 0.296814 -0.671042
H27   H     H_    0.693846 0.470085 0.271111 0.218854
H28   H     H_    0.694395 0.640015 0.349335 0.229844
C57   C     C_1   0.512301 0.125904 0.303702 0.290983
N5    N     N_1   0.498102 0.194274 0.230483 -0.372910
C58   C     C_1   0.487699 0.874096 0.696297 0.290983
N6    N     N_1   0.501898 0.805725 0.769517 -0.372910
C59   C     C_1   0.002455 0.751763 0.675174 0.294980
N7    N     N_1   0.022952 0.850602 0.738627 -0.361874
C60   C     C_1   0.997544 0.248233 0.324828 0.294980
N8    N     N_1   0.977048 0.149392 0.261375 -0.361874

loop_
_geom_bond_atom_site_label_1
_geom_bond_atom_site_label_2
_ccdc_geom_bond_type
O17   V3    S    
C51   C55   A    
C26   C30   A    
N1    H21   S    
C55   H11   S    
O19   V1    S    
C27   H19   S    
C37   C45   A    
C26   H18   S    
C40   C44   A    
O15   V3    S    
N2    H24   S    
O4    V2    S    
C45   C46   A    
O1    C5    A    
O9    V1    S    
C50   C58   S    
C47   C52   A    
O4    C8    A    
C38   C46   A    
C58   N6    T    
O1    V3    S    
O13   V1    S    
O2    V4    S    
C14   H6    S    
C25   C41   A    
O3    V1    S    
O3    C7    A    
C38   C42   A    
N4    H27   S    
C21   C29   A    
C1    O15   A    
C56   H12   S    
C2    O16   A    
C10   C14   A    
C23   C31   A    
O2    C6    A    
N3    H25   S    
C24   C32   A    
C37   C41   A    
O14   V2    S    
C21   C33   A    
C44   C56   A    
C4    C21   S    
C36   C40   A    
C30   N1    S    
C16   C20   A    
O11   C7    A    
O12   C8    A    
O10   C6    A    
N3    H26   S    
O10   V2    S    
C48   C51   A    
C13   C17   A    
N2    H23   S    
O7    C3    A    
O5    V1    S    
C36   H15   S    
O7    V3    S    
O8    V4    S    
C12   H4    S    
C29   N2    S    
C54   H10   S    
C53   H9    S    
O18   V4    S    
C7    C18   S    
C22   C30   A    
C9    C18   A    
C50   C54   A    
C28   C44   A    
C9    H1    S    
C39   C47   A    
C11   H3    S    
O5    C1    A    
O8    C4    A    
C25   H17   S    
O9    C5    A    
C1    C24   S    
C42   C54   A    
C25   C29   A    
C2    C23   S    
C3    C22   S    
C41   C53   A    
C12   C19   A    
C14   C18   A    
C34   H13   S    
C43   C55   A    
C33   H14   S    
O6    V2    S    
C35   H16   S    
C12   C16   A    
C49   C57   S    
C27   C43   A    
C11   C15   A    
C26   C42   A    
C32   N3    S    
C57   N5    T    
O16   V4    S    
C8    C17   S    
C3    O13   A    
C10   C17   A    
C10   H2    S    
C52   C56   A    
C28   H20   S    
O6    C2    A    
C23   C35   A    
C60   N8    T    
O11   V3    S    
C22   C34   A    
O12   V4    S    
C27   C31   A    
C28   C32   A    
C9    C13   A    
C51   C59   S    
C31   N4    S    
O20   V2    S    
C40   C48   A    
C24   C36   A    
C59   N7    T    
C39   C43   A    
C46   C49   A    
C15   C19   A    
C34   C38   A    
C45   C50   A    
C52   C60   S    
C33   C37   A    
C35   C39   A    
N4    H28   S    
C47   C48   A    
N1    H22   S    
C4    O14   A    
C11   C20   A    
C13   H5    S    
C15   H7    S    
C5    C20   S    
C49   C53   A    
C16   H8    S    
C6    C19   S    
