data_mof_unit_28421.cif
_audit_creation_date              2012-12-10T16:50:11-0500
_audit_creation_method            fapswitch 2.2
_symmetry_space_group_name_H-M    P1
_symmetry_Int_Tables_number       1
_space_group_crystal_system       triclinic
_cell_length_a                    7.771737
_cell_length_b                    8.651123
_cell_length_c                    10.642825
_cell_angle_alpha                 89.993848
_cell_angle_beta                  89.021246
_cell_angle_gamma                 92.973954
_cell_volume                      714.494067434

loop_
_atom_site_label
_atom_site_type_symbol
_atom_type_description
_atom_site_fract_x
_atom_site_fract_y
_atom_site_fract_z
_atom_type_partial_charge
C1    C     C_R   0.544178 0.794266 0.499376 0.853875
C2    C     C_R   0.455239 0.206324 0.503309 0.952638
C3    C     C_R   0.491906 0.499542 0.258782 0.882552
C4    C     C_R   0.350844 0.762918 0.870458 -0.104076
C5    C     C_R   0.221105 0.842894 0.927730 -0.047121
C6    C     C_R   0.148071 0.788177 0.040039 -0.150306
C7    C     C_R   0.213677 0.659567 0.101170 -0.114651
C8    C     C_R   0.370316 0.598624 0.055569 0.057299
C9    C     C_2   0.825825 0.415713 0.889009 0.963221
C10   C     C_2   0.088632 0.563933 0.178212 0.962841
C11   C     C_2   0.686428 0.001540 0.626712 0.956754
C12   C     C_R   0.420805 0.636738 0.931850 0.069603
C13   C     C_2   0.279521 0.990324 0.418221 0.953985
C14   C     C_2   0.981437 0.299211 0.460958 1.163331
C15   C     C_R   0.538847 0.545639 0.869919 -0.175707
C16   C     C_R   0.654104 0.459234 0.937662 -0.068723
C17   C     C_R   0.615008 0.429220 0.061781 -0.199234
C18   C     C_R   0.478384 0.499432 0.122968 -0.102055
C19   C     C_2   0.560710 0.954719 0.527357 -0.335253
C20   C     C_2   0.432644 0.044868 0.490428 -0.242056
C21   C     C_R   0.510868 0.512663 0.739080 0.892547
H1    H     H_    0.997636 0.643632 0.561784 0.248605
H2    H     H_    0.944965 0.105172 0.357299 0.330040
H3    H     H_    0.397892 0.800439 0.778448 0.140290
H4    H     H_    0.167457 0.939391 0.879938 0.178175
H5    H     H_    0.030323 0.838515 0.071291 0.159007
H6    H     H_    0.700811 0.358938 0.114024 0.235761
H7    H     H_    0.020660 0.270998 0.900120 0.363749
H8    H     H_    0.972533 0.746028 0.257252 0.287881
H9    H     H_    0.732084 0.121224 0.785354 0.369540
H10   H     H_    0.042698 0.882999 0.426795 0.322952
N1    N     N_2   0.950330 0.457950 0.466250 -0.132478
N2    N     N_2   0.049670 0.542050 0.533750 -0.165233
O1    O     O_R   0.389250 0.738570 0.508280 -0.614065
O2    O     O_R   0.901557 0.285527 0.937267 -0.793359
O3    O     O_2   0.090466 0.423189 0.172089 -0.521695
O4    O     O_R   0.960138 0.629692 0.250771 -0.776528
O5    O     O_2   0.822627 0.937727 0.634200 -0.567070
O6    O     O_R   0.642384 0.109396 0.717917 -0.803329
O7    O     O_2   0.280000 0.001044 0.303688 -0.642037
O8    O     O_R   0.135745 0.926436 0.483809 -0.727831
O9    O     O_2   0.000838 0.227048 0.558053 -0.594630
O10   O     O_R   0.955509 0.221308 0.347521 -0.750459
O11   O     O_R   0.678390 0.711630 0.486650 -0.597722
O12   O     O_R   0.355400 0.513470 0.694050 -0.589693
O13   O     O_R   0.644540 0.486530 0.672420 -0.590426
O14   O     O_R   0.321610 0.288370 0.513350 -0.611901
O15   O     O_R   0.610750 0.261430 0.491720 -0.625208
O16   O     O_R   0.355460 0.513470 0.327580 -0.635290
O17   O     O_R   0.644600 0.486530 0.305950 -0.564869
O18   O     O_2   0.907663 0.500406 0.815067 -0.597099
Zn1   Zn    Zn3+2 0.306930 0.517990 0.514440 1.038788
Zn2   Zn    Zn3+2 0.693070 0.482010 0.485560 1.056673

loop_
_geom_bond_atom_site_label_1
_geom_bond_atom_site_label_2
_ccdc_geom_bond_type
H9    O6    S    
C11   O5    D    
C6    C7    A    
C2    O14   A    
C4    C12   A    
C1    O11   A    
O1    Zn1   S    
C19   C20   D    
C9    O18   D    
C12   C15   A    
C14   O9    D    
C8    C12   A    
O16   Zn1   S    
N1    N2    D    
C13   O8    S    
C17   C18   A    
C3    O16   A    
C7    C8    A    
N2    Zn1   S    
C11   O6    S    
C11   C19   S    
C6    H5    S    
H1    N2    S    
C10   O4    S    
C5    H4    S    
C5    C6    A    
O13   Zn2   S    
C9    C16   S    
C1    O1    A    
O12   Zn1   S    
C21   O12   A    
O15   Zn2   S    
C4    H3    S    
C1    C19   S    
O17   Zn2   S    
C16   C17   A    
C2    C20   S    
C15   C16   A    
C17   H6    S    
N1    Zn2   S    
C15   C21   S    
H2    O10   S    
C3    C18   S    
C21   O13   A    
C7    C10   S    
H8    O4    S    
C9    O2    S    
O14   Zn1   S    
C14   O10   S    
C13   O7    D    
C10   O3    D    
H10   O8    S    
C13   C20   S    
C2    O15   A    
O11   Zn2   S    
C3    O17   A    
C8    C18   A    
H7    O2    S    
C14   N1    S    
C4    C5    A    
