data_mof_unit_5600.cif
_audit_creation_date              2012-12-10T20:40:01-0500
_audit_creation_method            fapswitch 2.2
_symmetry_space_group_name_H-M    P1
_symmetry_Int_Tables_number       1
_space_group_crystal_system       triclinic
_cell_length_a                    23.299271
_cell_length_b                    10.660589
_cell_length_c                    9.844447
_cell_angle_alpha                 89.968605
_cell_angle_beta                  89.608831
_cell_angle_gamma                 89.486497
_cell_volume                      2445.04717665

loop_
_atom_site_label
_atom_site_type_symbol
_atom_type_description
_atom_site_fract_x
_atom_site_fract_y
_atom_site_fract_z
_atom_type_partial_charge
C1    C     C_R   0.498092 0.260055 0.500208 0.864002
C2    C     C_R   0.119961 0.629905 0.545747 0.591284
C3    C     C_R   0.242919 0.592329 0.386550 0.503181
C4    C     C_R   0.389376 0.499748 0.500032 0.926626
C5    C     C_R   0.302229 0.585089 0.398375 -0.365656
C6    C     C_R   0.327278 0.507831 0.496875 -0.252328
C7    C     C_R   0.292839 0.435915 0.584449 0.384194
C8    C     C_R   0.233184 0.451063 0.580333 0.065635
C9    C     C_R   0.208579 0.529115 0.481006 0.112319
C10   C     C_R   0.765628 0.445623 0.565474 -0.085093
C11   C     C_R   0.706428 0.434818 0.570989 -0.305292
C12   C     C_R   0.969246 0.376609 0.307864 -0.151463
C13   C     C_R   0.672066 0.518130 0.497150 -0.115048
C14   C     C_R   0.696289 0.615790 0.419792 0.476454
C15   C     C_R   0.756261 0.627957 0.418968 -0.216764
C16   C     C_R   0.498671 0.740046 0.500008 0.932751
C17   C     C_R   0.790394 0.541339 0.488624 0.265068
C18   C     C_R   0.492702 0.064018 0.624130 0.072255
C19   C     C_R   0.489274 0.128966 0.501789 -0.064711
C20   C     C_R   0.475842 0.065270 0.381709 -0.249817
C21   C     C_R   0.476434 0.935633 0.381532 -0.227270
C22   C     C_R   0.491018 0.871703 0.501121 -0.066777
C23   C     C_R   0.028977 0.374980 0.306420 -0.148632
C24   C     C_R   0.494685 0.936549 0.623351 0.065711
C25   C     C_3   0.537258 0.930827 0.736854 -0.004393
C26   C     C_3   0.534572 0.073308 0.738035 -0.492138
C27   C     C_R   0.450772 0.475660 0.072350 0.190677
C28   C     C_R   0.610482 0.502642 0.499439 0.953880
C29   C     C_R   0.547390 0.533693 0.071149 -0.145880
C30   C     C_R   0.547334 0.534305 0.927201 -0.126455
C31   C     C_R   0.450779 0.475774 0.929513 0.154695
C32   C     C_3   0.417273 0.357623 0.924890 -0.544278
C33   C     C_3   0.417475 0.357168 0.079019 0.280377
C34   C     C_R   0.059547 0.460472 0.385819 -0.020181
C35   C     C_R   0.879609 0.636468 0.551368 0.517818
C36   C     C_R   0.879305 0.463832 0.396145 0.511169
C37   C     C_R   0.939148 0.463751 0.388745 -0.019273
C38   C     C_R   0.969427 0.551936 0.466324 -0.016054
C39   C     C_R   0.939547 0.640231 0.547245 -0.023671
C40   C     C_3   0.677817 0.745137 0.231498 0.078286
C41   C     C_3   0.695826 0.882740 0.237630 -0.334668
C42   C     C_3   0.712981 0.931377 0.097434 -0.893974
C43   C     C_3   0.344966 0.280565 0.219908 0.121296
C44   C     C_3   0.325515 0.165961 0.138654 -0.387966
C45   C     C_R   0.029734 0.550315 0.464851 -0.018253
C46   C     C_3   0.306265 0.060622 0.233145 -0.914861
C47   C     C_3   0.224722 0.605162 0.157799 0.129796
C48   C     C_3   0.260511 0.687590 0.062759 -0.390220
C49   C     C_3   0.267098 0.628328 0.922221 -0.822592
C50   C     C_3   0.323136 0.233539 0.603376 0.101386
C51   C     C_3   0.336269 0.129844 0.706132 -0.317932
C52   C     C_3   0.337251 0.000877 0.638746 -0.937140
C53   C     C_R   0.060072 0.636994 0.544354 -0.033048
C54   C     C_R   0.029949 0.726384 0.622271 -0.149131
C55   C     C_R   0.970165 0.727983 0.623716 -0.149413
C56   C     C_R   0.119385 0.456970 0.390842 0.551817
H1    H     H_    0.946800 0.308441 0.246913 0.193865
H2    H     H_    0.051050 0.305595 0.244443 0.196681
H3    H     H_    0.585843 0.560246 0.872547 0.174928
H4    H     H_    0.374011 0.373051 0.881680 0.274387
H5    H     H_    0.442159 0.278661 0.879450 0.164048
H6    H     H_    0.443090 0.278352 0.123218 0.067205
H7    H     H_    0.052419 0.794177 0.683661 0.194303
H8    H     H_    0.948084 0.797007 0.686140 0.193048
H9    H     H_    0.328827 0.638983 0.329609 0.195968
H10   H     H_    0.792414 0.379293 0.619883 0.154952
H11   H     H_    0.640331 0.739151 0.162942 0.161953
H12   H     H_    0.687392 0.360006 0.630161 0.170440
H13   H     H_    0.712052 0.685481 0.184174 0.123594
H14   H     H_    0.659410 0.940383 0.277303 0.247180
H15   H     H_    0.732506 0.893579 0.307897 0.233724
H16   H     H_    0.749997 0.876469 0.056673 0.276103
H17   H     H_    0.725576 0.031316 0.105123 0.274241
H18   H     H_    0.676372 0.924321 0.026187 0.275582
H19   H     H_    0.308045 0.314779 0.281964 0.159875
H20   H     H_    0.379394 0.254716 0.292907 0.116547
H21   H     H_    0.289327 0.193545 0.071633 0.253032
H22   H     H_    0.361312 0.130420 0.073763 0.206557
H23   H     H_    0.776938 0.703484 0.364712 0.142515
H24   H     H_    0.342350 0.029995 0.298845 0.256964
H25   H     H_    0.292142 0.979201 0.171972 0.271911
H26   H     H_    0.269841 0.092727 0.298121 0.281164
H27   H     H_    0.181326 0.594078 0.113497 0.182500
H28   H     H_    0.244243 0.508987 0.162177 0.167278
H29   H     H_    0.239420 0.780985 0.052410 0.241648
H30   H     H_    0.303822 0.701361 0.106314 0.220590
H31   H     H_    0.288581 0.535176 0.929852 0.289121
H32   H     H_    0.293653 0.689664 0.856304 0.257070
H33   H     H_    0.224414 0.617105 0.874439 0.291911
H34   H     H_    0.468689 0.114383 0.287019 0.159706
H35   H     H_    0.359385 0.238544 0.529625 0.105330
H36   H     H_    0.283178 0.208113 0.548162 0.160699
H37   H     H_    0.378702 0.146885 0.752803 0.210713
H38   H     H_    0.303109 0.130851 0.787870 0.245239
H39   H     H_    0.294236 0.978554 0.597742 0.288031
H40   H     H_    0.349169 0.928291 0.714687 0.262377
H41   H     H_    0.369178 0.998372 0.554617 0.264873
H42   H     H_    0.469112 0.886568 0.286963 0.171584
H43   H     H_    0.518702 0.888197 0.830233 0.141243
H44   H     H_    0.514386 0.111825 0.831899 0.174408
H45   H     H_    0.575153 0.119672 0.706910 0.225670
H46   H     H_    0.586020 0.557810 0.124651 0.161360
I1    I     I_    0.620880 0.860319 0.680564 -0.356118
I2    I     I_    0.180739 0.351691 0.720847 -0.336567
N1    N     N_R   0.851172 0.548150 0.477884 -0.348780
N2    N     N_R   0.147880 0.539640 0.471494 -0.314582
N3    N     N_R   0.499610 0.499140 0.142800 -0.139657
N4    N     N_R   0.499610 0.499180 0.857150 -0.105871
O1    O     O_R   0.500010 0.316790 0.614690 -0.615984
O2    O     O_R   0.583850 0.500060 0.614640 -0.618996
O3    O     O_R   0.583840 0.500020 0.385300 -0.602854
O4    O     O_2   0.849911 0.718812 0.629371 -0.545017
O5    O     O_3   0.659689 0.704752 0.361853 -0.626986
O6    O     O_3   0.361817 0.379516 0.133133 -0.622099
O7    O     O_3   0.217991 0.664810 0.285871 -0.632833
O8    O     O_3   0.316974 0.349395 0.672237 -0.632793
O9    O     O_2   0.849279 0.380086 0.323076 -0.557702
O10   O     O_2   0.149016 0.370800 0.317623 -0.582633
O11   O     O_2   0.150174 0.710978 0.621806 -0.555465
O12   O     O_R   0.500000 0.316760 0.385350 -0.638556
O13   O     O_R   0.416160 0.499980 0.614700 -0.584897
O14   O     O_R   0.416150 0.499940 0.385360 -0.618932
O15   O     O_R   0.500000 0.683240 0.614650 -0.615001
O16   O     O_R   0.499990 0.683210 0.385310 -0.616765
Zn1   Zn    Zn3+2 0.500000 0.500020 0.653130 0.967897
Zn2   Zn    Zn3+2 0.500000 0.499980 0.346870 0.958765

loop_
_geom_bond_atom_site_label_1
_geom_bond_atom_site_label_2
_ccdc_geom_bond_type
C23   H2    S    
C34   C56   A    
C31   N4    A    
C49   H31   S    
C19   C20   A    
C18   C26   S    
C7    C8    A    
C53   C54   A    
C27   C33   S    
C47   O7    S    
C12   C23   A    
C33   O6    S    
C29   C30   A    
C3    C9    A    
C36   C37   A    
C16   O15   A    
C32   H5    S    
C33   H6    S    
C43   O6    S    
C38   C39   A    
O12   Zn2   S    
O15   Zn1   S    
C54   H7    S    
C10   C17   A    
C52   H41   S    
C52   H39   S    
C18   C19   A    
C41   C42   S    
C12   C37   A    
C38   C45   A    
C1    O1    A    
C46   H26   S    
C25   H43   S    
C39   C55   A    
C47   C48   S    
C8    C9    A    
C40   H11   S    
C4    O13   A    
C13   C28   S    
C47   H27   S    
N4    Zn1   S    
C50   O8    S    
C41   H15   S    
C45   C53   A    
C13   C14   A    
C55   H8    S    
C49   H32   S    
O1    Zn1   S    
C44   C46   S    
C10   H10   S    
C28   O3    A    
C43   H19   S    
C15   H23   S    
C42   H18   S    
C1    C19   S    
C40   H13   S    
C27   C31   A    
C51   C52   S    
C24   C25   S    
C4    C6    S    
C25   I1    S    
C48   H30   S    
C51   H38   S    
C28   O2    A    
C9    N2    S    
C20   H34   S    
C2    N2    A    
C1    O12   A    
C7    O8    S    
O14   Zn2   S    
C35   C39   A    
C43   C44   S    
O13   Zn1   S    
C37   C38   A    
C35   N1    A    
C17   N1    S    
C46   H25   S    
C40   O5    S    
C27   N3    A    
C23   C34   A    
C30   H3    S    
O3    Zn2   S    
C42   H16   S    
C50   C51   S    
C4    O14   A    
C34   C45   A    
C47   H28   S    
C36   O9    S    
C8    I2    S    
C56   N2    A    
C51   H37   S    
C12   H1    S    
C5    H9    S    
C40   C41   S    
C18   C24   A    
C32   H4    S    
C11   H12   S    
O16   Zn2   S    
C50   H36   S    
C43   H20   S    
C15   C17   A    
C54   C55   A    
C48   C49   S    
C42   H17   S    
C16   C22   S    
C30   N4    A    
C36   N1    A    
C14   C15   A    
C56   O10   S    
C31   C32   S    
N3    Zn2   S    
C49   H33   S    
C3    C5    A    
C2    C53   A    
C2    O11   S    
C6    C7    A    
C14   O5    S    
C44   H21   S    
C32   C33   S    
C44   H22   S    
C25   C26   S    
C26   H45   S    
C3    O7    S    
C46   H24   S    
C21   H42   S    
C11   C13   A    
C5    C6    A    
C29   H46   S    
C52   H40   S    
C22   C24   A    
C16   O16   A    
C10   C11   A    
O2    Zn1   S    
C50   H35   S    
C20   C21   A    
C48   H29   S    
C29   N3    A    
C21   C22   A    
C35   O4    S    
C26   H44   S    
C41   H14   S    
