data_mof_unit_55035.cif
_audit_creation_date              2012-12-10T18:04:02-0500
_audit_creation_method            fapswitch 2.2
_symmetry_space_group_name_H-M    P1
_symmetry_Int_Tables_number       1
_space_group_crystal_system       triclinic
_cell_length_a                    11.000377
_cell_length_b                    9.764594
_cell_length_c                    11.256772
_cell_angle_alpha                 89.687047
_cell_angle_beta                  96.297231
_cell_angle_gamma                 90.876976
_cell_volume                      1201.69222141

loop_
_atom_site_label
_atom_site_type_symbol
_atom_type_description
_atom_site_fract_x
_atom_site_fract_y
_atom_site_fract_z
_atom_type_partial_charge
C1    C     C_R   0.264157 0.498159 0.510568 0.842623
C2    C     C_R   0.737167 0.501851 0.492898 0.877713
C3    C     C_R   0.405863 0.071697 0.438294 0.011338
C4    C     C_R   0.592140 0.072754 0.567647 0.020067
C5    C     C_R   0.407711 0.924134 0.438171 -0.019559
C6    C     C_R   0.590672 0.924179 0.563705 0.031735
C7    C     C_R   0.498214 0.498894 0.262735 0.861586
C8    C     C_R   0.499248 0.499465 0.736749 0.822787
C9    C     C_R   0.509697 0.609091 0.061839 0.050458
C10   C     C_R   0.515115 0.611997 0.941030 0.049890
C11   C     C_R   0.496747 0.492480 0.129163 -0.097204
C12   C     C_R   0.497333 0.495491 0.869324 -0.113876
C13   C     C_R   0.480997 0.369624 0.060614 -0.100126
C14   C     C_R   0.475581 0.371931 0.932805 -0.086361
C15   C     C_3   0.533883 0.765148 0.941657 -0.253503
C16   C     C_3   0.520606 0.758398 0.078927 -0.254955
C17   C     C_R   0.059446 0.372896 0.514937 -0.095080
C18   C     C_R   0.934541 0.382427 0.472386 -0.075476
C19   C     C_R   0.872846 0.506297 0.485996 -0.149983
C20   C     C_R   0.130906 0.494964 0.525680 -0.187009
C21   C     C_R   0.944068 0.628157 0.510666 -0.073149
C22   C     C_R   0.071459 0.619450 0.539437 -0.089401
Cu1   Cu    Cu3+1 0.500000 0.640660 0.500000 1.023626
Cu2   Cu    Cu3+1 0.500000 0.359340 0.500000 1.087565
N1    N     N_R   0.500000 0.852070 0.500000 -0.241735
N2    N     N_R   0.500000 0.147940 0.500000 -0.229838
O1    O     O_R   0.319640 0.618740 0.499990 -0.606220
O2    O     O_R   0.680360 0.618740 0.500010 -0.588152
O3    O     O_R   0.319620 0.381170 0.499990 -0.533443
O4    O     O_R   0.680380 0.381170 0.500010 -0.553371
O5    O     O_R   0.499990 0.618810 0.319660 -0.599776
O6    O     O_R   0.500010 0.618810 0.680340 -0.591648
O7    O     O_R   0.499960 0.381240 0.319650 -0.533862
O8    O     O_R   0.500040 0.381240 0.680350 -0.532904
C23   C     C_2   0.465973 0.237048 0.118884 0.976551
O9    O     O_2   0.368526 0.175246 0.100256 -0.509710
O10   O     O_R   0.563386 0.183128 0.193522 -0.652129
H1    H     H_    0.537157 0.105805 0.245357 0.364451
C24   C     C_2   0.439421 0.243942 0.869236 0.934447
O11   O     O_2   0.517325 0.161569 0.850800 -0.520782
O12   O     O_R   0.315309 0.213229 0.841275 -0.698209
H2    H     H_    0.300032 0.116826 0.810153 0.351373
C25   C     C_2   0.662930 0.806988 0.920133 0.892929
O13   O     O_2   0.688335 0.927888 0.905748 -0.494522
O14   O     O_R   0.756029 0.709897 0.932341 -0.718549
H3    H     H_    0.839978 0.752125 0.926599 0.365195
C26   C     C_2   0.402725 0.811553 0.116213 0.891248
O15   O     O_2   0.400058 0.925587 0.158044 -0.596406
O16   O     O_R   0.294439 0.733650 0.094841 -0.698757
H4    H     H_    0.218531 0.789526 0.100953 0.371545
C27   C     C_2   0.434075 0.836637 0.860905 0.937493
O17   O     O_2   0.327003 0.826915 0.879133 -0.520577
O18   O     O_R   0.463983 0.910404 0.762167 -0.745641
H5    H     H_    0.390027 0.947143 0.711334 0.317410
C28   C     C_2   0.634921 0.797084 0.160357 0.909345
O19   O     O_2   0.702810 0.708147 0.204798 -0.516480
O20   O     O_R   0.670052 0.934308 0.171893 -0.703700
H6    H     H_    0.754191 0.946808 0.216564 0.359310
C29   C     C_2   0.097825 0.248049 0.586217 0.993281
O21   O     O_2   0.204743 0.217092 0.608088 -0.589001
O22   O     O_R   0.009534 0.169484 0.636358 -0.723289
H7    H     H_    0.046152 0.091706 0.687853 0.366130
C30   C     C_2   0.876420 0.271429 0.394099 0.886423
O23   O     O_2   0.793195 0.298032 0.316582 -0.527628
O24   O     O_R   0.922702 0.139370 0.401662 -0.751496
H8    H     H_    0.879897 0.075798 0.339480 0.344093
C31   C     C_2   0.892037 0.766229 0.489378 0.909737
O25   O     O_2   0.827685 0.790187 0.396904 -0.565399
O26   O     O_R   0.920948 0.871411 0.571113 -0.712677
H9    H     H_    0.882064 0.960183 0.542370 0.386291
C32   C     C_2   0.140120 0.731107 0.606941 0.942066
O27   O     O_2   0.190273 0.706147 0.706558 -0.543517
O28   O     O_R   0.149784 0.861786 0.557692 -0.701944
H10   H     H_    0.196216 0.928565 0.614939 0.333726
C33   C     C_2   0.297755 0.139083 0.371909 0.927633
O29   O     O_2   0.309872 0.240822 0.311611 -0.553947
O30   O     O_R   0.180537 0.083036 0.374341 -0.722546
H11   H     H_    0.118237 0.130597 0.315886 0.361949
C34   C     C_2   0.690891 0.139353 0.654343 0.941004
O31   O     O_2   0.682783 0.255668 0.688534 -0.521459
O32   O     O_R   0.791616 0.066190 0.705343 -0.746430
H12   H     H_    0.842244 0.117672 0.771968 0.385803
C35   C     C_1   0.308387 0.848438 0.373744 0.480627
N3    N     N_1   0.226302 0.789506 0.323718 -0.224707
C36   C     C_1   0.675747 0.842230 0.637354 0.484903
N4    N     N_1   0.743884 0.773689 0.695068 -0.228220

loop_
_geom_bond_atom_site_label_1
_geom_bond_atom_site_label_2
_ccdc_geom_bond_type
C28   O19   D    
C30   O24   S    
O28   H10   S    
C23   O9    D    
C25   O13   D    
O32   H12   S    
C26   O16   S    
O30   H11   S    
C7    C11   S    
C6    C36   S    
C19   C21   A    
C9    C16   S    
Cu2   N2    S    
C13   C23   S    
C10   C15   S    
C36   N4    T    
C5    C35   S    
C18   C30   S    
C6    N1    A    
C15   C16   S    
C17   C20   A    
C18   C19   A    
O12   H2    S    
Cu2   O3    S    
C14   C24   S    
C26   O15   D    
Cu1   Cu2   S    
Cu1   O1    S    
C3    C33   S    
C9    C10   A    
C9    C11   A    
C29   O21   D    
C21   C22   A    
C21   C31   S    
C7    O7    A    
O26   H9    S    
C16   C26   S    
C29   O22   S    
C7    O5    A    
C31   O25   D    
C8    O6    A    
C34   O31   D    
C4    C34   S    
C24   O12   S    
C24   O11   D    
C32   O28   S    
O18   H5    S    
Cu2   O8    S    
C27   O17   D    
C31   O26   S    
Cu1   O5    S    
C33   O29   D    
O10   H1    S    
C33   O30   S    
C35   N3    T    
C8    C12   S    
C1    O3    A    
C17   C18   A    
C8    O8    A    
Cu1   O2    S    
C25   O14   S    
C10   C12   A    
C17   C29   S    
C5    N1    A    
C4    C6    A    
C12   C14   A    
O16   H4    S    
C15   C27   S    
C28   O20   S    
C22   C32   S    
C34   O32   S    
C1    C20   S    
C23   O10   S    
C2    C19   S    
C3    N2    A    
C20   C22   A    
C3    C5    A    
C4    N2    A    
Cu2   O7    S    
C2    O4    A    
Cu1   O6    S    
C16   C28   S    
C15   C25   S    
C32   O27   D    
C11   C13   A    
O20   H6    S    
Cu1   N1    S    
O22   H7    S    
Cu2   O4    S    
C30   O23   D    
O14   H3    S    
O24   H8    S    
C1    O1    A    
C2    O2    A    
C27   O18   S    
C13   C14   A    
