data_mof_unit_27836.cif
_audit_creation_date              2012-12-10T18:11:02-0500
_audit_creation_method            fapswitch 2.2
_symmetry_space_group_name_H-M    P1
_symmetry_Int_Tables_number       1
_space_group_crystal_system       triclinic
_cell_length_a                    11.089146
_cell_length_b                    9.562692
_cell_length_c                    10.798889
_cell_angle_alpha                 88.520952
_cell_angle_beta                  90.662607
_cell_angle_gamma                 91.117773
_cell_volume                      1144.46728486

loop_
_atom_site_label
_atom_site_type_symbol
_atom_type_description
_atom_site_fract_x
_atom_site_fract_y
_atom_site_fract_z
_atom_type_partial_charge
C1    C     C_R   0.259591 0.499920 0.504861 0.823753
C2    C     C_3   0.503590 0.497097 0.118898 -0.089792
C3    C     C_3   0.076309 0.627359 0.583710 -0.516671
C4    C     C_3   0.068169 0.367763 0.569163 -0.514093
C5    C     C_3   0.935686 0.643067 0.569900 0.239396
C6    C     C_3   0.933031 0.383970 0.600727 0.264378
C7    C     C_3   0.062818 0.526252 0.370358 0.805326
C8    C     C_3   0.120419 0.503972 0.505281 -0.125154
C9    C     C_3   0.878928 0.503800 0.514991 -0.162483
C10   C     C_3   0.921692 0.487030 0.377614 0.785910
C11   C     C_3   0.611433 0.086447 0.446362 0.296127
C12   C     C_3   0.618385 0.921486 0.463081 0.371903
C13   C     C_3   0.495258 0.079870 0.630340 -0.429824
C14   C     C_3   0.480550 0.913665 0.628890 -0.452955
C15   C     C_3   0.391163 0.080215 0.439088 0.513705
C16   C     C_3   0.404874 0.916589 0.419662 0.428041
C17   C     C_R   0.501089 0.500478 0.258491 0.755121
C18   C     C_R   0.739434 0.500940 0.513803 0.872974
C19   C     C_R   0.502306 0.498258 0.739369 0.815305
C20   C     C_3   0.510984 0.628743 0.033058 -0.147381
C21   C     C_3   0.403017 0.432502 0.036293 -0.197350
C22   C     C_3   0.409332 0.564950 0.950624 -0.308680
C23   C     C_3   0.505160 0.494306 0.874313 -0.087826
C24   C     C_3   0.605576 0.555904 0.954883 0.331695
C25   C     C_3   0.499527 0.364652 0.959266 0.437385
C26   C     C_3   0.600069 0.424774 0.041392 -0.238956
Cu1   Cu    Cu3+1 0.499860 0.642410 0.500060 1.004933
Cu2   Cu    Cu3+1 0.499860 0.357590 0.500060 1.014901
H1    H     H_    0.330320 0.622080 0.912683 0.156661
H2    H     H_    0.691584 0.129821 0.494307 0.147625
H3    H     H_    0.685727 0.899096 0.537238 0.066811
H4    H     H_    0.578015 0.109120 0.683220 0.222608
H5    H     H_    0.546336 0.868820 0.696663 0.248415
H6    H     H_    0.312739 0.092095 0.502687 -0.016901
H7    H     H_    0.317965 0.865778 0.447311 0.035190
H8    H     H_    0.418340 0.123152 0.681055 0.243967
H9    H     H_    0.389280 0.881694 0.662343 0.186254
H10   H     H_    0.522395 0.739204 0.060492 0.222312
H11   H     H_    0.322826 0.363943 0.051548 0.160524
H12   H     H_    0.675520 0.356200 0.069331 0.177623
H13   H     H_    0.124605 0.725148 0.555016 0.232664
H14   H     H_    0.078015 0.277656 0.508070 0.229835
H15   H     H_    0.100510 0.608508 0.683001 0.145933
H16   H     H_    0.119192 0.343060 0.656120 0.164904
H17   H     H_    0.896793 0.654346 0.663910 0.124044
H18   H     H_    0.930073 0.420874 0.698354 0.091710
N1    N     N_3   0.500250 0.143650 0.502780 -0.239338
N2    N     N_3   0.500250 0.856350 0.502780 -0.238290
O1    O     O_R   0.317570 0.620260 0.500070 -0.612052
O2    O     O_R   0.317570 0.379740 0.500070 -0.582386
O3    O     O_R   0.499850 0.620240 0.316900 -0.521877
O4    O     O_R   0.499850 0.379760 0.316900 -0.478004
O5    O     O_R   0.682190 0.620260 0.500030 -0.512262
O6    O     O_R   0.682190 0.379740 0.500030 -0.536191
O7    O     O_R   0.499910 0.620280 0.683200 -0.589280
O8    O     O_R   0.499910 0.379720 0.683200 -0.591988
O9    O     O_3   0.855927 0.589749 0.308403 -0.569752
C27   C     C_3   0.776836 0.540071 0.218243 -0.216653
H19   H     H_    0.724038 0.448823 0.253504 0.195487
H20   H     H_    0.824382 0.519676 0.131592 0.153853
H21   H     H_    0.714691 0.624540 0.192712 0.245196
O10   O     O_3   0.891548 0.343233 0.348892 -0.576040
C28   C     C_3   0.925176 0.290954 0.232619 -0.222243
H22   H     H_    0.993018 0.208614 0.248057 0.186773
H23   H     H_    0.960415 0.369604 0.164860 0.154654
H24   H     H_    0.845768 0.239981 0.188775 0.207569
Cl1   Cl    Cl    0.629696 0.144204 0.287728 -0.457857
Cl2   Cl    Cl    0.682572 0.844006 0.330054 -0.438895
O11   O     O_3   0.366013 0.149519 0.324566 -0.477304
C29   C     C_3   0.240289 0.146143 0.299891 -0.326489
H25   H     H_    0.196131 0.220944 0.358428 0.220522
H26   H     H_    0.195483 0.044178 0.321272 0.106566
H27   H     H_    0.223520 0.173582 0.200859 0.192493
O12   O     O_3   0.435073 0.891405 0.294293 -0.470658
C30   C     C_3   0.334881 0.859808 0.218047 -0.190066
H28   H     H_    0.250804 0.840342 0.269033 0.133453
H29   H     H_    0.352003 0.764160 0.167122 0.147873
H30   H     H_    0.322644 0.945202 0.147912 0.203516
Cl3   Cl    Cl    0.739569 0.637731 0.895995 -0.736592
Cl4   Cl    Cl    0.492546 0.184437 0.922833 -0.648073
O13   O     O_3   0.908112 0.761166 0.493124 -0.462798
C31   C     C_3   0.924538 0.886938 0.557946 -0.200813
H31   H     H_    0.020982 0.911699 0.576493 0.131470
H32   H     H_    0.873861 0.884475 0.646146 0.135073
H33   H     H_    0.890244 0.974369 0.498901 0.215117
O14   O     O_3   0.871703 0.253420 0.587672 -0.530434
C32   C     C_3   0.839053 0.196380 0.704889 -0.328557
H34   H     H_    0.775709 0.265813 0.752235 0.189810
H35   H     H_    0.920340 0.176893 0.763703 0.166038
H36   H     H_    0.791433 0.095055 0.692378 0.157021
O15   O     O_3   0.079703 0.671357 0.331046 -0.591679
C33   C     C_3   0.044103 0.704038 0.205961 -0.148404
H37   H     H_    0.011560 0.612973 0.152974 0.165803
H38   H     H_    0.119835 0.748194 0.151580 0.085744
H39   H     H_    0.973618 0.784898 0.205720 0.241218
O16   O     O_3   0.118733 0.434499 0.290028 -0.683348
C34   C     C_3   0.222811 0.488688 0.233490 -0.391609
H40   H     H_    0.288874 0.406123 0.241942 0.230390
H41   H     H_    0.264256 0.581517 0.276503 0.203101
H42   H     H_    0.201925 0.513812 0.135067 0.171329

loop_
_geom_bond_atom_site_label_1
_geom_bond_atom_site_label_2
_ccdc_geom_bond_type
C19   O8    A    
Cu1   N2    S    
C7    C10   S    
C32   H34   S    
C28   H23   S    
Cu2   N1    S    
C22   H1    S    
C25   Cl4   S    
C13   H4    S    
C11   N1    S    
C15   N1    S    
C12   N2    S    
C17   O3    A    
C14   H5    S    
O13   C31   S    
Cu2   O8    S    
C7    C8    S    
C7    O16   S    
C12   Cl2   S    
C3    H15   S    
C16   O12   S    
C24   C26   S    
C16   H7    S    
Cu1   O7    S    
C27   H20   S    
C15   C16   S    
C1    C8    S    
C5    O13   S    
C18   O5    A    
Cu2   O2    S    
C20   C24   S    
C11   H2    S    
Cu1   O3    S    
C23   C24   S    
C29   H25   S    
C1    O2    A    
C15   H6    S    
C4    C8    S    
C27   H21   S    
C28   H24   S    
C21   C22   S    
C2    C17   S    
C16   N2    S    
C10   O10   S    
C6    C9    S    
C17   O4    A    
C34   H41   S    
C11   Cl1   S    
C34   H40   S    
C15   O11   S    
O12   C30   S    
C2    C20   S    
C10   O9    S    
C13   H8    S    
C4    C6    S    
C3    C8    S    
O15   C33   S    
C13   N1    S    
Cu2   O6    S    
O14   C32   S    
C14   N2    S    
C4    H16   S    
C27   H19   S    
C29   H27   S    
C5    H17   S    
C33   H39   S    
C19   C23   S    
C30   H28   S    
C5    C9    S    
O10   C28   S    
C20   H10   S    
C24   Cl3   S    
C21   H11   S    
C7    O15   S    
O16   C34   S    
C2    C21   S    
C33   H38   S    
C2    C26   S    
C30   H29   S    
C20   C22   S    
C31   H32   S    
C32   H35   S    
C12   H3    S    
C34   H42   S    
C9    C10   S    
C19   O7    A    
C21   C25   S    
C3    H13   S    
C6    H18   S    
C3    C5    S    
C11   C12   S    
Cu1   O5    S    
C31   H33   S    
C6    O14   S    
C25   C26   S    
C14   H9    S    
Cu2   O4    S    
C26   H12   S    
O9    C27   S    
C4    H14   S    
C33   H37   S    
C23   C25   S    
O11   C29   S    
C30   H30   S    
C18   O6    A    
C28   H22   S    
C9    C18   S    
C31   H31   S    
C32   H36   S    
Cu1   Cu2   S    
C22   C23   S    
C29   H26   S    
C13   C14   S    
C1    O1    A    
Cu1   O1    S    
