data_mof_unit_48115.cif
_audit_creation_date              2012-12-10T16:52:09-0500
_audit_creation_method            fapswitch 2.2
_symmetry_space_group_name_H-M    P1
_symmetry_Int_Tables_number       1
_space_group_crystal_system       triclinic
_cell_length_a                    7.735899
_cell_length_b                    8.635345
_cell_length_c                    14.880086
_cell_angle_alpha                 90.547847
_cell_angle_beta                  86.462637
_cell_angle_gamma                 93.659321
_cell_volume                      990.089455526

loop_
_atom_site_label
_atom_site_type_symbol
_atom_type_description
_atom_site_fract_x
_atom_site_fract_y
_atom_site_fract_z
_atom_type_partial_charge
C1    C     C_R   0.545748 0.794801 0.495609 1.011365
C2    C     C_R   0.536715 0.649045 0.811184 0.058272
C3    C     C_R   0.488513 0.504120 0.231767 -0.232450
C4    C     C_R   0.510659 0.506202 0.768120 -0.226035
C5    C     C_R   0.571315 0.631000 0.185176 0.388879
C6    C     C_R   0.483889 0.368917 0.815853 0.410450
C7    C     C_R   0.546644 0.646965 0.093374 -0.058391
C8    C     C_R   0.436681 0.376465 0.907357 -0.064892
C9    C     C_R   0.472558 0.516737 0.047463 -0.028456
C10   C     C_R   0.478083 0.516232 0.953493 -0.033631
C11   C     C_R   0.400295 0.383723 0.094807 0.060570
C12   C     C_R   0.454090 0.205110 0.502169 1.001619
C13   C     C_R   0.534916 0.652234 0.905299 0.059928
C14   C     C_R   0.597608 0.784780 0.045044 0.192809
C15   C     C_R   0.356700 0.248055 0.954045 0.191239
C16   C     C_3   0.851696 0.694778 0.215108 0.122934
C17   C     C_3   0.966931 0.790224 0.276941 -0.706140
C18   C     C_3   0.720857 0.224084 0.801513 0.150033
C19   C     C_3   0.844098 0.225682 0.717361 -0.738184
C20   C     C_R   0.587712 0.786267 0.952156 -0.170206
C21   C     C_R   0.334368 0.254487 0.047022 -0.169334
C22   C     C_2   0.569753 0.958140 0.492745 -0.317775
C23   C     C_2   0.429887 0.041776 0.502181 -0.302351
C24   C     C_R   0.503100 0.498603 0.672880 1.009138
C25   C     C_R   0.496809 0.500345 0.327078 1.005402
C26   C     C_R   0.398145 0.382489 0.188542 0.056330
H1    H     H_    0.627249 0.892488 0.917107 0.190743
H2    H     H_    0.956123 0.915865 0.265048 0.280948
H3    H     H_    0.927020 0.763749 0.348372 0.255550
H4    H     H_    0.729624 0.113618 0.837462 0.190482
H5    H     H_    0.770614 0.316332 0.848369 0.119828
H6    H     H_    0.876053 0.346647 0.694773 0.244279
H7    H     H_    0.967072 0.174799 0.732856 0.232606
H8    H     H_    0.785246 0.157826 0.662012 0.278106
H9    H     H_    0.270870 0.154354 0.080729 0.208987
H10   H     H_    0.701921 0.009139 0.484303 0.176188
H11   H     H_    0.297723 0.990759 0.510525 0.181215
H12   H     H_    0.014259 0.383952 0.432466 0.215490
H13   H     H_    0.985697 0.616070 0.567513 0.205026
H14   H     H_    0.898693 0.719329 0.144163 0.161170
H15   H     H_    0.866160 0.569693 0.228807 0.153692
H16   H     H_    0.104268 0.761976 0.263501 0.215483
I1    I     I_    0.276136 0.191552 0.266045 -0.389002
I2    I     I_    0.593278 0.849677 0.730244 -0.356023
I3    I     I_    0.677274 0.003366 0.102372 -0.335602
I4    I     I_    0.239303 0.051062 0.889515 -0.333557
N1    N     N_2   0.950330 0.457950 0.475660 -0.185938
N2    N     N_2   0.049670 0.542050 0.524340 -0.182841
O1    O     O_R   0.389250 0.738570 0.505970 -0.612959
O2    O     O_3   0.545995 0.235014 0.777948 -0.587631
O3    O     O_R   0.610750 0.261430 0.494030 -0.619814
O4    O     O_R   0.678390 0.711620 0.490370 -0.634275
O5    O     O_R   0.321610 0.288380 0.509630 -0.624031
O6    O     O_R   0.355420 0.513510 0.639950 -0.611260
O7    O     O_R   0.644580 0.486490 0.360050 -0.611954
O8    O     O_R   0.644560 0.486560 0.624350 -0.627470
O9    O     O_R   0.355440 0.513440 0.375650 -0.624733
O10   O     O_3   0.677831 0.735575 0.230746 -0.586286
Zn1   Zn    Zn3+2 0.306940 0.517990 0.510420 0.978410
Zn2   Zn    Zn3+2 0.693060 0.482010 0.489580 0.964051

loop_
_geom_bond_atom_site_label_1
_geom_bond_atom_site_label_2
_ccdc_geom_bond_type
C2    C4    A    
C10   C13   A    
C14   I3    S    
C21   H9    S    
C20   H1    S    
C24   O8    A    
C17   H3    S    
C9    C10   A    
N1    N2    D    
C13   C20   A    
C15   C21   A    
C17   H2    S    
O5    Zn1   S    
C1    C22   S    
C16   O10   S    
O7    Zn2   S    
C6    O2    S    
C9    C11   A    
C12   C23   S    
H12   N1    S    
C25   O9    A    
C5    O10   S    
C16   H14   S    
C18   H4    S    
C19   H6    S    
C8    C10   A    
C18   H5    S    
C25   O7    A    
C26   I1    S    
C8    C15   A    
C5    C7    A    
O6    Zn1   S    
C3    C26   A    
C17   H16   S    
C4    C24   S    
C1    O4    A    
O9    Zn1   S    
O8    Zn2   S    
C24   O6    A    
C14   C20   A    
C3    C25   S    
C12   O3    A    
C22   H10   S    
C18   O2    S    
N2    Zn1   S    
C4    C6    A    
C18   C19   S    
C19   H7    S    
C7    C9    A    
C2    C13   A    
C22   C23   D    
C16   C17   S    
C6    C8    A    
O3    Zn2   S    
O4    Zn2   S    
C11   C26   A    
N1    Zn2   S    
C23   H11   S    
C15   I4    S    
C1    O1    A    
C16   H15   S    
C11   C21   A    
C7    C14   A    
C12   O5    A    
C2    I2    S    
H13   N2    S    
C3    C5    A    
C19   H8    S    
O1    Zn1   S    
