data_mof_unit_52623.cif
_audit_creation_date              2013-03-05T15:41:03-0500
_audit_creation_method            fapswitch 2.2
_symmetry_space_group_name_H-M    P1
_symmetry_Int_Tables_number       1
_space_group_crystal_system       triclinic
_cell_length_a                    28.163672
_cell_length_b                    18.429145
_cell_length_c                    16.890971
_cell_angle_alpha                 89.96096
_cell_angle_beta                  61.164841
_cell_angle_gamma                 90.435365
_cell_volume                      7679.63720839

loop_
_atom_site_label
_atom_site_type_symbol
_atom_site_description
_atom_site_fract_x
_atom_site_fract_y
_atom_site_fract_z
_atom_type_partial_charge
O1    O     O_R   0.746490 0.236330 0.638080 -0.644704
O2    O     O_R   0.253510 0.763670 0.361920 -0.634043
O3    O     O_R   0.253510 0.236330 0.361920 -0.637070
O4    O     O_R   0.746490 0.763670 0.638080 -0.633294
O5    O     O_R   0.246490 0.736330 0.638080 -0.636575
O6    O     O_R   0.753510 0.263670 0.361920 -0.633385
O7    O     O_R   0.753510 0.736330 0.361920 -0.633474
O8    O     O_R   0.246490 0.263670 0.638080 -0.633803
O9    O     O_R   0.674170 0.186160 0.516270 -0.652482
O10   O     O_R   0.325830 0.813840 0.483730 -0.634295
O11   O     O_R   0.325830 0.186160 0.483730 -0.638221
O12   O     O_R   0.674170 0.813840 0.516270 -0.637447
O13   O     O_R   0.174170 0.686160 0.516270 -0.630454
O14   O     O_R   0.825830 0.313840 0.483730 -0.631818
O15   O     O_R   0.825830 0.686160 0.483730 -0.632603
O16   O     O_R   0.174170 0.313840 0.516270 -0.634245
O17   O     O_R   0.739960 0.127620 0.525000 -0.563835
O18   O     O_R   0.260040 0.872380 0.475000 -0.561793
O19   O     O_R   0.260040 0.127620 0.475000 -0.569812
O20   O     O_R   0.739960 0.872380 0.525000 -0.565143
O21   O     O_R   0.239960 0.627620 0.525000 -0.563543
O22   O     O_R   0.760040 0.372380 0.475000 -0.554557
O23   O     O_R   0.760040 0.627620 0.475000 -0.570072
O24   O     O_R   0.239960 0.372380 0.525000 -0.569495
O25   O     O_R   0.680700 0.294870 0.629350 -0.615415
O26   O     O_R   0.319300 0.705130 0.370650 -0.615867
O27   O     O_R   0.319300 0.294870 0.370650 -0.626953
O28   O     O_R   0.680700 0.705130 0.629350 -0.619640
O29   O     O_R   0.180700 0.794870 0.629350 -0.615944
O30   O     O_R   0.819300 0.205130 0.370650 -0.620896
O31   O     O_R   0.819300 0.794870 0.370650 -0.617805
O32   O     O_R   0.180700 0.205130 0.629350 -0.623096
C1    C     C_R   0.700819 0.265854 0.676993 0.895569
C2    C     C_R   0.299579 0.734733 0.322890 0.888290
C3    C     C_R   0.300163 0.263827 0.322472 0.899923
C4    C     C_R   0.699391 0.737365 0.677309 0.884514
C5    C     C_R   0.200302 0.764627 0.677143 0.888875
C6    C     C_R   0.793423 0.222196 0.327346 0.905232
C7    C     C_R   0.799760 0.764564 0.322757 0.899882
C8    C     C_R   0.200217 0.235836 0.677466 0.903645
C9    C     C_R   0.690328 0.129754 0.538861 0.891622
C10   C     C_R   0.309806 0.869899 0.461165 0.908912
C11   C     C_R   0.305110 0.127343 0.476509 0.926470
C12   C     C_R   0.691135 0.870542 0.536283 0.905791
C13   C     C_R   0.190155 0.630211 0.539531 0.907010
C14   C     C_R   0.809905 0.369712 0.460199 0.931730
C15   C     C_R   0.804318 0.627031 0.478921 0.928446
C16   C     C_R   0.195793 0.372956 0.520749 0.928880
Zn1   Zn    Zn3+2 0.792340 0.208750 0.507670 1.017458
Zn2   Zn    Zn3+2 0.207660 0.791250 0.492330 1.024895
Zn3   Zn    Zn3+2 0.207660 0.208750 0.492330 1.008399
Zn4   Zn    Zn3+2 0.792340 0.791250 0.507670 1.018295
Zn5   Zn    Zn3+2 0.292340 0.708750 0.507670 1.021219
Zn6   Zn    Zn3+2 0.707660 0.291250 0.492330 1.019756
Zn7   Zn    Zn3+2 0.707660 0.708750 0.492330 1.017515
Zn8   Zn    Zn3+2 0.292340 0.291250 0.507670 1.006775
H1    H     H_    0.102273 0.294452 0.339929 0.154469
H2    H     H_    0.898104 0.705400 0.658946 0.155570
H3    H     H_    0.021041 0.286725 0.326768 0.154170
H4    H     H_    0.979244 0.713062 0.672347 0.155774
H5    H     H_    0.548409 0.753072 0.489299 0.148193
H6    H     H_    0.410051 0.224942 0.622209 0.148689
H7    H     H_    0.486720 0.756185 0.426588 0.150077
H8    H     H_    0.491573 0.232790 0.636037 0.148533
C17   C     C_R   0.520850 0.125077 0.582222 0.056599
C18   C     C_R   0.469631 0.871463 0.449920 0.058028
C19   C     C_R   0.426933 0.118320 0.560793 0.059051
C20   C     C_R   0.545188 0.868657 0.515078 0.051552
C21   C     C_R   0.016445 0.615833 0.594292 0.060818
C22   C     C_R   0.983885 0.384003 0.404720 0.060502
C23   C     C_R   0.920952 0.607936 0.576990 0.062203
C24   C     C_R   0.079521 0.391988 0.421766 0.062339
C25   C     C_R   0.484607 0.183769 0.607731 -0.204406
C26   C     C_R   0.495804 0.806532 0.449723 -0.193157
C27   C     C_R   0.437685 0.179568 0.599436 -0.194769
C28   C     C_R   0.531031 0.804524 0.486123 -0.190802
C29   C     C_R   0.975428 0.668153 0.634481 -0.197066
C30   C     C_R   0.024906 0.331680 0.364525 -0.199551
C31   C     C_R   0.928330 0.663715 0.626969 -0.192979
C32   C     C_R   0.072070 0.336166 0.371891 -0.194048
C33   C     C_R   0.463674 0.060726 0.531127 0.023766
C34   C     C_R   0.523006 0.934652 0.508585 0.024984
C35   C     C_R   0.509023 0.062641 0.546139 0.029112
C36   C     C_R   0.481976 0.935017 0.483268 0.028643
C37   C     C_R   0.961549 0.555296 0.535591 0.025559
C38   C     C_R   0.038921 0.444648 0.463132 0.025125
C39   C     C_R   0.008711 0.558372 0.545800 0.028194
C40   C     C_R   0.991718 0.441545 0.452997 0.028731
C41   C     C_R   0.953322 0.497242 0.488721 -0.037002
C42   C     C_R   0.047131 0.502700 0.510025 -0.036987
C43   C     C_R   0.451852 0.998062 0.495346 -0.038673
C44   C     C_R   0.538678 0.999261 0.534817 -0.039717
C45   C     C_R   0.895955 0.435330 0.436259 -0.017559
C46   C     C_R   0.104308 0.564529 0.562901 -0.016602
C47   C     C_R   0.130312 0.446288 0.491273 -0.033385
C48   C     C_R   0.870141 0.553680 0.507571 -0.032511
C49   C     C_R   0.394732 0.934167 0.443800 -0.018970
C50   C     C_R   0.602439 0.065134 0.569385 -0.022943
C51   C     C_R   0.606772 0.933092 0.555159 -0.024210
C52   C     C_R   0.372793 0.057212 0.502229 -0.035349
C53   C     C_R   0.845589 0.434266 0.434740 -0.209806
C54   C     C_R   0.154560 0.565622 0.564701 -0.207373
C55   C     C_R   0.168647 0.440790 0.523959 -0.244644
C56   C     C_R   0.831627 0.559181 0.475291 -0.244232
C57   C     C_R   0.345774 0.934073 0.437290 -0.207883
C58   C     C_R   0.654060 0.065129 0.567146 -0.214875
C59   C     C_R   0.655920 0.934381 0.560960 -0.240951
C60   C     C_R   0.333412 0.060344 0.471774 -0.241502
C61   C     C_R   0.821901 0.499306 0.434126 0.237782
C62   C     C_R   0.178246 0.500636 0.565352 0.245906
C63   C     C_R   0.323322 0.999333 0.432882 0.243412
C64   C     C_R   0.675742 0.999757 0.575965 0.246218
C65   C     C_R   0.906978 0.495681 0.476560 0.039084
C66   C     C_R   0.093434 0.504256 0.522282 0.038227
C67   C     C_R   0.407346 0.997029 0.478248 0.036925
C68   C     C_R   0.583123 0.999388 0.552066 0.031883
C69   C     C_R   0.127174 0.396972 0.429578 -0.023750
C70   C     C_R   0.873328 0.602931 0.569197 -0.024213
C71   C     C_R   0.935918 0.380714 0.396529 -0.031480
C72   C     C_R   0.064295 0.619036 0.602759 -0.026859
C73   C     C_R   0.578902 0.868190 0.554777 -0.011494
C74   C     C_R   0.378212 0.110899 0.557503 -0.018120
C75   C     C_R   0.430107 0.873737 0.420999 -0.023701
C76   C     C_R   0.567081 0.125986 0.595413 -0.027112
C77   C     C_R   0.707145 0.241013 0.966206 0.024591
C78   C     C_R   0.276804 0.727259 0.049483 0.019357
C79   C     C_R   0.290279 0.248636 0.035110 0.024510
C80   C     C_R   0.721358 0.733637 0.951488 0.020300
C81   C     C_R   0.221551 0.766087 0.952768 0.020271
C82   C     C_R   0.767405 0.208819 0.056261 0.023556
C83   C     C_R   0.775930 0.772425 0.049555 0.020316
C84   C     C_R   0.228926 0.220978 0.945714 0.023778
C85   C     C_R   0.757130 0.204399 0.920574 0.044369
C86   C     C_R   0.244843 0.790575 0.073972 0.042198
C87   C     C_R   0.247731 0.197337 0.071795 0.044625
C88   C     C_R   0.753179 0.797904 0.927933 0.039244
C89   C     C_R   0.254064 0.703214 0.927509 0.041059
C90   C     C_R   0.713362 0.233939 0.106037 0.048448
C91   C     C_R   0.743986 0.708319 0.073086 0.041747
C92   C     C_R   0.270461 0.273779 0.910691 0.045546
C93   C     C_R   0.789755 0.195421 0.962828 0.050050
C94   C     C_R   0.217197 0.809914 0.025329 0.058464
C95   C     C_R   0.220208 0.179279 0.022571 0.056514
C96   C     C_R   0.779953 0.817964 0.978274 0.051974
C97   C     C_R   0.280730 0.682685 0.977715 0.053014
C98   C     C_R   0.684801 0.255750 0.059468 0.051851
C99   C     C_R   0.717903 0.687801 0.022056 0.052204
C100  C     C_R   0.304602 0.281835 0.950545 0.054720
C101  C     C_R   0.632774 0.306173 0.959749 0.072516
C102  C     C_R   0.339699 0.648127 0.070602 0.063422
C103  C     C_R   0.365343 0.311581 0.041128 0.066858
C104  C     C_R   0.659191 0.652738 0.929183 0.065152
C105  C     C_R   0.157594 0.844933 0.933539 0.071488
C106  C     C_R   0.852992 0.171507 0.051254 0.073577
C107  C     C_R   0.839089 0.851852 0.071267 0.061628
C108  C     C_R   0.159006 0.150872 0.932130 0.069236
C109  C     C_R   0.611388 0.337546 0.905639 -0.137725
C110  C     C_R   0.373524 0.637194 0.110768 -0.147356
C111  C     C_R   0.389002 0.337941 0.093980 -0.129245
C112  C     C_R   0.625013 0.641204 0.889952 -0.146671
C113  C     C_R   0.124630 0.858056 0.891970 -0.143895
C114  C     C_R   0.881700 0.152565 0.099201 -0.140034
C115  C     C_R   0.873321 0.862328 0.110807 -0.141028
C116  C     C_R   0.124851 0.141558 0.892081 -0.126672
C117  C     C_R   0.632207 0.317923 0.816289 -0.279494
C118  C     C_R   0.363594 0.672938 0.188618 -0.274176
C119  C     C_R   0.369885 0.315168 0.182107 -0.298310
C120  C     C_R   0.633671 0.678517 0.813548 -0.277148
C121  C     C_R   0.135399 0.823705 0.812933 -0.273130
C122  C     C_R   0.861655 0.172342 0.187742 -0.281199
C123  C     C_R   0.863993 0.825411 0.187625 -0.286553
C124  C     C_R   0.134620 0.178887 0.815182 -0.300365
H9    H     H_    0.615986 0.342486 0.776107 0.201357
H10   H     H_    0.386171 0.659049 0.223384 0.202485
H11   H     H_    0.387438 0.337717 0.221571 0.193752
H12   H     H_    0.610713 0.664425 0.779336 0.200890
H13   H     H_    0.113399 0.838853 0.777606 0.202200
H14   H     H_    0.885655 0.162950 0.221236 0.201828
H15   H     H_    0.887266 0.838611 0.221573 0.195647
H16   H     H_    0.110698 0.167073 0.781988 0.191542
C125  C     C_R   0.675865 0.271826 0.775610 -0.109689
C126  C     C_R   0.322526 0.722490 0.225716 -0.113054
C127  C     C_R   0.325717 0.269247 0.223001 -0.104276
C128  C     C_R   0.675139 0.728347 0.775554 -0.107095
C129  C     C_R   0.176965 0.774764 0.774865 -0.109888
C130  C     C_R   0.810182 0.199742 0.235393 -0.110248
C131  C     C_R   0.822299 0.776149 0.225491 -0.120240
C132  C     C_R   0.177940 0.225689 0.775429 -0.109824
C133  C     C_R   0.699276 0.241343 0.827099 0.058597
C134  C     C_R   0.298135 0.747966 0.173847 0.062416
C135  C     C_R   0.302186 0.239621 0.170752 0.081978
C136  C     C_R   0.699769 0.754663 0.827333 0.080930
C137  C     C_R   0.201307 0.747922 0.826625 0.060547
C138  C     C_R   0.776042 0.205507 0.194440 0.062541
C139  C     C_R   0.796850 0.751123 0.174455 0.067072
C140  C     C_R   0.205780 0.247781 0.824419 0.087918
C141  C     C_R   0.679634 0.262847 0.917741 0.076580
C142  C     C_R   0.305035 0.708121 0.097552 0.080961
C143  C     C_R   0.319268 0.266526 0.082429 0.078943
C144  C     C_R   0.693035 0.714355 0.903423 0.089251
C145  C     C_R   0.193238 0.785827 0.904749 0.078900
C146  C     C_R   0.798939 0.195849 0.100460 0.077088
C147  C     C_R   0.804116 0.791397 0.097987 0.080615
C148  C     C_R   0.197308 0.207514 0.901672 0.081684
C149  C     C_R   0.609069 0.315454 0.054186 -0.191685
C150  C     C_R   0.338656 0.600804 0.006113 -0.180236
C151  C     C_R   0.385942 0.327959 0.948214 -0.181150
C152  C     C_R   0.661622 0.603981 0.991103 -0.179842
C153  C     C_R   0.157077 0.889552 0.001244 -0.190930
C154  C     C_R   0.875977 0.166601 0.956554 -0.183307
C155  C     C_R   0.838061 0.900062 0.007513 -0.184098
C156  C     C_R   0.157400 0.104184 0.999557 -0.187908
C157  C     C_R   0.634583 0.291534 0.102562 -0.214060
C158  C     C_R   0.310201 0.617749 0.960539 -0.206285
C159  C     C_R   0.354701 0.317737 0.905853 -0.228317
C160  C     C_R   0.689972 0.621151 0.036705 -0.206964
C161  C     C_R   0.185855 0.872950 0.045652 -0.209592
C162  C     C_R   0.844807 0.176465 0.913699 -0.224467
C163  C     C_R   0.809470 0.883484 0.961937 -0.209484
C164  C     C_R   0.185823 0.118835 0.045243 -0.219113
C165  C     C_R   0.741178 0.189412 0.792574 -0.140567
C166  C     C_R   0.267483 0.811392 0.195492 -0.152467
C167  C     C_R   0.262202 0.184593 0.202880 -0.148992
C168  C     C_R   0.731917 0.817693 0.804283 -0.155700
C169  C     C_R   0.233363 0.685407 0.803053 -0.149624
C170  C     C_R   0.719753 0.218474 0.243856 -0.170281
C171  C     C_R   0.764486 0.688257 0.197260 -0.155583
C172  C     C_R   0.243513 0.305606 0.797012 -0.147430
C173  C     C_R   0.771491 0.174861 0.835610 -0.223842
C174  C     C_R   0.241594 0.832311 0.146936 -0.202091
C175  C     C_R   0.235102 0.164782 0.155490 -0.216770
C176  C     C_R   0.757713 0.839082 0.853508 -0.205278
C177  C     C_R   0.258956 0.663489 0.852150 -0.202134
C178  C     C_R   0.689638 0.234715 0.200778 -0.209734
C179  C     C_R   0.738700 0.667385 0.148074 -0.202743
C180  C     C_R   0.275873 0.317402 0.837940 -0.221427
H17   H     H_    0.569664 0.339193 0.093618 0.174354
H18   H     H_    0.358104 0.548540 0.991961 0.175737
H19   H     H_    0.426591 0.347677 0.905307 0.177746
H20   H     H_    0.643362 0.550530 0.003063 0.174782
H21   H     H_    0.136125 0.939765 0.020057 0.161351
H22   H     H_    0.918722 0.157470 0.913421 0.172943
H23   H     H_    0.857772 0.952623 0.993852 0.175308
H24   H     H_    0.135573 0.054105 0.017639 0.163832
H25   H     H_    0.614626 0.303927 0.173713 0.142412
H26   H     H_    0.311586 0.577883 0.912911 0.141529
H27   H     H_    0.371818 0.334657 0.836032 0.140551
H28   H     H_    0.689983 0.579959 0.081945 0.145564
H29   H     H_    0.182385 0.911616 0.095792 0.134835
H30   H     H_    0.865274 0.172197 0.840870 0.146812
H31   H     H_    0.810944 0.923983 0.914807 0.142829
H32   H     H_    0.181876 0.079635 0.095575 0.136755
H33   H     H_    0.751164 0.157702 0.733118 0.205124
H34   H     H_    0.264745 0.847267 0.248171 0.197209
H35   H     H_    0.251974 0.154098 0.263622 0.195255
H36   H     H_    0.736164 0.852441 0.749532 0.190194
H37   H     H_    0.237534 0.650943 0.748314 0.197926
H38   H     H_    0.697231 0.214282 0.316536 0.177966
H39   H     H_    0.760169 0.652745 0.251409 0.194466
H40   H     H_    0.248112 0.343067 0.744465 0.189916
H41   H     H_    0.804627 0.137195 0.803376 0.147280
H42   H     H_    0.219027 0.881773 0.169503 0.146497
H43   H     H_    0.203157 0.124935 0.187786 0.143922
H44   H     H_    0.781873 0.887868 0.830001 0.148588
H45   H     H_    0.283221 0.615435 0.827851 0.147668
H46   H     H_    0.647078 0.245045 0.243684 0.142255
H47   H     H_    0.713839 0.619189 0.172206 0.150268
H48   H     H_    0.304050 0.362621 0.813365 0.145423
O33   O     O_R   0.062020 0.072840 0.007170 -0.641507
O34   O     O_R   0.937980 0.927160 0.992830 -0.624082
O35   O     O_R   0.937980 0.072840 0.992830 -0.645713
O36   O     O_R   0.062020 0.927160 0.007170 -0.637126
O37   O     O_R   0.562020 0.572840 0.007170 -0.622610
O38   O     O_R   0.437980 0.427160 0.992830 -0.648922
O39   O     O_R   0.437980 0.572840 0.992830 -0.623813
O40   O     O_R   0.562020 0.427160 0.007170 -0.645550
O41   O     O_R   0.947860 0.073950 0.109290 -0.609889
O42   O     O_R   0.052140 0.926050 0.890710 -0.610680
O43   O     O_R   0.052140 0.073950 0.890710 -0.624985
O44   O     O_R   0.947860 0.926050 0.109290 -0.611626
O45   O     O_R   0.447860 0.573950 0.109290 -0.609661
O46   O     O_R   0.552140 0.426050 0.890710 -0.621738
O47   O     O_R   0.552140 0.573950 0.890710 -0.608598
O48   O     O_R   0.447860 0.426050 0.109290 -0.626436
C181  C     C_R   0.078532 0.093442 0.929786 0.910616
C182  C     C_R   0.920067 0.909479 0.071754 0.946396
C183  C     C_R   0.927011 0.102001 0.064209 0.906473
C184  C     C_R   0.078737 0.906821 0.929590 0.924130
C185  C     C_R   0.579239 0.592157 0.928755 0.948462
C186  C     C_R   0.428175 0.397118 0.063480 0.899418
C187  C     C_R   0.420222 0.590614 0.071632 0.949216
C188  C     C_R   0.571951 0.396895 0.936495 0.890220
Zn9   Zn    Zn3+2 0.505960 0.500000 0.080520 0.943198
Zn10  Zn    Zn3+2 0.494040 0.500000 0.919480 0.943906
Zn11  Zn    Zn3+2 0.005960 0.000000 0.080520 0.948477
Zn12  Zn    Zn3+2 0.994040 0.000000 0.919480 0.943491
N1    N     N_R   0.789430 0.503438 0.389552 0.220163
O49   O     O_R   0.736735 0.502526 0.436433 -0.366185
O50   O     O_R   0.812236 0.492279 0.302925 -0.400559
N2    N     N_R   0.210563 0.496558 0.610222 0.216844
O51   O     O_R   0.263267 0.497390 0.563528 -0.373317
O52   O     O_R   0.187679 0.508352 0.696730 -0.423424
N3    N     N_R   0.291355 0.002563 0.387351 0.213507
O53   O     O_R   0.238637 0.002535 0.433444 -0.373457
O54   O     O_R   0.314517 0.989538 0.301090 -0.423953
N4    N     N_R   0.714501 0.999819 0.608536 0.216584
O55   O     O_R   0.766375 0.999193 0.552586 -0.371152
O56   O     O_R   0.697774 0.010782 0.693971 -0.426098
C189  C     C_1   0.176698 0.369451 0.356277 0.184027
N5    N     N_1   0.216086 0.349402 0.295308 -0.203723
C190  C     C_1   0.823792 0.630059 0.642632 0.185385
N6    N     N_1   0.784326 0.649738 0.703628 -0.200714
C191  C     C_1   0.931344 0.327423 0.337300 0.195529
N7    N     N_1   0.928008 0.285088 0.289607 -0.198713
C192  C     C_1   0.068640 0.672034 0.662498 0.188119
N8    N     N_1   0.071755 0.714136 0.710623 -0.207018
C193  C     C_1   0.570429 0.809914 0.618394 0.209435
N9    N     N_1   0.563446 0.763587 0.669283 -0.206304
C194  C     C_1   0.329797 0.135645 0.635117 0.195990
N10   N     N_1   0.291240 0.153138 0.699307 -0.202013
C195  C     C_1   0.431125 0.819181 0.358297 0.198008
N11   N     N_1   0.432262 0.775798 0.307912 -0.203732
C196  C     C_1   0.571014 0.181441 0.652953 0.196943
N12   N     N_1   0.573464 0.225482 0.699672 -0.210184

loop_
_geom_bond_atom_site_label_1
_geom_bond_atom_site_label_2
_geom_bond_distance
_ccdc_geom_bond_type
C140  C172  1.409564 A    
C159  H27   1.081344 S    
O5    C5    1.257903 A    
C59   C64   1.397910 A    
O7    Zn7   2.005678 S    
O31   Zn4   2.059461 S    
O8    Zn8   2.005678 S    
O4    C4    1.255223 A    
N3    O54   1.300824 A    
C134  C142  1.414075 A    
C116  C181  1.440101 S    
C122  H14   1.085102 S    
C77   C98   1.413604 A    
C38   C40   1.420663 A    
C139  C147  1.415079 A    
O47   Zn10  1.992281 S    
C3    C127  1.477565 S    
O44   Zn11  1.992282 S    
C137  C145  1.412554 A    
C104  C144  1.403640 A    
C82   C93   1.411550 A    
C33   C35   1.417210 A    
C95   C164  1.396630 A    
C5    C129  1.465345 S    
C62   N2    1.440436 S    
C36   C43   1.399881 A    
C49   C67   1.414532 A    
C82   C146  1.430299 A    
C51   C73   1.427364 A    
C49   C57   1.435112 A    
C150  C158  1.389572 A    
O48   C186  1.265004 A    
C70   C190  1.441205 S    
C162  H30   1.081007 S    
C52   C67   1.406407 A    
O37   C185  1.222037 A    
O6    Zn6   2.011403 S    
C105  C145  1.406123 A    
C166  H34   1.081760 S    
C73   C193  1.453341 S    
C41   C65   1.415870 A    
C118  H10   1.084957 S    
C196  N12   1.157055 T    
C126  C134  1.429932 A    
C154  H22   1.079628 S    
C38   C42   1.414013 A    
C45   C53   1.431022 A    
C51   C68   1.408877 A    
C81   C94   1.423886 A    
C156  C164  1.379152 A    
O27   C3    1.303458 A    
C105  C113  1.430153 A    
O39   Zn10  1.994340 S    
C93   C162  1.407911 A    
N3    O53   1.302133 A    
O41   Zn11  2.009668 S    
O42   Zn12  2.009670 S    
N4    O55   1.302364 A    
C150  H18   1.080232 S    
C44   C68   1.415460 A    
H2    C31   1.083313 S    
O45   C187  1.259265 A    
O46   C188  1.272115 A    
O30   Zn1   2.059937 S    
C34   C36   1.412440 A    
C164  H32   1.078789 S    
C91   C179  1.417977 A    
H6    C27   1.083719 S    
C160  H28   1.076866 S    
O17   Zn1   2.011662 S    
C82   C90   1.419414 A    
C135  C167  1.408342 A    
N2    O51   1.302271 A    
C168  H36   1.082111 S    
C133  C141  1.412215 A    
C48   C56   1.433951 A    
C75   C195  1.451202 S    
C15   C56   1.458795 S    
C20   C73   1.401997 A    
C80   C99   1.424544 A    
O23   Zn7   2.028550 S    
H7    C26   1.082764 S    
O24   Zn8   2.028550 S    
O9    C9    1.267845 A    
C50   C58   1.435978 A    
C60   C63   1.397395 A    
C139  C171  1.402200 A    
C153  C161  1.379493 A    
C137  C169  1.403785 A    
C106  C154  1.410017 A    
O13   C13   1.263849 A    
C111  C119  1.380009 A    
C11   C60   1.456000 S    
C112  C120  1.374960 A    
O33   Zn11  1.976979 S    
C13   C54   1.474000 S    
O36   Zn11  1.994342 S    
O34   Zn12  1.976979 S    
C97   C158  1.410144 A    
C81   C89   1.415305 A    
C40   C41   1.405478 A    
C78   C86   1.414336 A    
O12   C12   1.258254 A    
C195  N11   1.157391 T    
O7    C7    1.250246 A    
O9    Zn6   2.099359 S    
O8    C8    1.247865 A    
C103  C151  1.417450 A    
O11   Zn8   2.113046 S    
C21   C29   1.409386 A    
C118  C126  1.371889 A    
O16   Zn3   2.113046 S    
C113  C121  1.374228 A    
C23   C31   1.407027 A    
O22   Zn6   2.011662 S    
C47   C69   1.417294 A    
C42   C66   1.415680 A    
C50   C76   1.427551 A    
O30   C6    1.297093 A    
C26   C28   1.397371 A    
C55   C62   1.398986 A    
C134  C166  1.398819 A    
C30   C32   1.394433 A    
C18   C26   1.409366 A    
C104  C152  1.405239 A    
C17   C76   1.422944 A    
O2    Zn2   2.011403 S    
O45   Zn9   2.009668 S    
C46   C72   1.420747 A    
H8    C25   1.082403 S    
O6    C6    1.252706 A    
C81   C145  1.433164 A    
C78   C142  1.429118 A    
C87   C95   1.421638 A    
C115  C182  1.437933 S    
N1    O50   1.300658 A    
H1    C32   1.083306 S    
C123  H15   1.085302 S    
C161  H29   1.075467 S    
C107  C147  1.403214 A    
H3    C30   1.082251 S    
C121  H13   1.084867 S    
O20   C12   1.294151 A    
C78   C97   1.424783 A    
C47   C55   1.434334 A    
O21   C13   1.303456 A    
H5    C28   1.083449 S    
C179  H47   1.077067 S    
C14   C53   1.474614 S    
C165  H33   1.077042 S    
C52   C60   1.431567 A    
O23   C15   1.280423 A    
O24   C16   1.280202 A    
C102  C150  1.407024 A    
C109  C117  1.379369 A    
C136  C144  1.414585 A    
C107  C115  1.425202 A    
C6    C130  1.450195 S    
C16   C55   1.457690 S    
C103  C111  1.430528 A    
O3    C3    1.253843 A    
O37   Zn9   1.976979 S    
C157  H25   1.078501 S    
O38   C186  1.218929 A    
C46   C54   1.430186 A    
C76   C196  1.450791 S    
C19   C33   1.402033 A    
C116  C124  1.373784 A    
C19   C27   1.406535 A    
C165  C173  1.389612 A    
C83   C147  1.429764 A    
C119  H11   1.084679 S    
C12   C59   1.470097 S    
C120  H12   1.085139 S    
C175  H43   1.078091 S    
C176  H44   1.076382 S    
C130  C138  1.434341 A    
C79   C143  1.428235 A    
C92   C100  1.421980 A    
C172  H40   1.080795 S    
C8    C132  1.470712 S    
C173  H41   1.081407 S    
C20   C28   1.405982 A    
C155  C163  1.388837 A    
C170  C178  1.391848 A    
C20   C34   1.399629 A    
O5    Zn5   2.011403 S    
C111  C186  1.450731 S    
C24   C32   1.407303 A    
O2    C2    1.260308 A    
C90   C98   1.429022 A    
C86   C174  1.418588 A    
O44   C182  1.258280 A    
O12   Zn7   2.113046 S    
C83   C91   1.414710 A    
C177  H45   1.076514 S    
O13   Zn2   2.099359 S    
C166  C174  1.390543 A    
C18   C75   1.415845 A    
C87   C175  1.412638 A    
C45   C71   1.421199 A    
O25   C1    1.303259 A    
C100  C159  1.398644 A    
O10   C10   1.260442 A    
C25   C27   1.396078 A    
C170  H38   1.078611 S    
O14   C14   1.264024 A    
O41   C183  1.275636 A    
O42   C184  1.263413 A    
O43   C181  1.259629 A    
C89   C97   1.429848 A    
C79   C87   1.406917 A    
C80   C88   1.415453 A    
C108  C156  1.409916 A    
C47   C66   1.409683 A    
C53   C61   1.378673 A    
C138  C146  1.407877 A    
C34   C44   1.410760 A    
O10   Zn5   2.099359 S    
C125  C133  1.436940 A    
C167  C175  1.393586 A    
N4    O56   1.300515 A    
C128  C136  1.435959 A    
C115  C123  1.372149 A    
C21   C39   1.417552 A    
C113  C184  1.451983 S    
C151  H19   1.077473 S    
C79   C100  1.420083 A    
C114  C183  1.461990 S    
C124  H16   1.085353 S    
C84   C95   1.422828 A    
C29   C31   1.393902 A    
C57   C63   1.381546 A    
C149  C157  1.396079 A    
C192  N8    1.157200 T    
C163  H31   1.076739 S    
C109  C188  1.470520 S    
C152  H20   1.080472 S    
C110  C187  1.443231 S    
C106  C146  1.414204 A    
O19   C11   1.281864 A    
C84   C148  1.429639 A    
C9    C58   1.483256 S    
C155  H23   1.080581 S    
O25   Zn6   2.059937 S    
C136  C168  1.401415 A    
C101  C149  1.412194 A    
O3    Zn3   2.005678 S    
O27   Zn8   2.059461 S    
O46   Zn10  2.009670 S    
C153  H21   1.064573 S    
C80   C144  1.429121 A    
O32   Zn3   2.059461 S    
C86   C94   1.424510 A    
C19   C74   1.405460 A    
C114  C122  1.370282 A    
C122  C130  1.374965 A    
C151  C159  1.388003 A    
C45   C65   1.412963 A    
O15   Zn4   2.113046 S    
C149  H17   1.077692 S    
O22   C14   1.303706 A    
C1    C125  1.467289 S    
C48   C65   1.409478 A    
C90   C178  1.405808 A    
O18   Zn2   2.011662 S    
O33   C181  1.216236 A    
C37   C41   1.414004 A    
C102  C110  1.426376 A    
C106  C114  1.437716 A    
C24   C38   1.408766 A    
O35   C183  1.217370 A    
C84   C92   1.406993 A    
C51   C59   1.434049 A    
C21   C72   1.422957 A    
C85   C93   1.419770 A    
C169  C177  1.396773 A    
C138  C170  1.413024 A    
O18   C10   1.306234 A    
O38   Zn10  1.976979 S    
C88   C96   1.429321 A    
O39   C187  1.220683 A    
C105  C153  1.403416 A    
O40   Zn9   1.994342 S    
C191  N7    1.157261 T    
C43   C67   1.415547 A    
C10   C57   1.474654 S    
C85   C173  1.401427 A    
C98   C157  1.409565 A    
C17   C35   1.413257 A    
C121  C129  1.374083 A    
C194  N10   1.152741 T    
C33   C43   1.413868 A    
O28   C4    1.301334 A    
C49   C75   1.424258 A    
C39   C42   1.405574 A    
O29   C5    1.304248 A    
C92   C180  1.412688 A    
C101  C109  1.438041 A    
C102  C142  1.403986 A    
C83   C96   1.425616 A    
C190  N6    1.153476 T    
C104  C112  1.422375 A    
C22   C30   1.409511 A    
N1    O49   1.302261 A    
O15   C15   1.264368 A    
C22   C40   1.417497 A    
C112  C185  1.440494 S    
O16   C16   1.264118 A    
C46   C66   1.413107 A    
O1    C1    1.256247 A    
C58   C64   1.394700 A    
C189  N5    1.154299 T    
O47   C185  1.255991 A    
C35   C44   1.399811 A    
C88   C176  1.419462 A    
C91   C99   1.425667 A    
O4    Zn4   2.005678 S    
C48   C70   1.416197 A    
C135  C143  1.416317 A    
C168  C176  1.397610 A    
C56   C61   1.398657 A    
C133  C165  1.415194 A    
C178  H46   1.078868 S    
O14   Zn1   2.099359 S    
C117  H9    1.084489 S    
O43   Zn12  1.992281 S    
C17   C25   1.410913 A    
C23   C37   1.408522 A    
O26   C2    1.301185 A    
C119  C127  1.376615 A    
C120  C128  1.370790 A    
C24   C69   1.412785 A    
C71   C191  1.451102 S    
O11   C11   1.260790 A    
C4    C128  1.467159 S    
N2    O52   1.300730 A    
C171  H39   1.081830 S    
C180  H48   1.080858 S    
C7    C131  1.462603 S    
C77   C141  1.431262 A    
C74   C194  1.439400 S    
C152  C160  1.385885 A    
O28   Zn7   2.059461 S    
O34   C182  1.219030 A    
O29   Zn2   2.059937 S    
C37   C39   1.420228 A    
H4    C29   1.082260 S    
C72   C192  1.451120 S    
C103  C143  1.403431 A    
C96   C163  1.410053 A    
C99   C160  1.409215 A    
C94   C161  1.403720 A    
O19   Zn3   2.028550 S    
C140  C148  1.416334 A    
C50   C68   1.411938 A    
C22   C71   1.423693 A    
C158  H26   1.076773 S    
C132  C140  1.444543 A    
C61   N1    1.440160 S    
C89   C177  1.417334 A    
C108  C148  1.401720 A    
O26   Zn5   2.059937 S    
C77   C85   1.414110 A    
C69   C189  1.442735 S    
C23   C70   1.411826 A    
C131  C139  1.435636 A    
C129  C137  1.435906 A    
C127  C135  1.440661 A    
O36   C184  1.219654 A    
C171  C179  1.394186 A    
C154  C162  1.393849 A    
C123  C131  1.367748 A    
O20   Zn4   2.028550 S    
C117  C125  1.381066 A    
C107  C155  1.406771 A    
C169  H37   1.081323 S    
C156  H24   1.064354 S    
O21   Zn5   2.011662 S    
O48   Zn9   1.992282 S    
C124  C132  1.369793 A    
C63   N3    1.440199 S    
C174  H42   1.075067 S    
O31   C7    1.301753 A    
C2    C126  1.463629 S    
C52   C74   1.417849 A    
O32   C8    1.307560 A    
C193  N9    1.157521 T    
O17   C9    1.302090 A    
O35   Zn12  1.994340 S    
C172  C180  1.400247 A    
C54   C62   1.377917 A    
C18   C36   1.411971 A    
O40   C188  1.222959 A    
C110  C118  1.374966 A    
C167  H35   1.078493 S    
C108  C116  1.427480 A    
C64   N4    1.439972 S    
O1    Zn1   2.011403 S    
C101  C141  1.412897 A    
