data_mof_unit_68046.cif
_audit_creation_date              2013-03-05T15:43:42-0500
_audit_creation_method            fapswitch 2.2
_symmetry_space_group_name_H-M    P1
_symmetry_Int_Tables_number       1
_space_group_crystal_system       triclinic
_cell_length_a                    14.407131
_cell_length_b                    16.050387
_cell_length_c                    7.030365
_cell_angle_alpha                 89.974368
_cell_angle_beta                  80.113752
_cell_angle_gamma                 90.031728
_cell_volume                      1601.56055673

loop_
_atom_site_label
_atom_site_type_symbol
_atom_site_description
_atom_site_fract_x
_atom_site_fract_y
_atom_site_fract_z
_atom_type_partial_charge
O1    O     O_R   0.337080 0.165770 0.524980 -0.542760
O2    O     O_R   0.662920 0.834230 0.475020 -0.543418
O3    O     O_R   0.662920 0.665770 0.475020 -0.542185
O4    O     O_R   0.337080 0.334230 0.524980 -0.551338
O5    O     O_R   0.348340 0.341430 0.191390 -0.577071
O6    O     O_R   0.651660 0.658570 0.808610 -0.575791
O7    O     O_R   0.651660 0.841430 0.808610 -0.579692
O8    O     O_R   0.348340 0.158570 0.191390 -0.578949
O9    O     O_R   0.165780 0.339950 0.082750 -0.570965
O10   O     O_R   0.834220 0.660050 0.917250 -0.570901
O11   O     O_R   0.834220 0.839950 0.917250 -0.575803
O12   O     O_R   0.165780 0.160050 0.082750 -0.569900
C1    C     C_R   0.369899 0.363924 0.355517 0.757769
C2    C     C_R   0.630531 0.635743 0.644372 0.755304
C3    C     C_R   0.630230 0.863958 0.644342 0.769962
C4    C     C_R   0.369620 0.135998 0.355661 0.767914
O13   O     O_3   0.191540 0.250000 0.407620 -0.270649
O14   O     O_3   0.808460 0.750000 0.592380 -0.271205
V1    V     V_3+5 0.262540 0.250000 0.108780 1.138108
V2    V     V_3+5 0.737460 0.750000 0.891220 1.147038
O15   O     O_R   0.154530 0.164290 0.756910 -0.531335
O16   O     O_R   0.845470 0.835710 0.243090 -0.521317
O17   O     O_R   0.845470 0.664290 0.243090 -0.535646
O18   O     O_R   0.154530 0.335710 0.756910 -0.532600
C5    C     C_R   0.131255 0.134503 0.933348 0.826150
C6    C     C_R   0.869970 0.864607 0.066133 0.844387
C7    C     C_R   0.868691 0.634460 0.066642 0.819351
C8    C     C_R   0.130452 0.364983 0.933700 0.813755
H1    H     H_    0.481805 0.688420 0.072571 0.069969
H2    H     H_    0.363981 0.581314 0.409446 0.101956
H3    H     H_    0.480513 0.173293 0.862841 0.113960
H4    H     H_    0.642323 0.076584 0.586582 0.119171
V3    V     V_3+5 0.240320 0.250000 0.616280 1.169608
V4    V     V_3+5 0.759680 0.750000 0.383720 1.187670
O19   O     O_3   0.311330 0.250000 0.867310 -0.296589
O20   O     O_3   0.688670 0.750000 0.132690 -0.291223
C9    C     C_3   0.085731 0.526312 0.006906 -0.086789
C10   C     C_3   0.911580 0.472385 0.993426 -0.096078
C11   C     C_3   0.914507 0.025701 0.995648 -0.017630
C12   C     C_3   0.089155 0.972246 0.003753 -0.094711
C13   C     C_3   0.024095 0.557873 0.862407 -0.182290
C14   C     C_3   0.973393 0.440718 0.137906 -0.182696
C15   C     C_3   0.977053 0.056740 0.138870 -0.151557
C16   C     C_3   0.026528 0.940887 0.860437 -0.199630
H5    H     H_    0.046581 0.607914 0.756124 0.140322
H6    H     H_    0.951335 0.391051 0.245084 0.124836
H7    H     H_    0.955027 0.106272 0.246288 0.127596
H8    H     H_    0.049236 0.891308 0.753266 0.140581
C17   C     C_3   0.938853 0.563189 0.030979 -0.187290
C18   C     C_3   0.058904 0.435459 0.969449 -0.184742
C19   C     C_3   0.061288 0.063063 0.968610 -0.204518
C20   C     C_3   0.941857 0.934806 0.030613 -0.176075
C21   C     C_3   0.000959 0.532290 0.173523 0.022642
C22   C     C_3   0.996578 0.466281 0.826844 0.024573
C23   C     C_3   0.998309 0.032556 0.827298 -0.000534
C24   C     C_3   0.005097 0.965190 0.172000 0.023536
C25   C     C_2   0.418887 0.526699 0.147501 0.077196
C26   C     C_2   0.457251 0.733547 0.352018 0.071267
C27   C     C_2   0.578675 0.025294 0.846344 0.055000
C28   C     C_2   0.555239 0.231282 0.620826 0.026179
C29   C     C_2   0.408105 0.591241 0.270087 -0.057045
C30   C     C_2   0.451888 0.673939 0.221116 -0.045512
C31   C     C_2   0.590658 0.086879 0.715801 -0.081878
C32   C     C_2   0.537529 0.166313 0.741717 -0.068218
C33   C     C_3   0.423243 0.726351 0.565758 -0.215235
C34   C     C_3   0.319511 0.750914 0.620412 -0.194161
C35   C     C_3   0.290805 0.755260 0.839488 -0.325730
H9    H     H_    0.307381 0.695889 0.906950 0.179236
H10   H     H_    0.329865 0.806075 0.898426 0.166452
H11   H     H_    0.213944 0.767360 0.877720 0.144814
H12   H     H_    0.307576 0.812915 0.558068 0.168458
H13   H     H_    0.274590 0.704356 0.562161 0.173091
H14   H     H_    0.434427 0.662332 0.615952 0.082196
H15   H     H_    0.466686 0.768743 0.639002 0.066448
C36   C     C_3   0.478970 0.527910 0.951530 -0.206529
C37   C     C_3   0.471051 0.446055 0.844550 -0.160959
C38   C     C_3   0.528210 0.450129 0.640810 -0.417623
H16   H     H_    0.504984 0.503475 0.560046 0.099318
H17   H     H_    0.604492 0.456292 0.646404 0.160328
H18   H     H_    0.517440 0.392496 0.561553 0.118202
H19   H     H_    0.497877 0.393835 0.923804 0.129428
H20   H     H_    0.396097 0.433588 0.834897 0.183805
H21   H     H_    0.455366 0.579696 0.867307 0.101898
H22   H     H_    0.553294 0.537485 0.969340 0.133044
C39   C     C_3   0.632430 0.236125 0.447381 -0.253242
C40   C     C_3   0.728882 0.248397 0.507807 -0.136932
C41   C     C_3   0.807625 0.250022 0.332757 -0.347317
H23   H     H_    0.808588 0.191072 0.250929 0.146872
H24   H     H_    0.797495 0.302547 0.236218 0.146455
H25   H     H_    0.876627 0.257311 0.380712 0.176764
H26   H     H_    0.729296 0.308215 0.587290 0.183774
H27   H     H_    0.743276 0.197250 0.604889 0.199146
H28   H     H_    0.631355 0.179695 0.356860 0.100822
H29   H     H_    0.617901 0.290429 0.359070 0.124927
C42   C     C_3   0.511460 0.026784 0.034098 -0.221419
C43   C     C_3   0.520088 0.946651 0.148220 -0.185896
C44   C     C_3   0.464201 0.952929 0.352687 -0.408288
H30   H     H_    0.488699 0.006976 0.429223 0.093680
H31   H     H_    0.387761 0.959032 0.348872 0.166925
H32   H     H_    0.475242 0.896317 0.435441 0.120564
H33   H     H_    0.493207 0.893026 0.073496 0.130569
H34   H     H_    0.595117 0.934526 0.157594 0.169601
H35   H     H_    0.528720 0.081442 0.118379 0.068722
H36   H     H_    0.438351 0.032354 0.004785 0.150959
C45   C     C_2   0.186123 0.553061 0.000597 0.882617
O21   O     O_2   0.210959 0.581416 0.144535 -0.548256
O22   O     O_R   0.252219 0.544775 0.831266 -0.779696
H37   H     H_    0.224218 0.520715 0.720481 0.291760
C46   C     C_2   0.810294 0.447308 0.998847 0.890723
O23   O     O_2   0.784811 0.419795 0.854660 -0.550787
O24   O     O_R   0.743877 0.457022 0.167293 -0.757907
H38   H     H_    0.772275 0.480069 0.278622 0.291525
C47   C     C_2   0.814068 0.052366 0.010210 0.865851
O25   O     O_2   0.787021 0.086702 0.874774 -0.586596
O26   O     O_R   0.751783 0.037643 0.182126 -0.766767
H39   H     H_    0.686619 0.060256 0.178585 0.288495
C48   C     C_2   0.190769 0.948048 0.995249 0.887674
O27   O     O_2   0.217893 0.921907 0.139042 -0.547725
O28   O     O_R   0.255721 0.957515 0.824529 -0.765128
H40   H     H_    0.226045 0.979722 0.714092 0.296375
C49   C     C_2   0.993376 0.574551 0.364241 0.906619
O29   O     O_2   0.056040 0.620476 0.398435 -0.575673
O30   O     O_R   0.910114 0.565479 0.496910 -0.750776
H41   H     H_    0.907687 0.604112 0.610519 0.323194
C50   C     C_2   0.003710 0.423494 0.636924 0.905477
O31   O     O_2   0.940676 0.377702 0.604123 -0.597042
O32   O     O_R   0.086747 0.431952 0.503360 -0.749287
H42   H     H_    0.088794 0.392764 0.390825 0.322811
C51   C     C_2   0.003759 0.075292 0.637579 0.912378
O33   O     O_2   0.939169 0.119239 0.604999 -0.587999
O34   O     O_R   0.086855 0.068686 0.503572 -0.749153
H43   H     H_    0.088481 0.108973 0.393140 0.321595
C52   C     C_2   0.999532 0.921882 0.361198 0.908975
O35   O     O_2   0.063659 0.877032 0.392456 -0.579290
O36   O     O_R   0.916725 0.928778 0.495936 -0.725768
H44   H     H_    0.915120 0.888328 0.606097 0.319347

loop_
_geom_bond_atom_site_label_1
_geom_bond_atom_site_label_2
_geom_bond_distance
_ccdc_geom_bond_type
O10   C7    1.302828 A    
C26   C30   1.339164 D    
C41   H23   1.106418 S    
C43   H34   1.111464 S    
C39   H28   1.108816 S    
C42   C43   1.531950 S    
C15   C19   1.554605 S    
C44   H30   1.109911 S    
O1    V3    1.969427 S    
O36   H44   1.007588 S    
C10   C17   1.543877 S    
C38   H16   1.110223 S    
C45   O22   1.397382 S    
C18   C22   1.537963 S    
C27   C42   1.497263 S    
C10   C14   1.547199 S    
C40   H26   1.111620 S    
C46   O24   1.397694 S    
C14   C21   1.553858 S    
C36   H22   1.109863 S    
O15   V3    1.993722 S    
O26   H39   1.011022 S    
C33   H14   1.107102 S    
C14   H6    1.105068 S    
O4    C1    1.294575 A    
O13   V1    2.173105 S    
O4    V3    1.967971 S    
C8    C18   1.522451 S    
O9    V1    2.037346 S    
C11   C23   1.542611 S    
O24   H38   1.013342 S    
O10   V2    2.037348 S    
C11   C47   1.495810 S    
O22   H37   1.013156 S    
O17   C7    1.318400 A    
O5    C1    1.296748 A    
C9    C21   1.543351 S    
C16   C20   1.558077 S    
O7    C3    1.296912 A    
C11   C20   1.541960 S    
O8    C4    1.296279 A    
C43   H33   1.112076 S    
C29   C30   1.484021 S    
O13   V3    1.732013 S    
C13   C17   1.555776 S    
C44   H31   1.110591 S    
C42   H35   1.110576 S    
C24   C52   1.490417 S    
C38   H17   1.110803 S    
O16   V4    1.993721 S    
C22   C50   1.489548 S    
C34   H13   1.111637 S    
O11   V2    2.036368 S    
O8    V1    2.065578 S    
C35   H9    1.108504 S    
O30   H41   1.007241 S    
C37   C38   1.526080 S    
C37   H20   1.111626 S    
C40   C41   1.524054 S    
C11   C15   1.544522 S    
C19   C23   1.536070 S    
C12   C24   1.544795 S    
C39   C40   1.533861 S    
C33   H15   1.109221 S    
C35   H10   1.110604 S    
C36   C37   1.528047 S    
C5    C19   1.518227 S    
C9    C45   1.501845 S    
O11   C6    1.304904 A    
C6    C20   1.521218 S    
O6    C2    1.296562 A    
C39   H29   1.110549 S    
C26   C33   1.502790 S    
C23   C51   1.489583 S    
C34   H12   1.112500 S    
C10   C22   1.545473 S    
C28   C39   1.504609 S    
O17   V4    1.995276 S    
C43   C44   1.525638 S    
O1    C4    1.293923 A    
C10   C46   1.507677 S    
O2    C3    1.294127 A    
O14   V4    1.732013 S    
C49   O29   1.220723 D    
O3    C2    1.294609 A    
C14   C18   1.557770 S    
O7    V2    2.065577 S    
C41   H24   1.107380 S    
C50   O31   1.220406 D    
H2    C29   1.084106 S    
O32   H42   1.007419 S    
C40   H27   1.109531 S    
C44   H32   1.104929 S    
C42   H36   1.111075 S    
C50   O32   1.394749 S    
C47   O25   1.220388 D    
C38   H18   1.104632 S    
O15   C5    1.317625 A    
H1    C30   1.084212 S    
O2    V4    1.969426 S    
H3    C32   1.082792 S    
O18   C8    1.318534 A    
H4    C31   1.083846 S    
C37   H19   1.111851 S    
O28   H40   1.013196 S    
C25   C29   1.339780 D    
O5    V1    2.064973 S    
C12   C19   1.543168 S    
O6    V2    2.064974 S    
C45   O21   1.218084 D    
C27   C31   1.339310 D    
O18   V3    1.995275 S    
O3    V4    1.967972 S    
O12   C5    1.303199 A    
C28   C32   1.341373 D    
C35   H11   1.110969 S    
C25   C36   1.496099 S    
C48   O28   1.397607 S    
C51   O33   1.220534 D    
V1    O19   1.722283 S    
C48   O27   1.219076 D    
C9    C18   1.542662 S    
C16   C23   1.554747 S    
C36   H21   1.107312 S    
C52   O35   1.220817 D    
C20   C24   1.538474 S    
C17   C21   1.535845 S    
O12   V1    2.036369 S    
V3    O19   2.186608 S    
V4    O20   2.186608 S    
C34   C35   1.526257 S    
O14   V2    2.173105 S    
C9    C13   1.544981 S    
O34   H43   1.007324 S    
C13   C22   1.553880 S    
C49   O30   1.394855 S    
C31   C32   1.482542 S    
V2    O20   1.722284 S    
C16   H8    1.106401 S    
C15   C24   1.552217 S    
C12   C16   1.547496 S    
C33   C34   1.529746 S    
O16   C6    1.317552 A    
C41   H25   1.109336 S    
C52   O36   1.394633 S    
C13   H5    1.106539 S    
C12   C48   1.506059 S    
C21   C49   1.490102 S    
C51   O34   1.394629 S    
C46   O23   1.218757 D    
C15   H7    1.105245 S    
C7    C17   1.519120 S    
O9    C8    1.304425 A    
C47   O26   1.396047 S    
