data_mof_unit_7447.cif
_audit_creation_date              2013-03-05T16:47:54-0500
_audit_creation_method            fapswitch 2.2
_symmetry_space_group_name_H-M    P1
_symmetry_Int_Tables_number       1
_space_group_crystal_system       triclinic
_cell_length_a                    8.102222
_cell_length_b                    8.934655
_cell_length_c                    16.870236
_cell_angle_alpha                 89.981914
_cell_angle_beta                  84.038558
_cell_angle_gamma                 90.021214
_cell_volume                      1214.64116238

loop_
_atom_site_label
_atom_site_type_symbol
_atom_site_description
_atom_site_fract_x
_atom_site_fract_y
_atom_site_fract_z
_atom_type_partial_charge
O1    O     O_R   0.363150 0.714660 0.500000 -0.613698
O2    O     O_R   0.636850 0.285340 0.500000 -0.613716
O3    O     O_R   0.636850 0.714660 0.500000 -0.612303
O4    O     O_R   0.363150 0.285340 0.500000 -0.612294
H1    H     H_    0.211077 0.558856 0.909654 0.140516
H2    H     H_    0.789015 0.440590 0.090390 0.140532
C1    C     C_R   0.500013 0.782038 0.500013 0.937872
C2    C     C_R   0.499987 0.217962 0.499988 0.937849
O5    O     O_R   0.346950 0.500000 0.615800 -0.611061
O6    O     O_R   0.653050 0.500000 0.384200 -0.611076
O7    O     O_R   0.620700 0.500000 0.615800 -0.616864
O8    O     O_R   0.379300 0.500000 0.384200 -0.616852
C3    C     C_R   0.475366 0.497594 0.653478 0.858024
C4    C     C_R   0.524634 0.502381 0.346520 0.858020
Zn1   Zn    Zn3+2 0.317220 0.500000 0.500010 1.003908
Zn2   Zn    Zn3+2 0.682780 0.500000 0.499990 1.003886
H3    H     H_    0.332565 0.689853 0.120827 0.142379
H4    H     H_    0.667096 0.308981 0.878991 0.142423
N1    N     N_1   0.926360 0.500000 0.499990 -0.025513
N2    N     N_1   0.073640 0.500000 0.500010 -0.025514
C5    C     C_R   0.456313 0.474815 0.739200 -0.075075
C6    C     C_R   0.543676 0.524913 0.260776 -0.075161
C7    C     C_R   0.577974 0.390164 0.772177 -0.206967
C8    C     C_R   0.421848 0.609223 0.227717 -0.206917
C9    C     C_R   0.567986 0.367599 0.853580 -0.176921
C10   C     C_R   0.431767 0.631466 0.146292 -0.176924
C11   C     C_R   0.437498 0.431213 0.902488 0.181948
C12   C     C_R   0.562357 0.567872 0.097443 0.181955
C13   C     C_R   0.310335 0.508524 0.870390 -0.221571
C14   C     C_R   0.689662 0.490887 0.129609 -0.221592
C15   C     C_R   0.318292 0.530754 0.788462 -0.016268
C16   C     C_R   0.681776 0.468984 0.211559 -0.016262
C17   C     C_2   0.452433 0.443853 0.987037 0.126660
C18   C     C_2   0.547551 0.555105 0.012889 0.126676
C19   C     C_1   0.500019 0.934818 0.500005 -0.186549
C20   C     C_1   0.499980 0.065182 0.499996 -0.186545
H5    H     H_    0.682496 0.343413 0.735037 0.166868
H6    H     H_    0.317251 0.655955 0.264813 0.166904
C21   C     C_1   0.810521 0.381180 0.242434 0.171750
N3    N     N_1   0.913794 0.310877 0.267068 -0.192036
C22   C     C_1   0.189739 0.618912 0.757664 0.171667
N4    N     N_1   0.086623 0.689498 0.733091 -0.192052
C23   C     C_3   0.640007 0.667151 0.957625 -0.920256
H7    H     H_    0.706071 0.750297 0.991791 0.243124
H8    H     H_    0.733684 0.609135 0.915797 0.250522
H9    H     H_    0.551734 0.728623 0.923378 0.251587
C24   C     C_3   0.360042 0.331764 0.042295 -0.920318
H10   H     H_    0.294003 0.248605 0.008125 0.243136
H11   H     H_    0.448362 0.270315 0.076527 0.251580
H12   H     H_    0.266354 0.389732 0.084138 0.250514

loop_
_geom_bond_atom_site_label_1
_geom_bond_atom_site_label_2
_geom_bond_distance
_ccdc_geom_bond_type
C8    H6    1.083720 S    
C23   H7    1.111151 S    
O1    Zn1   1.953544 S    
C11   C13   1.395734 A    
O2    Zn2   1.953545 S    
C22   N4    1.157481 T    
N1    N2    1.193330 T    
C10   C12   1.393237 A    
C19   C20   1.164753 T    
O8    Zn1   1.966209 S    
O4    C2    1.261754 A    
C4    C6    1.452649 S    
O4    Zn1   1.953815 S    
C12   C14   1.395720 A    
C17   C18   1.357094 D    
O5    Zn1   1.992875 S    
C3    C5    1.452603 S    
C13   C15   1.391124 A    
O6    Zn2   1.992875 S    
C11   C17   1.448388 S    
C14   C16   1.391119 A    
C23   H8    1.109942 S    
C5    C15   1.413729 A    
H4    C9    1.083773 S    
C6    C16   1.413788 A    
Zn2   N1    1.973539 S    
H3    C10   1.083802 S    
H2    C14   1.085149 S    
C8    C10   1.381941 A    
C24   H12   1.109948 S    
H1    C13   1.085144 S    
C7    C9    1.381970 A    
C5    C7    1.402636 A    
O6    C4    1.274543 A    
Zn1   N2    1.973539 S    
C17   C24   1.512038 S    
C23   H9    1.110360 S    
C6    C8    1.402653 A    
O7    Zn2   1.966209 S    
C9    C11   1.393238 A    
C18   C23   1.512063 S    
C12   C18   1.448369 S    
O7    C3    1.278888 A    
C24   H11   1.110372 S    
C2    C20   1.365042 S    
C16   C21   1.445003 S    
C21   N3    1.157516 T    
O5    C3    1.274529 A    
C15   C22   1.444988 S    
O3    C1    1.261754 A    
O1    C1    1.261587 A    
C7    H5    1.083721 S    
C1    C19   1.365042 S    
O2    C2    1.261587 A    
O3    Zn2   1.953814 S    
C24   H10   1.111156 S    
O8    C4    1.278900 A    
