data_mof_unit_33670.cif
_audit_creation_date              2012-10-26T20:19:16-0400
_audit_creation_method            fapswitch 2.2
_symmetry_space_group_name_H-M    P1
_symmetry_Int_Tables_number       1
_space_group_crystal_system       triclinic
_cell_length_a                    15.042347
_cell_length_b                    12.968654
_cell_length_c                    11.819794
_cell_angle_alpha                 99.691621
_cell_angle_beta                  93.555606
_cell_angle_gamma                 92.435473
_cell_volume                      2265.22437463

loop_
_atom_site_label
_atom_site_type_symbol
_atom_type_description
_atom_site_fract_x
_atom_site_fract_y
_atom_site_fract_z
_atom_type_partial_charge
C1    C     C_R   0.499945 0.299534 0.478833 0.554307
C2    C     C_R   0.461397 0.871537 0.629389 -0.146379
C3    C     C_R   0.476454 0.136664 0.556515 -0.120543
C4    C     C_R   0.523546 0.863336 0.443485 -0.120544
C5    C     C_R   0.482804 0.029199 0.549043 0.040754
C6    C     C_R   0.517197 0.970801 0.450958 0.040753
C7    C     C_R   0.414719 0.401556 0.022308 -0.170764
C8    C     C_R   0.585280 0.598446 0.977692 -0.170765
C9    C     C_R   0.422202 0.410091 0.142583 0.077502
C10   C     C_R   0.577799 0.589908 0.857417 0.077501
C11   C     C_R   0.537519 0.543236 0.156260 0.368140
C12   C     C_R   0.500055 0.700466 0.521167 0.554307
C13   C     C_R   0.462479 0.456766 0.843741 0.368141
C14   C     C_R   0.531080 0.535859 0.033945 -0.018349
C15   C     C_R   0.468917 0.464145 0.966055 -0.018349
C16   C     C_R   0.328947 0.500776 0.500556 0.556133
C17   C     C_R   0.671053 0.499223 0.499443 0.556135
C18   C     C_R   0.811306 0.536359 0.411507 -0.127999
C19   C     C_R   0.188693 0.463634 0.588488 -0.128001
C20   C     C_R   0.767748 0.497377 0.498130 -0.008525
C21   C     C_R   0.232252 0.502619 0.501868 -0.008531
C22   C     C_R   0.816706 0.457139 0.583955 -0.147473
C23   C     C_R   0.051877 0.421885 0.673796 -0.130763
C24   C     C_R   0.183293 0.542856 0.416042 -0.147478
C25   C     C_R   0.909463 0.458361 0.585724 0.006935
C26   C     C_R   0.090537 0.541632 0.414272 0.006938
C27   C     C_R   0.953347 0.499078 0.499367 0.059996
C28   C     C_R   0.046652 0.500913 0.500628 0.059996
C29   C     C_R   0.903985 0.537869 0.411676 0.005145
C30   C     C_R   0.096015 0.462122 0.588318 0.005144
C31   C     C_R   0.959046 0.419957 0.672461 -0.137356
C32   C     C_R   0.040954 0.580035 0.327534 -0.137353
C33   C     C_R   0.638863 0.660389 0.809242 0.086070
C34   C     C_R   0.948122 0.578106 0.326197 -0.130764
C35   C     C_R   0.726619 0.632673 0.790517 -0.074520
C36   C     C_R   0.787013 0.702472 0.753026 -0.113228
C37   C     C_R   0.761286 0.802057 0.738882 -0.104066
C38   C     C_R   0.675978 0.832806 0.765122 -0.113876
C39   C     C_R   0.615680 0.763014 0.802775 -0.072993
C40   C     C_R   0.361150 0.339595 0.190756 0.086072
C41   C     C_R   0.273392 0.367296 0.209501 -0.074511
C42   C     C_R   0.213011 0.297481 0.246991 -0.113227
C43   C     C_R   0.238752 0.197892 0.261109 -0.104061
C44   C     C_R   0.324061 0.167158 0.234847 -0.113873
C45   C     C_R   0.495995 0.813534 0.532509 0.003887
C46   C     C_R   0.384348 0.236968 0.197200 -0.073002
C47   C     C_R   0.504006 0.186466 0.467491 0.003893
C48   C     C_R   0.544821 0.020822 0.362064 -0.139618
C49   C     C_R   0.455180 0.979178 0.637937 -0.139614
C50   C     C_R   0.538604 0.128463 0.370611 -0.146375
Cl1   Cl    Cl    0.383730 0.365802 0.760792 -0.673696
Cl2   Cl    Cl    0.616269 0.634200 0.239209 -0.673696
Cu1   Cu    Cu3+1 0.506660 0.507730 0.615930 1.019889
Cu2   Cu    Cu3+1 0.493340 0.492270 0.384070 1.019889
H1    H     H_    0.773316 0.567088 0.345087 0.183695
H2    H     H_    0.910857 0.608152 0.258490 0.124432
H3    H     H_    0.550017 0.818639 0.368422 0.177911
H4    H     H_    0.449984 0.181361 0.631578 0.177910
H5    H     H_    0.437427 0.833365 0.697185 0.122393
H6    H     H_    0.562574 0.166635 0.302816 0.122393
H7    H     H_    0.571827 0.976981 0.286758 0.120437
H8    H     H_    0.428175 0.023019 0.713243 0.120437
H9    H     H_    0.747904 0.556922 0.804688 0.101264
H10   H     H_    0.853914 0.679663 0.735884 0.120294
H11   H     H_    0.808015 0.856099 0.709920 0.116950
H12   H     H_    0.226684 0.432904 0.654906 0.183696
H13   H     H_    0.656846 0.910967 0.757349 0.118491
H14   H     H_    0.550849 0.788551 0.826662 0.101759
H15   H     H_    0.252096 0.443049 0.195347 0.101270
H16   H     H_    0.146109 0.320280 0.264148 0.120290
H17   H     H_    0.192033 0.143836 0.290066 0.116948
H18   H     H_    0.343204 0.088994 0.242598 0.118488
H19   H     H_    0.449180 0.211443 0.173298 0.101750
H20   H     H_    0.365646 0.344929 0.973888 0.167442
H21   H     H_    0.634354 0.655071 0.026112 0.167442
H22   H     H_    0.782513 0.424458 0.648970 0.117050
H23   H     H_    0.217486 0.575539 0.351029 0.117049
H24   H     H_    0.926044 0.388662 0.739280 0.110061
H25   H     H_    0.073955 0.611331 0.260717 0.110061
H26   H     H_    0.089142 0.391838 0.741503 0.124433
N1    N     N_R   0.516670 0.519360 0.790130 -0.220714
N2    N     N_R   0.483330 0.480640 0.209870 -0.220714
O1    O     O_R   0.504720 0.354460 0.582000 -0.457646
O2    O     O_R   0.495280 0.645540 0.418000 -0.457643
O3    O     O_R   0.493480 0.341410 0.386200 -0.513826
O4    O     O_R   0.506520 0.658590 0.613800 -0.513832
O5    O     O_R   0.375880 0.506510 0.597910 -0.455417
O6    O     O_R   0.624120 0.493490 0.402090 -0.455421
O7    O     O_R   0.364640 0.493450 0.402110 -0.513188
O8    O     O_R   0.635360 0.506550 0.597890 -0.513181

loop_
_geom_bond_atom_site_label_1
_geom_bond_atom_site_label_2
_ccdc_geom_bond_type
C25   C31   A    
C26   C32   A    
C16   C21   S    
C27   C29   A    
C17   O6    A    
C39   H14   S    
C35   C36   A    
C22   H22   S    
Cu2   O2    S    
Cu1   Cu2   S    
C40   C46   A    
C33   C39   A    
C6    C48   A    
C36   C37   A    
C19   C21   A    
C24   C26   A    
C5    C6    A    
C11   C14   A    
C13   N1    A    
C42   H16   S    
C17   C20   S    
C12   O2    A    
C19   H12   S    
Cu1   N1    S    
C41   C42   A    
C3    C47   A    
C11   Cl2   S    
C13   Cl1   S    
C22   C25   A    
C37   H11   S    
C4    H3    S    
C16   O5    A    
C43   H17   S    
Cu1   O4    S    
C23   H26   S    
C7    H20   S    
C9    N2    A    
C48   C50   A    
C16   O7    A    
C11   N2    A    
C5    C49   A    
C34   H2    S    
C44   C46   A    
C47   C50   A    
C4    C45   A    
C2    C45   A    
C1    O3    A    
C23   C30   A    
Cu2   O7    S    
C4    C6    A    
C2    H5    S    
C1    C47   S    
C29   C34   A    
C8    H21   S    
C23   C31   A    
C43   C44   A    
C37   C38   A    
C2    C49   A    
Cu1   O5    S    
C18   C29   A    
C18   H1    S    
C40   C41   A    
C20   C22   A    
C13   C15   A    
C25   C27   A    
C42   C43   A    
Cu2   N2    S    
C31   H24   S    
C41   H15   S    
C7    C9    A    
C8    C14   A    
C49   H8    S    
C17   O8    A    
C12   C45   S    
C3    C5    A    
Cu2   O3    S    
C1    O1    A    
C10   N1    A    
C26   C28   A    
C12   O4    A    
Cu1   O1    S    
C50   H6    S    
C28   C30   A    
C32   H25   S    
Cu2   O6    S    
C48   H7    S    
C38   C39   A    
C7    C15   A    
C33   C35   A    
C44   H18   S    
C10   C33   S    
C18   C20   A    
C9    C40   S    
C3    H4    S    
C24   H23   S    
C38   H13   S    
C8    C10   A    
C21   C24   A    
Cu1   O8    S    
C14   C15   A    
C35   H9    S    
C36   H10   S    
C19   C30   A    
C46   H19   S    
C32   C34   A    
C27   C28   A    
