data_mof_unit_56998.cif
_audit_creation_date              2012-12-10T20:36:42-0500
_audit_creation_method            fapswitch 2.2
_symmetry_space_group_name_H-M    P1
_symmetry_Int_Tables_number       1
_space_group_crystal_system       triclinic
_cell_length_a                    10.545
_cell_length_b                    10.670468
_cell_length_c                    9.882605
_cell_angle_alpha                 89.973349
_cell_angle_beta                  91.956033
_cell_angle_gamma                 90.018759
_cell_volume                      1111.34343859

loop_
_atom_site_label
_atom_site_type_symbol
_atom_type_description
_atom_site_fract_x
_atom_site_fract_y
_atom_site_fract_z
_atom_type_partial_charge
C1    C     C_R   0.502993 0.260040 0.500186 0.962041
C2    C     C_3   0.954361 0.596916 0.432455 0.445830
C3    C     C_3   0.030175 0.489594 0.372098 0.377012
C4    C     C_3   0.121982 0.498364 0.495613 -0.243911
C5    C     C_R   0.511978 0.063697 0.623281 0.122648
C6    C     C_R   0.520530 0.128440 0.501780 -0.067079
C7    C     C_R   0.552983 0.064847 0.383726 -0.076549
C8    C     C_R   0.553702 0.935264 0.383736 -0.217474
C9    C     C_R   0.521960 0.871372 0.501899 -0.094351
C10   C     C_R   0.512681 0.936005 0.623382 0.131577
C11   C     C_3   0.413874 0.928276 0.728079 -0.467904
C12   C     C_R   0.257221 0.498831 0.498040 0.995223
C13   C     C_3   0.413142 0.070297 0.727880 -0.445854
C14   C     C_R   0.441913 0.405272 0.068936 0.182242
C15   C     C_R   0.567192 0.586503 0.074388 -0.135039
C16   C     C_R   0.567235 0.586475 0.930546 -0.136248
C17   C     C_R   0.441815 0.405904 0.926080 0.160044
C18   C     C_3   0.305020 0.374622 0.912141 -0.569721
C19   C     C_3   0.303309 0.376115 0.065254 0.259757
C20   C     C_R   0.503557 0.739907 0.500120 0.873045
C21   C     C_R   0.742269 0.500443 0.502342 1.019907
C22   C     C_3   0.044362 0.401617 0.571650 0.487161
C23   C     C_3   0.953872 0.391565 0.447672 0.310856
C24   C     C_3   0.876565 0.499090 0.506962 -0.313453
C25   C     C_3   0.966060 0.508294 0.633669 -0.336845
C26   C     C_3   0.045562 0.606791 0.557361 -0.355963
H1    H     H_    0.451854 0.887477 0.824751 0.213964
H2    H     H_    0.322247 0.111169 0.688144 0.232769
H3    H     H_    0.451048 0.111522 0.824256 0.244120
H4    H     H_    0.619632 0.657794 0.130428 0.163552
H5    H     H_    0.619594 0.657842 0.878297 0.151166
H6    H     H_    0.247678 0.451393 0.864860 0.201491
H7    H     H_    0.289611 0.281191 0.865164 0.252406
H8    H     H_    0.247758 0.454823 0.104623 0.150140
H9    H     H_    0.934395 0.515939 0.739333 0.178630
H10   H     H_    0.088221 0.693548 0.601063 0.173599
H11   H     H_    0.570669 0.114275 0.290509 0.219292
H12   H     H_    0.571054 0.886142 0.290249 0.174041
H13   H     H_    0.323391 0.886380 0.688487 0.201308
N1    N     N_R   0.499140 0.499140 0.142800 -0.138816
N2    N     N_R   0.499140 0.499180 0.857150 -0.103700
O1    O     O_R   0.500020 0.316790 0.614690 -0.625416
O2    O     O_R   0.500000 0.316760 0.385350 -0.576451
O3    O     O_R   0.313960 0.499990 0.614650 -0.617193
O4    O     O_R   0.313940 0.499950 0.385310 -0.594096
O5    O     O_R   0.500000 0.683240 0.614650 -0.632369
O6    O     O_R   0.499980 0.683210 0.385310 -0.637057
O7    O     O_R   0.686060 0.500050 0.614690 -0.633719
O8    O     O_R   0.686040 0.500010 0.385350 -0.591407
Zn1   Zn    Zn3+2 0.500010 0.500020 0.653130 0.963878
Zn2   Zn    Zn3+2 0.499990 0.499980 0.346870 1.021352
S1    S     S_3+6 0.890748 0.246800 0.383808 0.045140
O9    O     O_2   0.812136 0.186448 0.489595 -0.364404
O10   O     O_2   0.809295 0.269775 0.258559 -0.328518
O11   O     O_3   0.010960 0.150805 0.347269 -0.448445
H14   H     H_    0.971540 0.083386 0.291391 0.371730
S2    S     S_3+6 0.267098 0.226142 0.135186 0.048025
O12   O     O_2   0.262047 0.236133 0.286430 -0.233871
O13   O     O_2   0.140101 0.183732 0.078712 -0.294155
O14   O     O_3   0.378579 0.121480 0.094162 -0.608639
H15   H     H_    0.350517 0.041228 0.133725 0.371094
O15   O     O_3   0.103386 0.298184 0.636993 -0.591246
C27   C     C_3   0.029341 0.257455 0.744483 -0.197520
H16   H     H_    0.928339 0.243007 0.712513 0.196014
H17   H     H_    0.036133 0.324915 0.829991 0.153572
H18   H     H_    0.067173 0.166312 0.781717 0.206048
O16   O     O_3   0.895226 0.696119 0.359956 -0.611995
C28   C     C_3   0.985381 0.789997 0.335002 -0.274421
H19   H     H_    0.074455 0.751180 0.294370 0.161631
H20   H     H_    0.006734 0.844954 0.428517 0.192254
H21   H     H_    0.944309 0.855012 0.257728 0.189651
O17   O     O_3   0.070897 0.476011 0.238888 -0.588494
C29   C     C_3   0.972673 0.506930 0.144249 -0.183284
H22   H     H_    0.978475 0.607712 0.117668 0.154330
H23   H     H_    0.875943 0.485224 0.179204 0.204799
H24   H     H_    0.986561 0.452410 0.050382 0.172265

loop_
_geom_bond_atom_site_label_1
_geom_bond_atom_site_label_2
_ccdc_geom_bond_type
O11   H14   S    
C27   H17   S    
C29   H22   S    
C3    C23   S    
C21   O8    A    
S2    O12   D    
C7    C8    A    
C19   S2    S    
C16   H5    S    
C13   H3    S    
C5    C6    A    
S2    O13   D    
O4    Zn2   S    
C15   C16   A    
C18   C19   S    
C28   H19   S    
C1    O2    A    
C8    C9    A    
O8    Zn2   S    
C22   C25   S    
C23   C24   S    
C13   H2    S    
C4    C12   S    
C9    C10   A    
C5    C13   S    
S1    O11   S    
C21   O7    A    
O7    Zn1   S    
C27   H18   S    
C29   H23   S    
C14   C17   A    
C8    H12   S    
S1    O10   D    
O16   C28   S    
C24   C25   S    
C2    O16   S    
O17   C29   S    
S2    O14   S    
O6    Zn2   S    
C25   C26   S    
C1    C6    S    
O14   H15   S    
O15   C27   S    
C22   O15   S    
C4    C22   S    
C9    C20   S    
C11   H1    S    
C17   C18   S    
C7    H11   S    
C2    C26   S    
C11   H13   S    
O1    Zn1   S    
C26   H10   S    
C25   H9    S    
C2    C24   S    
C29   H24   S    
C18   H6    S    
C3    C4    S    
N2    Zn1   S    
S1    O9    D    
C15   H4    S    
O3    Zn1   S    
C14   C19   S    
C12   O4    A    
C19   H8    S    
C4    C26   S    
C6    C7    A    
N1    Zn2   S    
O5    Zn1   S    
C2    C3    S    
C5    C10   A    
C12   O3    A    
C11   C13   S    
O2    Zn2   S    
C23   S1    S    
C28   H21   S    
C3    O17   S    
C18   H7    S    
C17   N2    A    
C15   N1    A    
C20   O6    A    
C10   C11   S    
C14   N1    A    
C27   H16   S    
C1    O1    A    
C28   H20   S    
C21   C24   S    
C22   C23   S    
C16   N2    A    
C20   O5    A    
