data_mof_unit_40769.cif
_audit_creation_date              2012-10-26T19:21:03-0400
_audit_creation_method            fapswitch 2.2
_symmetry_space_group_name_H-M    P1
_symmetry_Int_Tables_number       1
_space_group_crystal_system       triclinic
_cell_length_a                    9.868192
_cell_length_b                    11.154661
_cell_length_c                    13.468012
_cell_angle_alpha                 94.412735
_cell_angle_beta                  81.889215
_cell_angle_gamma                 111.217233
_cell_volume                      1367.65527432

loop_
_atom_site_label
_atom_site_type_symbol
_atom_type_description
_atom_site_fract_x
_atom_site_fract_y
_atom_site_fract_z
_atom_type_partial_charge
C1    C     C_R   0.556269 0.744247 0.506849 0.548275
C2    C     C_R   0.372818 0.443060 0.797126 -0.020873
C3    C     C_2   0.588328 0.881222 0.511725 -0.077866
C4    C     C_R   0.420945 0.475629 0.689513 0.545151
C5    C     C_2   0.484070 0.930123 0.506810 -0.102199
C6    C     C_2   0.416968 0.116650 0.493269 -0.070563
C7    C     C_2   0.516492 0.068923 0.516331 0.203960
C8    C     C_2   0.920789 0.484613 0.498017 0.088731
C9    C     C_2   0.077056 0.506486 0.512565 0.362133
C10   C     C_R   0.443984 0.254845 0.494734 0.565786
C11   C     C_R   0.577255 0.511547 0.309704 0.566575
C12   C     C_R   0.433720 0.449149 0.968788 0.028095
C13   C     C_R   0.800753 0.594303 0.054724 -0.102870
C14   C     C_R   0.621822 0.518803 0.200612 0.034363
C15   C     C_R   0.225997 0.419235 0.835930 -0.067055
C16   C     C_R   0.182531 0.410975 0.939420 0.000697
C17   C     C_R   0.287674 0.434763 0.005002 -0.047867
C18   C     C_3   0.883515 0.670966 0.222694 -0.362744
C19   C     C_3   0.025212 0.381509 0.981579 -0.359808
C20   C     C_3   0.643021 0.348524 0.753935 -0.265752
C21   C     C_R   0.474015 0.444365 0.863931 -0.007978
C22   C     C_R   0.544617 0.478073 0.033320 0.005310
C23   C     C_R   0.692913 0.532423 0.991689 0.002299
C24   C     C_R   0.729639 0.513658 0.888722 0.242735
C25   C     C_R   0.617313 0.445884 0.830911 0.030314
C26   C     C_R   0.514736 0.453832 0.136424 0.195440
C27   C     C_R   0.765362 0.593948 0.158949 -0.069930
Cl1   Cl    Cl    0.150071 0.603757 0.615821 -0.416203
Cl2   Cl    Cl    0.934938 0.713297 0.573599 -0.387607
Cl3   Cl    Cl    0.913461 0.560334 0.832915 -0.569871
Cl4   Cl    Cl    0.363395 0.315750 0.179444 -0.609404
Cl5   Cl    Cl    0.685952 0.164725 0.560517 -0.661528
Cu1   Cu    Cu3+1 0.362000 0.479240 0.482530 1.083358
Cu2   Cu    Cu3+1 0.638000 0.520760 0.517470 1.082870
H1    H     H_    0.373422 0.867183 0.495580 0.167477
H2    H     H_    0.983862 0.731916 0.176476 0.138440
H3    H     H_    0.844142 0.736006 0.275721 0.164648
H4    H     H_    0.952523 0.356066 0.921506 0.181166
H5    H     H_    0.989150 0.298180 0.031561 0.151838
H6    H     H_    0.013393 0.465973 0.025839 0.149930
H7    H     H_    0.680956 0.282142 0.790134 0.158234
H8    H     H_    0.540835 0.288932 0.722282 0.152228
H9    H     H_    0.728710 0.396699 0.692839 0.235023
H10   H     H_    0.313599 0.051587 0.470252 0.102422
H11   H     H_    0.700340 0.941517 0.520545 0.193461
H12   H     H_    0.865007 0.401631 0.452478 0.115888
H13   H     H_    0.107354 0.390209 0.397760 0.197433
H14   H     H_    0.912964 0.643696 0.023247 0.184272
H15   H     H_    0.145798 0.410640 0.785970 0.196327
H16   H     H_    0.254130 0.445465 0.084069 0.168338
H17   H     H_    0.915094 0.605343 0.264730 0.157729
N1    N     N_2   0.845330 0.551960 0.543750 -0.051171
N2    N     N_2   0.154690 0.448120 0.456210 -0.345710
O1    O     O_R   0.426290 0.668220 0.490680 -0.469799
O2    O     O_R   0.659360 0.703290 0.520190 -0.447356
O3    O     O_R   0.326580 0.473880 0.629020 -0.449114
O4    O     O_R   0.559660 0.508940 0.658530 -0.486469
O5    O     O_R   0.340640 0.296710 0.479810 -0.480490
O6    O     O_R   0.573710 0.331780 0.509320 -0.480363
O7    O     O_R   0.440340 0.491060 0.341470 -0.457161
O8    O     O_R   0.673420 0.526120 0.370980 -0.533200

loop_
_geom_bond_atom_site_label_1
_geom_bond_atom_site_label_2
_ccdc_geom_bond_type
C4    O4    A    
C6    C10   S    
C17   H16   S    
C2    C4    S    
C23   C24   A    
C6    C7    D    
C2    C15   A    
C19   H4    S    
C14   C27   A    
Cu2   O4    S    
C8    N1    D    
Cu2   N1    S    
H13   N2    S    
C3    C5    D    
Cu1   O3    S    
Cu1   Cu2   S    
C1    O2    A    
C26   Cl4   S    
C6    H10   S    
C10   O6    A    
C14   C26   A    
C12   C17   A    
C20   H8    S    
Cu1   O5    S    
C19   H5    S    
C2    C21   A    
C16   C19   S    
C5    H1    S    
C10   O5    A    
C18   H3    S    
C18   H17   S    
C20   H7    S    
Cu1   O7    S    
C8    H12   S    
C15   H15   S    
Cu1   N2    S    
Cu2   O6    S    
Cl2   N1    S    
C11   C14   S    
C24   Cl3   S    
C9    N2    D    
C19   H6    S    
C22   C26   A    
C11   O7    A    
C12   C21   A    
C16   C17   A    
C12   C22   A    
Cu2   O2    S    
C20   H9    S    
C24   C25   A    
C13   C23   A    
C20   C25   S    
Cu1   O1    S    
C5    C7    S    
C21   C25   A    
C22   C23   A    
C13   C27   A    
C7    Cl5   S    
C1    C3    S    
C18   H2    S    
C1    O1    A    
C3    H11   S    
Cu2   O8    S    
C4    O3    A    
C18   C27   S    
C15   C16   A    
C9    Cl1   S    
C8    C9    S    
C11   O8    A    
C13   H14   S    
