data_mof_unit_60124.cif
_audit_creation_date              2013-03-05T15:40:18-0500
_audit_creation_method            fapswitch 2.2
_symmetry_space_group_name_H-M    P1
_symmetry_Int_Tables_number       1
_space_group_crystal_system       triclinic
_cell_length_a                    8.003206
_cell_length_b                    8.804398
_cell_length_c                    12.876854
_cell_angle_alpha                 85.973562
_cell_angle_beta                  89.000808
_cell_angle_gamma                 92.740752
_cell_volume                      903.875233013

loop_
_atom_site_label
_atom_site_type_symbol
_atom_site_description
_atom_site_fract_x
_atom_site_fract_y
_atom_site_fract_z
_atom_type_partial_charge
O1    O     O_R   0.609680 0.261530 0.506880 -0.591425
O2    O     O_R   0.390320 0.738470 0.493120 -0.619811
O3    O     O_R   0.323330 0.288220 0.488910 -0.580712
O4    O     O_R   0.676670 0.711780 0.511090 -0.664770
C1    C     C_R   0.457163 0.207191 0.496375 0.850204
C2    C     C_R   0.543063 0.792960 0.499967 0.923263
O5    O     O_R   0.619510 0.488830 0.661140 -0.646412
O6    O     O_R   0.380490 0.511170 0.338860 -0.583769
O7    O     O_R   0.333160 0.515520 0.643180 -0.658081
O8    O     O_R   0.666840 0.484480 0.356820 -0.605414
C3    C     C_R   0.470530 0.514184 0.698423 0.911631
C4    C     C_R   0.531820 0.487656 0.301428 0.864752
Zn1   Zn    Zn3+2 0.691200 0.482180 0.511990 0.993795
Zn2   Zn    Zn3+2 0.308800 0.517820 0.488010 0.998413
N1    N     N_2   0.054030 0.541640 0.471970 -0.011093
N2    N     N_2   0.945970 0.458360 0.528030 -0.000015
C5    C     C_R   0.552259 0.475144 0.189588 -0.133097
C6    C     C_R   0.458002 0.536444 0.809325 -0.146800
C7    C     C_R   0.300657 0.595644 0.962190 -0.082150
C8    C     C_R   0.670118 0.369336 0.036183 -0.092370
C9    C     C_R   0.322032 0.606776 0.853246 -0.144400
C10   C     C_R   0.665339 0.376310 0.145464 -0.145758
C11   C     C_R   0.592943 0.499407 0.872058 0.117408
C12   C     C_R   0.454208 0.567410 0.124980 0.122838
C13   C     C_R   0.556628 0.454419 0.975908 0.036275
C14   C     C_R   0.427786 0.529636 0.023274 0.036791
C15   C     C_2   0.440840 0.049338 0.476027 -0.286963
C16   C     C_2   0.561925 0.953434 0.507677 -0.336727
C17   C     C_3   0.427101 0.728992 0.153170 -0.418502
C18   C     C_3   0.590935 0.811497 0.182670 -0.718544
H1    H     H_    0.619295 0.785304 0.265823 0.254721
H2    H     H_    0.697968 0.780186 0.133943 0.237712
H3    H     H_    0.577983 0.935908 0.169438 0.314460
H4    H     H_    0.381103 0.801298 0.086965 0.224003
H5    H     H_    0.330712 0.724066 0.215690 0.261016
C19   C     C_3   0.753583 0.598523 0.852885 -0.380317
C20   C     C_3   0.723840 0.764947 0.873301 -0.683983
H6    H     H_    0.630966 0.812430 0.818809 0.302401
H7    H     H_    0.840437 0.837203 0.861872 0.307518
H8    H     H_    0.677273 0.773186 0.954061 0.234353
H9    H     H_    0.854653 0.558260 0.904048 0.229263
H10   H     H_    0.803023 0.596009 0.772792 0.246483
C21   C     C_2   0.786814 0.289911 0.209205 1.015475
O9    O     O_2   0.895645 0.357766 0.255817 -0.530327
O10   O     O_R   0.788269 0.131922 0.206167 -0.844883
H11   H     H_    0.888707 0.087212 0.241606 0.352349
C22   C     C_2   0.239501 0.726305 0.789888 0.961736
O11   O     O_2   0.087772 0.727920 0.788552 -0.679153
O12   O     O_R   0.337510 0.841079 0.733995 -0.809937
H12   H     H_    0.268564 0.923127 0.699251 0.340159
C23   C     C_2   0.147095 0.647966 0.013173 0.889294
O13   O     O_2   0.072580 0.564113 0.080115 -0.581019
O14   O     O_R   0.094544 0.795492 0.990211 -0.789378
H13   H     H_    0.993630 0.818895 0.033922 0.343437
C24   C     C_2   0.788870 0.272599 0.982904 0.922518
O15   O     O_2   0.932533 0.262120 0.012475 -0.576137
O16   O     O_R   0.735978 0.196428 0.896638 -0.791937
H14   H     H_    0.826947 0.135122 0.866684 0.352653
C25   C     C_3   0.018181 0.698387 0.451145 -0.139827
C26   C     C_3   0.028194 0.776069 0.553571 -0.742340
H15   H     H_    0.922068 0.740519 0.607263 0.276551
H16   H     H_    0.141510 0.741985 0.593723 0.269395
H17   H     H_    0.039439 0.900147 0.542201 0.289533
H18   H     H_    0.116875 0.750470 0.397095 0.193138
H19   H     H_    0.902412 0.711158 0.407104 0.196292
C27   C     C_3   0.989193 0.404920 0.633665 -0.138352
C28   C     C_3   0.070836 0.251238 0.643511 -0.691052
H20   H     H_    0.071125 0.197607 0.569262 0.329624
H21   H     H_    0.199987 0.262877 0.672192 0.232773
H22   H     H_    0.001259 0.171370 0.701364 0.235099
H23   H     H_    0.053525 0.494574 0.675361 0.177488
H24   H     H_    0.871876 0.383339 0.678875 0.199554
C29   C     C_2   0.309531 0.014344 0.399758 0.945420
O17   O     O_2   0.170116 0.063380 0.408006 -0.614313
O18   O     O_R   0.352135 0.946715 0.310006 -0.833973
H25   H     H_    0.259500 0.952844 0.257256 0.337782
C30   C     C_2   0.719871 0.004156 0.554910 0.996136
O19   O     O_2   0.739703 0.983282 0.648462 -0.604037
O20   O     O_R   0.845871 0.077534 0.491308 -0.764013
H26   H     H_    0.816020 0.084689 0.415216 0.338084

loop_
_geom_bond_atom_site_label_1
_geom_bond_atom_site_label_2
_geom_bond_distance
_ccdc_geom_bond_type
C24   O15   1.223091 D    
C3    C6    1.457409 S    
C6    C9    1.406994 A    
C29   O17   1.221059 D    
C19   H10   1.100247 S    
O7    Zn2   2.009754 S    
C22   O12   1.398847 S    
O14   H13   1.013841 S    
O5    C3    1.312430 A    
C25   H18   1.104519 S    
C17   C18   1.535002 S    
C26   H17   1.091158 S    
O1    C1    1.302347 A    
C19   C20   1.535591 S    
C7    C9    1.406271 A    
C12   C14   1.390906 A    
C20   H8    1.106917 S    
C18   H1    1.109059 S    
C8    C13   1.412998 A    
N1    N2    1.284488 D    
C26   H16   1.095630 S    
O4    Zn1   2.029609 S    
C7    C14   1.418410 A    
C12   C17   1.517232 S    
C1    C15   1.432558 S    
C27   H24   1.097685 S    
C27   H23   1.098501 S    
C4    C5    1.459014 S    
C27   C28   1.528785 S    
C25   C26   1.529341 S    
C29   O18   1.381592 S    
C19   H9    1.107794 S    
O2    C2    1.298420 A    
C8    C24   1.495351 S    
C30   O20   1.392694 S    
C2    C16   1.424320 S    
C5    C12   1.398797 A    
C6    C11   1.397250 A    
C22   O11   1.215484 D    
O4    C2    1.318630 A    
C13   C14   1.404969 A    
C30   O19   1.220065 D    
C17   H4    1.106672 S    
C28   H20   1.095676 S    
C26   H15   1.105022 S    
C28   H21   1.106247 S    
O18   H25   1.014977 S    
C20   H6    1.107392 S    
C7    C23   1.490669 S    
C21   O10   1.394887 S    
C10   C21   1.486057 S    
O6    C4    1.326515 A    
C16   C30   1.475871 S    
O7    C3    1.319921 A    
O3    Zn2   2.029611 S    
O8    C4    1.305444 A    
C8    C10   1.412760 A    
C11   C19   1.525361 S    
C24   O16   1.398848 S    
C21   O9    1.222553 D    
O1    Zn1   2.025406 S    
O6    Zn2   2.000457 S    
C18   H3    1.106739 S    
N1    C25   1.430865 S    
O3    C1    1.316238 A    
O8    Zn1   2.009752 S    
C17   H5    1.102423 S    
C5    C10   1.423339 A    
C28   H22   1.110873 S    
C23   O13   1.222429 D    
C20   H7    1.105633 S    
C25   H19   1.100925 S    
C18   H2    1.109780 S    
O16   H14   1.013500 S    
C11   C13   1.389484 A    
O2    Zn2   2.025406 S    
O20   H26   1.010959 S    
O10   H11   1.013493 S    
O5    Zn1   2.000457 S    
N2    C27   1.460618 S    
O12   H12   1.013820 S    
Zn1   N2    2.072094 S    
C15   C16   1.364504 D    
Zn2   N1    2.072092 S    
C23   O14   1.397870 S    
C15   C29   1.487063 S    
C9    C22   1.474485 S    
