data_mof_unit_53914.cif
_audit_creation_date              2012-12-10T20:31:09-0500
_audit_creation_method            fapswitch 2.2
_symmetry_space_group_name_H-M    P1
_symmetry_Int_Tables_number       1
_space_group_crystal_system       triclinic
_cell_length_a                    14.862644
_cell_length_b                    10.719808
_cell_length_c                    9.902421
_cell_angle_alpha                 89.951066
_cell_angle_beta                  90.155063
_cell_angle_gamma                 90.473062
_cell_volume                      1577.64005794

loop_
_atom_site_label
_atom_site_type_symbol
_atom_type_description
_atom_site_fract_x
_atom_site_fract_y
_atom_site_fract_z
_atom_type_partial_charge
C1    C     C_R   0.500277 0.260409 0.499774 0.936452
C2    C     C_R   0.186801 0.380469 0.474355 0.373746
C3    C     C_R   0.231976 0.493019 0.500757 -0.113362
C4    C     C_R   0.327264 0.498108 0.499992 0.971529
C5    C     C_R   0.187162 0.601839 0.533081 -0.322373
C6    C     C_R   0.529067 0.063091 0.611350 0.029055
C7    C     C_R   0.501947 0.128551 0.497270 -0.120599
C8    C     C_R   0.471018 0.066191 0.381793 -0.160598
C9    C     C_R   0.462621 0.937871 0.383206 -0.022382
C10   C     C_R   0.491930 0.872028 0.498256 -0.079282
C11   C     C_R   0.522638 0.935256 0.612103 -0.049017
C12   C     C_R   0.907758 0.603243 0.540730 0.139354
C13   C     C_3   0.481330 0.933671 0.750035 0.158075
C14   C     C_3   0.491528 0.073843 0.750571 0.176808
C15   C     C_R   0.421645 0.483822 0.070498 0.156817
C16   C     C_R   0.495559 0.739513 0.499671 0.882191
C17   C     C_R   0.575866 0.527875 0.072085 -0.120676
C18   C     C_R   0.575849 0.527964 0.928461 -0.086792
C19   C     C_R   0.421913 0.483369 0.928473 0.135404
C20   C     C_3   0.360048 0.373861 0.921692 -0.491513
C21   C     C_3   0.358391 0.375057 0.075253 0.227209
C22   C     C_R   0.672741 0.501134 0.500206 0.874763
C23   C     C_R   0.949616 0.268874 0.448345 -0.030681
C24   C     C_R   0.814827 0.604953 0.540123 -0.278676
C25   C     C_R   0.767829 0.498666 0.501317 -0.040563
C26   C     C_R   0.810558 0.388443 0.467528 -0.244909
C27   C     C_R   0.903941 0.381366 0.475151 0.073807
C28   C     C_R   0.952858 0.491329 0.507931 0.068721
C29   C     C_R   0.409484 0.877601 0.275233 0.141156
C30   C     C_R   0.449521 0.847430 0.151796 -0.117670
C31   C     C_R   0.400398 0.781008 0.055030 -0.100799
C32   C     C_R   0.310560 0.748199 0.078718 -0.017178
C33   C     C_R   0.270130 0.779298 0.201177 -0.109873
C34   C     C_R   0.043577 0.269405 0.447787 -0.179633
C35   C     C_R   0.319582 0.843277 0.299713 -0.129366
C36   C     C_R   0.901535 0.148934 0.423185 0.104781
C37   C     C_R   0.842764 0.098759 0.520664 -0.148126
C38   C     C_R   0.796154 0.987316 0.495286 -0.156339
C39   C     C_R   0.809103 0.923895 0.373749 -0.117219
C40   C     C_R   0.868917 0.971568 0.277645 -0.103954
C41   C     C_R   0.915087 0.083576 0.302100 -0.136915
C42   C     C_R   0.092627 0.378982 0.475739 0.033813
C43   C     C_R   0.046629 0.490378 0.506981 0.000516
C44   C     C_R   0.094459 0.601631 0.536899 0.129107
C45   C     C_R   0.049165 0.711209 0.569910 -0.178729
C46   C     C_R   0.955988 0.711783 0.572701 -0.212783
Cl1   Cl    Cl    0.364972 0.887044 0.746476 -0.663866
Cl2   Cl    Cl    0.574037 0.128986 0.868009 -0.653853
Cl3   Cl    Cl    0.250678 0.418014 0.138457 -0.591240
Cl4   Cl    Cl    0.249460 0.243097 0.443577 -0.634345
H1    H     H_    0.778838 0.689089 0.566803 0.126158
H2    H     H_    0.077676 0.182855 0.426308 0.206222
H3    H     H_    0.224948 0.686603 0.555091 0.178420
H4    H     H_    0.085840 0.796337 0.593376 0.170582
H5    H     H_    0.921670 0.797231 0.598588 0.163829
H6    H     H_    0.446311 0.117434 0.294947 0.188385
H7    H     H_    0.519324 0.871192 0.132766 0.143229
H8    H     H_    0.432748 0.751977 0.962982 0.160517
H9    H     H_    0.272905 0.696712 0.003120 0.170777
H10   H     H_    0.200988 0.752397 0.220466 0.157690
H11   H     H_    0.288309 0.865154 0.395411 0.162756
H12   H     H_    0.523612 0.884300 0.825400 0.139742
H13   H     H_    0.832448 0.146658 0.615568 0.156678
H14   H     H_    0.750173 0.949950 0.569964 0.144543
H15   H     H_    0.773049 0.837613 0.354217 0.130637
H16   H     H_    0.879191 0.922010 0.183839 0.139836
H17   H     H_    0.960572 0.120071 0.226179 0.151390
H18   H     H_    0.426833 0.124659 0.753294 0.168208
H19   H     H_    0.637570 0.548693 0.125830 0.158111
H20   H     H_    0.637539 0.548837 0.875152 0.154337
H21   H     H_    0.294948 0.397483 0.872785 0.239835
H22   H     H_    0.393392 0.290503 0.880065 0.206771
H23   H     H_    0.769890 0.309170 0.436503 0.155666
H24   H     H_    0.387865 0.290863 0.123157 0.150256
N1    N     N_R   0.499390 0.499140 0.142800 -0.125177
N2    N     N_R   0.499390 0.499180 0.857150 -0.093389
O1    O     O_R   0.500010 0.316790 0.614690 -0.595973
O2    O     O_R   0.500000 0.316760 0.385350 -0.620696
O3    O     O_R   0.367850 0.499990 0.614680 -0.617962
O4    O     O_R   0.367840 0.499950 0.385340 -0.566437
O5    O     O_R   0.500000 0.683240 0.614650 -0.603572
O6    O     O_R   0.499990 0.683210 0.385310 -0.631075
O7    O     O_R   0.632160 0.500050 0.614660 -0.617745
O8    O     O_R   0.632150 0.500010 0.385320 -0.630407
Zn1   Zn    Zn3+2 0.500010 0.500020 0.653130 0.992641
Zn2   Zn    Zn3+2 0.499990 0.499980 0.346870 0.985227

loop_
_geom_bond_atom_site_label_1
_geom_bond_atom_site_label_2
_ccdc_geom_bond_type
C18   H20   S    
C15   N1    A    
C17   H19   S    
C1    O1    A    
C19   C20   S    
C34   C42   A    
C8    H6    S    
C21   Cl3   S    
C7    C8    A    
C41   H17   S    
C45   C46   A    
C15   C19   A    
C26   C27   A    
C29   C30   A    
C12   C28   A    
C31   H8    S    
C5    H3    S    
C36   C37   A    
O8    Zn2   S    
C4    O4    A    
C30   C31   A    
C30   H7    S    
C26   H23   S    
O4    Zn2   S    
C2    Cl4   S    
C13   H12   S    
C8    C9    A    
C22   C25   S    
C46   H5    S    
C20   H21   S    
C23   C27   A    
C9    C10   A    
C9    C29   S    
O2    Zn2   S    
C24   H1    S    
O1    Zn1   S    
C40   H16   S    
C13   C14   S    
C1    O2    A    
C39   H15   S    
C36   C41   A    
C37   H13   S    
C38   H14   S    
C24   C25   A    
C4    O3    A    
C12   C46   A    
C6    C11   A    
C13   Cl1   S    
C14   Cl2   S    
C25   C26   A    
O6    Zn2   S    
C21   H24   S    
C22   O8    A    
C43   C44   A    
C37   C38   A    
C6    C14   S    
N1    Zn2   S    
C31   C32   A    
C23   C34   A    
C16   O6    A    
C17   C18   A    
C35   H11   S    
C40   C41   A    
O7    Zn1   S    
C5    C44   A    
C45   H4    S    
C33   H10   S    
C42   C43   A    
C3    C4    S    
O3    Zn1   S    
C44   C45   A    
C12   C24   A    
C19   N2    A    
C18   N2    A    
C1    C7    S    
C3    C5    A    
C6    C7    A    
C29   C35   A    
C28   C43   A    
C34   H2    S    
C32   C33   A    
C2    C3    A    
C10   C16   S    
C22   O7    A    
C11   C13   S    
C38   C39   A    
C2    C42   A    
C16   O5    A    
C33   C35   A    
C10   C11   A    
C39   C40   A    
C15   C21   S    
C20   C21   S    
C23   C36   S    
C27   C28   A    
C17   N1    A    
C14   H18   S    
C20   H22   S    
C32   H9    S    
N2    Zn1   S    
O5    Zn1   S    
