data_mof_unit_5354.cif
_audit_creation_date              2012-12-10T17:28:31-0500
_audit_creation_method            fapswitch 2.2
_symmetry_space_group_name_H-M    P1
_symmetry_Int_Tables_number       1
_space_group_crystal_system       triclinic
_cell_length_a                    10.404938
_cell_length_b                    12.028867
_cell_length_c                    12.803098
_cell_angle_alpha                 94.202473
_cell_angle_beta                  90.592598
_cell_angle_gamma                 86.212925
_cell_volume                      1594.60834132

loop_
_atom_site_label
_atom_site_type_symbol
_atom_type_description
_atom_site_fract_x
_atom_site_fract_y
_atom_site_fract_z
_atom_type_partial_charge
C1    C     C_R   0.497444 0.522515 0.700418 0.822647
C2    C     C_R   0.435227 0.540287 0.131472 -0.284710
C3    C     C_R   0.539123 0.456885 0.974803 0.186302
C4    C     C_R   0.451862 0.538605 0.024797 0.192479
C5    C     C_R   0.432281 0.945867 0.373084 -0.303901
C6    C     C_R   0.577873 0.052900 0.621900 -0.321055
C7    C     C_R   0.434907 0.831740 0.388432 -0.086536
C8    C     C_R   0.575006 0.166742 0.607604 -0.116691
C9    C     C_R   0.514943 0.864426 0.561516 0.612198
C10   C     C_R   0.472042 0.138393 0.442188 0.631658
C11   C     C_R   0.523135 0.979435 0.546178 -0.059104
C12   C     C_R   0.501070 0.477179 0.299643 0.912532
C13   C     C_R   0.475301 0.021444 0.452679 -0.072988
C14   C     C_R   0.737030 0.503640 0.523722 0.884344
C15   C     C_R   0.263188 0.503584 0.523436 0.879248
C16   C     C_R   0.882681 0.321887 0.635663 -0.138070
C17   C     C_R   0.117939 0.717486 0.604131 -0.149104
C18   C     C_R   0.956735 0.229018 0.666333 -0.152649
C19   C     C_R   0.043336 0.817525 0.621189 -0.175427
C20   C     C_R   0.090200 0.228733 0.666137 -0.166157
C21   C     C_R   0.910125 0.816756 0.622952 -0.132967
C22   C     C_R   0.149787 0.321430 0.635572 -0.169007
C23   C     C_R   0.504666 0.461903 0.188127 -0.051568
C24   C     C_R   0.851742 0.715991 0.607082 -0.126346
C25   C     C_R   0.076339 0.414237 0.598755 0.087659
C26   C     C_R   0.925062 0.614280 0.583883 0.072012
C27   C     C_R   0.940819 0.414216 0.598595 0.096848
C28   C     C_R   0.060326 0.614657 0.583259 0.102171
C29   C     C_R   0.132877 0.510732 0.568123 -0.260669
C30   C     C_R   0.868168 0.510545 0.568168 -0.264246
C31   C     C_3   0.283227 0.193512 0.363454 -0.269140
C32   C     C_3   0.453605 0.854992 0.730648 -0.343648
C33   C     C_R   0.489404 0.535861 0.811834 -0.008252
C34   C     C_R   0.383385 0.617681 0.967484 -0.221094
C35   C     C_R   0.604119 0.375290 0.031538 -0.224776
C36   C     C_R   0.400673 0.614956 0.860269 -0.218572
C37   C     C_R   0.586173 0.377410 0.138722 -0.177004
C38   C     C_R   0.559069 0.457656 0.868684 -0.280703
H1    H     H_    0.852074 0.893732 0.640838 0.146655
H2    H     H_    0.750211 0.717722 0.620796 0.215589
H3    H     H_    0.370779 0.604189 0.171037 0.142076
H4    H     H_    0.626056 0.395495 0.829541 0.135041
H5    H     H_    0.640103 0.316888 0.183502 0.165732
H6    H     H_    0.341087 0.670820 0.814887 0.138483
H7    H     H_    0.314775 0.679309 0.005003 0.139796
H8    H     H_    0.669949 0.311672 0.993499 0.139674
H9    H     H_    0.611244 0.222620 0.669015 0.148078
H10   H     H_    0.403473 0.774654 0.325705 0.163257
H11   H     H_    0.248969 0.212638 0.445335 0.163255
H12   H     H_    0.147687 0.158402 0.693874 0.131394
H13   H     H_    0.241067 0.116109 0.330501 0.144220
H14   H     H_    0.245063 0.262799 0.316959 0.194252
H15   H     H_    0.484985 0.823564 0.806680 0.204743
H16   H     H_    0.362093 0.818190 0.707156 0.150221
H17   H     H_    0.435502 0.946831 0.744178 0.149942
H18   H     H_    0.399657 0.973646 0.298245 0.188216
H19   H     H_    0.621614 0.023338 0.692676 0.186764
H20   H     H_    0.780700 0.323713 0.648682 0.146061
H21   H     H_    0.220052 0.721704 0.614590 0.154418
H22   H     H_    0.910339 0.159074 0.694487 0.128443
H23   H     H_    0.089237 0.895192 0.637486 0.129076
H24   H     H_    0.252633 0.321409 0.647557 0.171322
N1    N     N_R   0.523130 0.207800 0.519340 -0.134236
N2    N     N_R   0.476870 0.792200 0.480660 -0.137461
O1    O     O_R   0.506170 0.421700 0.658830 -0.660403
O2    O     O_3   0.551031 0.823584 0.656218 -0.625760
O3    O     O_R   0.493830 0.578300 0.341170 -0.625892
O4    O     O_R   0.491330 0.609310 0.646410 -0.590957
O5    O     O_R   0.508670 0.390690 0.353590 -0.553046
O6    O     O_R   0.690650 0.406190 0.506220 -0.615420
O7    O     O_R   0.309350 0.593810 0.493780 -0.622380
O8    O     O_R   0.675800 0.593810 0.493800 -0.604731
O9    O     O_R   0.324200 0.406190 0.506200 -0.619079
O10   O     O_3   0.418863 0.183836 0.354285 -0.603378
Zn1   Zn    Zn3+2 0.509910 0.374730 0.508290 0.953403
Zn2   Zn    Zn3+2 0.490090 0.625270 0.491710 0.956919

loop_
_geom_bond_atom_site_label_1
_geom_bond_atom_site_label_2
_ccdc_geom_bond_type
C12   O5    A    
C9    N2    A    
C11   C13   A    
C5    H18   S    
C10   N1    A    
C31   H14   S    
O8    Zn2   S    
C33   C36   A    
C1    C33   S    
C12   C23   S    
C28   C29   A    
C35   C37   A    
C24   C26   A    
C38   H4    S    
O7    Zn2   S    
C2    H3    S    
C1    O4    A    
C18   C20   A    
C9    O2    S    
C20   H12   S    
C17   C19   A    
C3    C38   A    
C22   C25   A    
C1    O1    A    
C32   H17   S    
C5    C13   A    
C16   C27   A    
C27   C30   A    
C14   O6    A    
C6    H19   S    
C31   H11   S    
C32   H16   S    
C15   C29   S    
C25   C29   A    
C12   O3    A    
C4    C34   A    
C6    C11   A    
C5    C7    A    
C31   O10   S    
C6    C8    A    
C23   C37   A    
C37   H5    S    
C2    C4    A    
C22   H24   S    
C21   H1    S    
C3    C35   A    
N2    Zn2   S    
C34   H7    S    
C16   H20   S    
C9    C11   A    
C17   H21   S    
C18   H22   S    
C15   O9    A    
C20   C22   A    
C26   C30   A    
C36   H6    S    
C25   C27   A    
O9    Zn1   S    
C3    C4    A    
C32   H15   S    
O6    Zn1   S    
C32   O2    S    
C19   C21   A    
C17   C28   A    
C14   O8    A    
C31   H13   S    
C10   C13   A    
O4    Zn2   S    
C15   O7    A    
C26   C28   A    
C33   C38   A    
O1    Zn1   S    
C7    H10   S    
C8    H9    S    
C14   C30   S    
C10   O10   S    
N1    Zn1   S    
C19   H23   S    
C24   H2    S    
O5    Zn1   S    
C34   C36   A    
C7    N2    A    
C8    N1    A    
C16   C18   A    
C21   C24   A    
C2    C23   A    
O3    Zn2   S    
C35   H8    S    
