data_mof_unit_18876.cif
_audit_creation_date              2013-03-05T16:06:55-0500
_audit_creation_method            fapswitch 2.2
_symmetry_space_group_name_H-M    P1
_symmetry_Int_Tables_number       1
_space_group_crystal_system       triclinic
_cell_length_a                    10.833144
_cell_length_b                    9.515329
_cell_length_c                    10.86876
_cell_angle_alpha                 89.999284
_cell_angle_beta                  90.152931
_cell_angle_gamma                 89.999714
_cell_volume                      1120.35788972

loop_
_atom_site_label
_atom_site_type_symbol
_atom_site_description
_atom_site_fract_x
_atom_site_fract_y
_atom_site_fract_z
_atom_type_partial_charge
O1    O     O_R   0.319640 0.618740 0.499990 -0.589638
O2    O     O_R   0.680360 0.618740 0.500010 -0.589588
O3    O     O_R   0.319620 0.381170 0.499990 -0.595482
O4    O     O_R   0.680380 0.381170 0.500010 -0.595457
C1    C     C_R   0.262053 0.499967 0.499863 0.805775
C2    C     C_R   0.737947 0.499967 0.500138 0.805863
O5    O     O_R   0.499990 0.618810 0.319660 -0.566463
O6    O     O_R   0.500010 0.618810 0.680340 -0.566473
O7    O     O_R   0.499960 0.381240 0.319650 -0.589200
O8    O     O_R   0.500040 0.381240 0.680350 -0.589256
C3    C     C_R   0.498961 0.499867 0.262606 0.833290
C4    C     C_R   0.501038 0.499866 0.737394 0.833434
Cu1   Cu    Cu3+1 0.500000 0.640660 0.500000 0.989365
Cu2   Cu    Cu3+1 0.500000 0.359340 0.500000 0.968426
C5    C     C_R   0.497600 0.621530 0.061993 0.004603
C6    C     C_R   0.502558 0.621526 0.938004 0.004677
C7    C     C_R   0.497986 0.498184 0.130031 -0.079958
C8    C     C_R   0.501994 0.498180 0.869969 -0.079882
C9    C     C_R   0.499179 0.370012 0.064530 -0.157267
C10   C     C_R   0.500604 0.370011 0.935472 -0.157324
H1    H     H_    0.499040 0.270065 0.112229 0.198403
H2    H     H_    0.500592 0.270063 0.887774 0.198196
C11   C     C_3   0.503384 0.778506 0.929029 0.114111
C12   C     C_3   0.497084 0.778510 0.070973 0.114223
H3    H     H_    0.421136 0.821655 0.880531 0.133516
H4    H     H_    0.579418 0.821431 0.119480 0.133538
C13   C     C_R   0.063851 0.372281 0.499892 -0.163206
C14   C     C_R   0.936150 0.372281 0.500096 -0.163197
H5    H     H_    0.111879 0.272424 0.499804 0.154624
H6    H     H_    0.888123 0.272424 0.500171 0.154642
C15   C     C_R   0.871786 0.499996 0.500173 -0.022166
C16   C     C_R   0.128214 0.499996 0.499830 -0.022173
C17   C     C_R   0.936144 0.627722 0.500134 -0.145030
C18   C     C_R   0.063855 0.627723 0.499886 -0.145135
H7    H     H_    0.888104 0.727574 0.500259 0.155665
H8    H     H_    0.111894 0.727574 0.499775 0.155639
C19   C     C_R   0.414373 0.074421 0.433522 0.005223
C20   C     C_R   0.585626 0.074418 0.566479 0.004982
H9    H     H_    0.345900 0.130436 0.380036 0.148222
H10   H     H_    0.654099 0.130431 0.619966 0.148258
C21   C     C_R   0.414081 0.925608 0.433964 0.007356
C22   C     C_R   0.585917 0.925605 0.566037 0.007068
H11   H     H_    0.344971 0.869590 0.381497 0.180038
H12   H     H_    0.655029 0.869586 0.618501 0.180123
N1    N     N_R   0.500000 0.852070 0.500000 -0.189921
N2    N     N_R   0.500000 0.147940 0.500000 -0.180163
N3    N     N_R   0.620243 0.835984 0.884239 0.117019
O9    O     O_R   0.636618 0.971407 0.883753 -0.379907
O10   O     O_R   0.708094 0.754347 0.844661 -0.363153
N4    N     N_R   0.380339 0.836286 0.115764 0.117073
O11   O     O_R   0.364302 0.971757 0.116431 -0.380200
O12   O     O_R   0.292196 0.754844 0.155048 -0.363113

loop_
_geom_bond_atom_site_label_1
_geom_bond_atom_site_label_2
_geom_bond_distance
_ccdc_geom_bond_type
O1    Cu1   1.964968 S    
N4    O12   1.302609 A    
C11   C12   1.544452 S    
C15   C17   1.401142 A    
O6    Cu1   1.971065 S    
C13   H5    1.083301 S    
C21   H11   1.080536 S    
C8    C10   1.412259 A    
C9    C10   1.402824 A    
O6    C4    1.290562 A    
O7    Cu2   1.971224 S    
C1    C16   1.449900 S    
C14   H6    1.083301 S    
N4    O11   1.300728 A    
C19   N2    1.366873 A    
C19   H9    1.081642 S    
C20   H10   1.081644 S    
Cu1   Cu2   2.676852 S    
O5    C3    1.290564 A    
O7    C3    1.287868 A    
C12   N4    1.463571 S    
O2    C2    1.290906 A    
O3    Cu2   1.965090 S    
C22   H12   1.080531 S    
C19   C21   1.416013 A    
O1    C1    1.290909 A    
O8    C4    1.287868 A    
C6    C8    1.387210 A    
C5    C12   1.496914 S    
C9    H1    1.083157 S    
C10   H2    1.083160 S    
C20   C22   1.416012 A    
C6    C11   1.496926 S    
C18   H8    1.083312 S    
C11   H3    1.112559 S    
O4    Cu2   1.965091 S    
C20   N2    1.366871 A    
O4    C2    1.291011 A    
C11   N3    1.463570 S    
C7    C9    1.412256 A    
C5    C6    1.348817 A    
O3    C1    1.291008 A    
O5    Cu1   1.971071 S    
C17   C18   1.383519 A    
Cu1   N1    2.011636 S    
N3    O10   1.302454 A    
O8    Cu2   1.971227 S    
C4    C8    1.441024 S    
C13   C14   1.383402 A    
C5    C7    1.387205 A    
O2    Cu1   1.964965 S    
C21   N1    1.366571 A    
C3    C7    1.441029 S    
C2    C15   1.449898 S    
C17   H7    1.083313 S    
C13   C16   1.401076 A    
C14   C15   1.401074 A    
N3    O9    1.300762 A    
C12   H4    1.112563 S    
Cu2   N2    2.011541 S    
C22   N1    1.366570 A    
C16   C18   1.401141 A    
