data_mof_unit_25719.cif
_audit_creation_date              2013-03-05T15:51:37-0500
_audit_creation_method            fapswitch 2.2
_symmetry_space_group_name_H-M    P1
_symmetry_Int_Tables_number       1
_space_group_crystal_system       triclinic
_cell_length_a                    31.658921
_cell_length_b                    18.263839
_cell_length_c                    25.717258
_cell_angle_alpha                 89.923608
_cell_angle_beta                  144.628686
_cell_angle_gamma                 90.146592
_cell_volume                      8607.84307445

loop_
_atom_site_label
_atom_site_type_symbol
_atom_site_description
_atom_site_fract_x
_atom_site_fract_y
_atom_site_fract_z
_atom_type_partial_charge
Zn1   Zn    Zn3+2 0.000000 0.086750 0.293940 1.011248
Zn2   Zn    Zn3+2 1.000000 0.913250 0.706060 1.014246
Zn3   Zn    Zn3+2 1.000000 0.086750 0.706060 1.015163
Zn4   Zn    Zn3+2 0.000000 0.913250 0.293940 1.024465
Zn5   Zn    Zn3+2 0.500000 0.586750 0.293940 1.019712
Zn6   Zn    Zn3+2 0.500000 0.413250 0.706060 1.015763
Zn7   Zn    Zn3+2 0.500000 0.586750 0.706060 1.013606
Zn8   Zn    Zn3+2 0.500000 0.413250 0.293940 1.008698
Zn9   Zn    Zn3+2 0.913220 0.000000 0.119290 1.050398
Zn10  Zn    Zn3+2 0.086780 1.000000 0.880710 1.061621
Zn11  Zn    Zn3+2 0.413220 0.500000 0.119290 1.059741
Zn12  Zn    Zn3+2 0.586780 0.500000 0.880710 1.053451
Zn13  Zn    Zn3+2 0.086730 1.000000 0.292800 1.083352
Zn14  Zn    Zn3+2 0.913270 1.000000 0.707200 1.065908
Zn15  Zn    Zn3+2 0.586730 0.500000 0.292800 1.077479
Zn16  Zn    Zn3+2 0.413270 0.500000 0.707200 1.075114
O1    O     O_3   0.999990 1.000000 0.249990 -0.503965
O2    O     O_3   0.000010 1.000000 0.750010 -0.507227
O3    O     O_3   0.499990 0.500000 0.249990 -0.507429
O4    O     O_3   0.500010 0.500000 0.750010 -0.506490
O5    O     O_R   0.914560 0.853840 0.195310 -0.637248
O6    O     O_R   0.085440 0.146160 0.804690 -0.621401
O7    O     O_R   0.085440 0.853840 0.804690 -0.638187
O8    O     O_R   0.914560 0.146160 0.195310 -0.617764
O9    O     O_R   0.414560 0.353840 0.195310 -0.632660
O10   O     O_R   0.585440 0.646160 0.804690 -0.639078
O11   O     O_R   0.585440 0.353840 0.804690 -0.619477
O12   O     O_R   0.414560 0.646160 0.195310 -0.628222
O13   O     O_R   0.085440 0.146150 0.366190 -0.618460
O14   O     O_R   0.914560 0.853850 0.633810 -0.627245
O15   O     O_R   0.914560 0.146150 0.633810 -0.621228
O16   O     O_R   0.085440 0.853850 0.366190 -0.629768
O17   O     O_R   0.585440 0.646150 0.366190 -0.627762
O18   O     O_R   0.414560 0.353850 0.633810 -0.615942
O19   O     O_R   0.414560 0.646150 0.633810 -0.633772
O20   O     O_R   0.585440 0.353850 0.366190 -0.626484
O21   O     O_R   0.853820 0.085430 0.073070 -0.644407
O22   O     O_R   0.146180 0.914570 0.926930 -0.593236
O23   O     O_R   0.146180 0.085430 0.926930 -0.631608
O24   O     O_R   0.853820 0.914570 0.073070 -0.596850
O25   O     O_R   0.353820 0.585430 0.073070 -0.631043
O26   O     O_R   0.646180 0.414570 0.926930 -0.639672
O27   O     O_R   0.646180 0.585430 0.926930 -0.598594
O28   O     O_R   0.353820 0.414570 0.073070 -0.602111
O29   O     O_R   0.146150 0.914540 0.365390 -0.603280
O30   O     O_R   0.853850 0.085460 0.634610 -0.604458
O31   O     O_R   0.853850 0.914540 0.634610 -0.613413
O32   O     O_R   0.146150 0.085460 0.365390 -0.610563
O33   O     O_R   0.646150 0.414540 0.365390 -0.607395
O34   O     O_R   0.353850 0.585460 0.634610 -0.607326
O35   O     O_R   0.353850 0.414540 0.634610 -0.606642
O36   O     O_R   0.646150 0.585460 0.365390 -0.600475
O37   O     O_R   0.939240 1.000000 0.071950 -0.608295
O38   O     O_R   0.060760 0.000000 0.928050 -0.600760
O39   O     O_R   0.439240 0.500000 0.071950 -0.598478
O40   O     O_R   0.560760 0.500000 0.928050 -0.606196
O41   O     O_R   0.000020 0.939290 0.367320 -0.634172
O42   O     O_R   0.999980 0.060710 0.632680 -0.644766
O43   O     O_R   0.999980 0.939290 0.632680 -0.637113
O44   O     O_R   0.000020 0.060710 0.367320 -0.648513
O45   O     O_R   0.500020 0.439290 0.367320 -0.646138
O46   O     O_R   0.499980 0.560710 0.632680 -0.634290
O47   O     O_R   0.499980 0.439290 0.632680 -0.646935
O48   O     O_R   0.500020 0.560710 0.367320 -0.635291
O49   O     O_R   0.060680 1.000000 0.193390 -0.604760
O50   O     O_R   0.939320 1.000000 0.806610 -0.618813
O51   O     O_R   0.560680 0.500000 0.193390 -0.615861
O52   O     O_R   0.439320 0.500000 0.806610 -0.617898
C1    C     C_R   0.860224 0.860103 0.110227 0.827318
C2    C     C_R   0.139810 0.139830 0.889842 0.787220
C3    C     C_R   0.139882 0.860154 0.889887 0.802060
C4    C     C_R   0.860148 0.139843 0.110083 0.793184
C5    C     C_R   0.360234 0.360130 0.110188 0.800783
C6    C     C_R   0.639760 0.639878 0.889807 0.808552
C7    C     C_R   0.639845 0.360153 0.889921 0.793502
C8    C     C_R   0.360194 0.639881 0.110146 0.790564
C9    C     C_R   0.139012 0.140607 0.388373 0.885404
C10   C     C_R   0.860171 0.860103 0.609674 0.875116
C11   C     C_R   0.860799 0.140526 0.611293 0.887298
C12   C     C_R   0.140439 0.860486 0.391610 0.869633
C13   C     C_R   0.639770 0.639943 0.390139 0.872072
C14   C     C_R   0.360980 0.359390 0.611593 0.886576
C15   C     C_R   0.359898 0.639679 0.608978 0.872601
C16   C     C_R   0.639094 0.359391 0.388481 0.883727
C17   C     C_R   0.999640 0.998092 0.108191 0.921878
C18   C     C_R   0.000756 0.990207 0.891529 0.895852
C19   C     C_R   0.500156 0.491716 0.108720 0.936333
C20   C     C_R   0.499848 0.509385 0.891024 0.925756
C21   C     C_R   0.999816 0.000099 0.391572 0.801366
C22   C     C_R   0.999993 0.000047 0.608238 0.812128
C23   C     C_R   0.500009 0.499954 0.391763 0.812416
C24   C     C_R   0.500190 0.499904 0.608433 0.803169
C25   C     C_3   0.951213 0.950952 0.433801 -0.110738
C26   C     C_3   0.048137 0.050145 0.565594 -0.175197
C27   C     C_3   0.932837 0.017631 0.450027 -0.120616
C28   C     C_3   0.066614 0.983653 0.549455 -0.112763
C29   C     C_3   0.452001 0.449744 0.434547 -0.171061
C30   C     C_3   0.548676 0.549193 0.566079 -0.111672
C31   C     C_3   0.433357 0.516192 0.450514 -0.110467
C32   C     C_3   0.567217 0.482560 0.550023 -0.125754
C33   C     C_3   0.018413 0.933601 0.535529 -0.084445
C34   C     C_3   0.981106 0.067445 0.463931 -0.158207
C35   C     C_3   0.519079 0.432623 0.536254 -0.157851
C36   C     C_3   0.481429 0.566363 0.464305 -0.083513
H1    H     H_    0.033844 0.878602 0.565720 0.193635
H2    H     H_    0.965748 0.122408 0.433705 0.177401
H3    H     H_    0.534578 0.377701 0.566623 0.176229
H4    H     H_    0.465856 0.621320 0.433967 0.195219
H5    H     H_    0.911400 0.910277 0.378767 0.191450
H6    H     H_    0.087976 0.090806 0.620641 0.173308
H7    H     H_    0.877991 0.031879 0.410099 0.214974
H8    H     H_    0.122018 0.972296 0.589926 0.228116
H9    H     H_    0.412260 0.408980 0.379606 0.175322
H10   H     H_    0.588403 0.589972 0.621001 0.191325
H11   H     H_    0.377920 0.527426 0.409994 0.229740
H12   H     H_    0.622102 0.468462 0.590005 0.215248
C37   C     C_3   0.999920 0.000205 0.550837 0.001184
C38   C     C_3   0.999543 0.000697 0.448634 -0.009970
C39   C     C_3   0.500474 0.499323 0.551381 -0.010081
C40   C     C_3   0.500088 0.499803 0.449168 -0.000763
H13   H     H_    0.098102 0.321304 0.203942 0.212875
H14   H     H_    0.871613 0.716904 0.785490 0.219605
H15   H     H_    0.897011 0.315470 0.795002 0.212902
H16   H     H_    0.147114 0.741301 0.225697 0.226638
H17   H     H_    0.634858 0.776114 0.217566 0.225954
H18   H     H_    0.402966 0.177422 0.796224 0.217105
H19   H     H_    0.352899 0.757637 0.775035 0.219592
H20   H     H_    0.603793 0.185384 0.204955 0.215851
C41   C     C_R   0.249872 0.136262 0.575227 -0.251785
C42   C     C_R   0.774958 0.833647 0.433443 -0.239616
C43   C     C_R   0.752299 0.139493 0.424776 -0.251244
C44   C     C_R   0.215866 0.819836 0.561274 -0.232623
C45   C     C_R   0.726269 0.665473 0.567163 -0.235132
C46   C     C_R   0.250931 0.362813 0.424883 -0.244791
C47   C     C_R   0.284933 0.680238 0.439866 -0.237861
C48   C     C_R   0.747586 0.360418 0.574949 -0.253050
C49   C     C_R   0.303988 0.130373 0.667462 0.304125
C50   C     C_R   0.732057 0.825129 0.345941 0.324714
C51   C     C_R   0.700002 0.135738 0.332944 0.300692
C52   C     C_R   0.255522 0.805759 0.646346 0.347168
C53   C     C_R   0.771367 0.671796 0.655959 0.360391
C54   C     C_R   0.197191 0.368255 0.332715 0.312416
C55   C     C_R   0.245056 0.694002 0.354645 0.329865
C56   C     C_R   0.800123 0.364406 0.666844 0.299559
C57   C     C_R   0.834041 0.714583 0.715292 -0.182344
C58   C     C_R   0.140710 0.317193 0.275760 -0.195743
C59   C     C_R   0.181277 0.734545 0.294035 -0.207118
C60   C     C_R   0.855638 0.312696 0.723442 -0.227560
C61   C     C_R   0.360191 0.181739 0.724378 -0.214094
C62   C     C_R   0.670781 0.780228 0.286954 -0.215928
C63   C     C_R   0.644894 0.187886 0.276443 -0.222805
C64   C     C_R   0.319142 0.764851 0.706949 -0.208383
C65   C     C_R   0.849165 0.755293 0.685846 0.305622
C66   C     C_R   0.137184 0.261071 0.309064 0.328536
C67   C     C_R   0.160193 0.766130 0.319745 0.324867
C68   C     C_R   0.859480 0.257296 0.690102 0.320052
C69   C     C_R   0.363134 0.238548 0.690989 0.322818
C70   C     C_R   0.654137 0.740893 0.315242 0.319878
C71   C     C_R   0.641058 0.243331 0.309758 0.311456
C72   C     C_R   0.340494 0.733263 0.681560 0.309989
C73   C     C_R   0.798792 0.755777 0.592476 0.023122
C74   C     C_R   0.193115 0.253772 0.404153 0.014864
C75   C     C_R   0.206404 0.761592 0.410998 -0.003383
C76   C     C_R   0.805325 0.251963 0.595354 0.006243
C77   C     C_R   0.307100 0.245974 0.595875 0.004620
C78   C     C_R   0.702544 0.742700 0.407829 0.005349
C79   C     C_R   0.694830 0.248264 0.404420 0.008593
C80   C     C_R   0.294435 0.738400 0.590282 0.009315
C81   C     C_R   0.250227 0.193317 0.537995 -0.031991
C82   C     C_R   0.761628 0.792737 0.466118 -0.045235
C83   C     C_R   0.751081 0.195125 0.462039 -0.028800
C84   C     C_R   0.234176 0.786685 0.531502 -0.040182
C85   C     C_R   0.739126 0.706538 0.534004 -0.039455
C86   C     C_R   0.250126 0.306274 0.462051 -0.029039
C87   C     C_R   0.266684 0.713489 0.469735 -0.042534
C88   C     C_R   0.748892 0.304894 0.537697 -0.029798
C89   C     C_R   0.806507 0.801503 0.555856 -0.073077
C90   C     C_R   0.194519 0.197325 0.443782 -0.072714
C91   C     C_R   0.193567 0.801182 0.444654 -0.080486
C92   C     C_R   0.805239 0.197178 0.555931 -0.082198
C93   C     C_R   0.305553 0.302577 0.556211 -0.076420
C94   C     C_R   0.693708 0.698236 0.443941 -0.077448
C95   C     C_R   0.694708 0.302816 0.443805 -0.079046
C96   C     C_R   0.307143 0.698982 0.556434 -0.075079
H21   H     H_    0.207286 0.095235 0.532804 0.163341
H22   H     H_    0.819232 0.872534 0.475429 0.188982
H23   H     H_    0.794099 0.097877 0.466842 0.163382
H24   H     H_    0.170333 0.856672 0.519306 0.192689
H25   H     H_    0.680937 0.627927 0.524740 0.185526
H26   H     H_    0.293658 0.403688 0.467314 0.162578
H27   H     H_    0.330421 0.643404 0.481668 0.195676
H28   H     H_    0.705581 0.401824 0.532846 0.164538
H29   H     H_    0.637626 0.959772 0.963641 0.154677
H30   H     H_    0.329448 0.073205 0.955396 0.160804
H31   H     H_    0.368473 0.965389 0.054668 0.144901
H32   H     H_    0.889100 0.296126 0.985921 0.171200
H33   H     H_    0.171063 0.426338 0.045543 0.160225
H34   H     H_    0.862672 0.539650 0.037652 0.155614
H35   H     H_    0.611150 0.204143 0.014511 0.173712
H36   H     H_    0.131885 0.534731 0.945996 0.146692
C97   C     C_R   0.890551 0.715939 0.101964 -0.070058
C98   C     C_R   0.128889 0.264429 0.946035 -0.124099
C99   C     C_R   0.107431 0.713612 0.891091 -0.094811
C100  C     C_R   0.754431 0.145572 0.086139 -0.160862
C101  C     C_R   0.372399 0.234292 0.056531 -0.069178
C102  C     C_R   0.610194 0.783068 0.900597 -0.080553
C103  C     C_R   0.745681 0.354556 0.914070 -0.161069
C104  C     C_R   0.392708 0.786242 0.108672 -0.111798
C105  C     C_R   0.905400 0.646640 0.096986 -0.075425
C106  C     C_R   0.122578 0.325128 0.972156 -0.083889
C107  C     C_R   0.090968 0.642954 0.891376 -0.081290
C108  C     C_R   0.703628 0.148085 0.075422 -0.130556
C109  C     C_R   0.378664 0.173667 0.030299 -0.063565
C110  C     C_R   0.595330 0.852349 0.905597 -0.076250
C111  C     C_R   0.796562 0.352125 0.924916 -0.132384
C112  C     C_R   0.409203 0.856978 0.108597 -0.085306
C113  C     C_R   0.324597 0.120153 0.975929 -0.150641
C114  C     C_R   0.649136 0.906080 0.959441 -0.118381
C115  C     C_R   0.849600 0.297876 0.977543 -0.094783
C116  C     C_R   0.355602 0.910577 0.054948 -0.121978
C117  C     C_R   0.851185 0.593351 0.041869 -0.121569
C118  C     C_R   0.175974 0.379316 0.025145 -0.137636
C119  C     C_R   0.144690 0.589488 0.945497 -0.122661
C120  C     C_R   0.650588 0.202331 0.022788 -0.091248
C121  C     C_R   0.264208 0.126888 0.947892 -0.153570
C122  C     C_R   0.718034 0.890735 0.008528 -0.140676
C123  C     C_R   0.852149 0.245928 0.019797 -0.119813
C124  C     C_R   0.285240 0.893672 0.001056 -0.127769
C125  C     C_R   0.781993 0.609070 0.991798 -0.138899
C126  C     C_R   0.235905 0.373021 0.052254 -0.154359
C127  C     C_R   0.215070 0.606447 0.999487 -0.130535
C128  C     C_R   0.647952 0.254192 0.980393 -0.118919
C129  C     C_R   0.256740 0.188095 0.973752 0.079594
C130  C     C_R   0.734296 0.820786 0.004052 0.069892
C131  C     C_R   0.801169 0.247325 0.010002 0.061917
C132  C     C_R   0.267319 0.822293 0.000811 0.081597
C133  C     C_R   0.765784 0.679014 0.996365 0.070954
C134  C     C_R   0.243456 0.311724 0.026569 0.080429
C135  C     C_R   0.232905 0.677769 0.999458 0.079357
C136  C     C_R   0.698876 0.252734 0.990096 0.061090
C137  C     C_R   0.820621 0.733332 0.051662 0.060028
C138  C     C_R   0.189086 0.256911 0.972442 0.057926
C139  C     C_R   0.178366 0.732185 0.944718 0.062864
C140  C     C_R   0.753056 0.197890 0.044033 0.078096
C141  C     C_R   0.311439 0.242577 0.028557 0.053234
C142  C     C_R   0.679661 0.766255 0.949387 0.064526
C143  C     C_R   0.746993 0.302171 0.956070 0.078111
C144  C     C_R   0.321816 0.767801 0.055339 0.060859
C145  C     C_R   0.196000 0.195846 0.946083 -0.136454
C146  C     C_R   0.804190 0.803913 0.054400 -0.138890
C147  C     C_R   0.803892 0.195801 0.053768 -0.142382
C148  C     C_R   0.196029 0.804048 0.945987 -0.131700
C149  C     C_R   0.695860 0.695956 0.945872 -0.130750
C150  C     C_R   0.304147 0.304018 0.054142 -0.135861
C151  C     C_R   0.304130 0.695990 0.054125 -0.139741
C152  C     C_R   0.696113 0.304214 0.946264 -0.142964
H37   H     H_    0.934344 0.755618 0.145231 0.199521
H38   H     H_    0.086448 0.223387 0.905397 0.177651
H39   H     H_    0.064055 0.753377 0.848763 0.190703
H40   H     H_    0.794355 0.102041 0.127260 0.118233
H41   H     H_    0.415523 0.274668 0.098545 0.192888
H42   H     H_    0.566859 0.742902 0.858634 0.187219
H43   H     H_    0.705761 0.398091 0.872959 0.117901
H44   H     H_    0.436037 0.746339 0.150532 0.183260
H45   H     H_    0.959114 0.634409 0.135749 0.177154
H46   H     H_    0.076128 0.330037 0.951293 0.173323
H47   H     H_    0.036386 0.629810 0.849808 0.171469
H48   H     H_    0.705374 0.107681 0.107988 0.171516
H49   H     H_    0.425602 0.168303 0.052154 0.177412
H50   H     H_    0.541940 0.864225 0.867867 0.176123
H51   H     H_    0.794879 0.392593 0.892452 0.170714
H52   H     H_    0.463720 0.870086 0.149948 0.169700
H53   H     H_    0.223612 0.083784 0.905850 0.111707
H54   H     H_    0.758319 0.934084 0.050411 0.118203
H55   H     H_    0.894522 0.204950 0.060258 0.172608
H56   H     H_    0.245250 0.937055 0.959319 0.120452
H57   H     H_    0.741485 0.565966 0.949228 0.119629
H58   H     H_    0.276143 0.416481 0.093563 0.109098
H59   H     H_    0.255139 0.563152 0.041501 0.123073
H60   H     H_    0.605565 0.295159 0.939911 0.174464
C153  C     C_R   0.893735 0.896883 0.948211 0.364390
C154  C     C_R   0.141153 0.985915 0.095160 0.390378
C155  C     C_R   0.369439 0.447349 0.912899 0.376860
C156  C     C_R   0.629624 0.558538 0.085133 0.376101
C157  C     C_R   0.831898 0.871085 0.860348 -0.199048
C158  C     C_R   0.195320 0.029923 0.171725 -0.233110
C159  C     C_R   0.302342 0.463598 0.822507 -0.211069
C160  C     C_R   0.696932 0.544210 0.175996 -0.215960
C161  C     C_R   0.824387 0.881224 0.799720 0.373935
C162  C     C_R   0.179040 0.072806 0.198579 0.400770
C163  C     C_R   0.299339 0.509495 0.776300 0.385290
C164  C     C_R   0.700790 0.498789 0.223269 0.381137
C165  C     C_R   0.881412 0.912123 0.828726 -0.180977
C166  C     C_R   0.111978 0.063836 0.156170 -0.187117
C167  C     C_R   0.363877 0.533029 0.817677 -0.162013
C168  C     C_R   0.636726 0.473648 0.182259 -0.162440
C169  C     C_R   0.942978 0.942863 0.915956 -0.023626
C170  C     C_R   0.059543 0.013892 0.083753 -0.058904
C171  C     C_R   0.432385 0.512739 0.907145 -0.037170
C172  C     C_R   0.567707 0.492562 0.092384 -0.040558
C173  C     C_R   0.945616 0.941833 0.973566 -0.007115
C174  C     C_R   0.068957 0.987840 0.042970 -0.008063
C175  C     C_R   0.434534 0.479763 0.958642 -0.026077
C176  C     C_R   0.565191 0.525282 0.040412 -0.027578
C177  C     C_R   0.004569 0.970248 0.950427 -0.089739
C178  C     C_R   0.999878 0.986289 0.052786 -0.098204
C179  C     C_R   0.498573 0.523703 0.946195 -0.085103
C180  C     C_R   0.501397 0.480198 0.053128 -0.088582
H61   H     H_    0.791325 0.839304 0.840456 0.213373
H62   H     H_    0.250057 0.029999 0.210813 0.209858
H63   H     H_    0.252582 0.439925 0.787951 0.210763
H64   H     H_    0.746226 0.568684 0.209952 0.212935
H65   H     H_    0.876933 0.908324 0.782647 0.230493
H66   H     H_    0.101924 0.095541 0.180804 0.215808
H67   H     H_    0.359992 0.568077 0.779922 0.214824
H68   H     H_    0.641595 0.438193 0.220693 0.219185
Cl1   Cl    Cl    0.245065 0.131903 0.291091 -0.553917
Cl2   Cl    Cl    0.746150 0.848646 0.689268 -0.567727
Cl3   Cl    Cl    0.785753 0.477232 0.335943 -0.536733
Cl4   Cl    Cl    0.214852 0.533255 0.664278 -0.531241
Cl5   Cl    Cl    0.910499 0.854162 0.025162 -0.565296
Cl6   Cl    Cl    0.169877 0.916681 0.080711 -0.519145
Cl7   Cl    Cl    0.370556 0.375639 0.960107 -0.585853
Cl8   Cl    Cl    0.627152 0.628403 0.035092 -0.547855
N1    N     N_R   0.302103 0.071901 0.703295 0.224441
O53   O     O_R   0.352304 0.066883 0.789312 -0.355733
O54   O     O_R   0.250216 0.023094 0.650366 -0.411166
N2    N     N_R   0.750374 0.862840 0.316871 0.252186
O55   O     O_R   0.704133 0.865687 0.232092 -0.332957
O56   O     O_R   0.815086 0.890940 0.375425 -0.390951
N3    N     N_R   0.702820 0.078754 0.297137 0.220450
O57   O     O_R   0.654120 0.075291 0.211486 -0.362629
O58   O     O_R   0.754238 0.029806 0.349897 -0.391229
N4    N     N_R   0.231126 0.833556 0.671070 0.238541
O59   O     O_R   0.276285 0.840179 0.755181 -0.344457
O60   O     O_R   0.161954 0.844610 0.609604 -0.407375
N5    N     N_R   0.753641 0.634346 0.685831 0.259446
O61   O     O_R   0.801220 0.629700 0.771021 -0.335059
O62   O     O_R   0.688098 0.609010 0.627810 -0.380997
N6    N     N_R   0.199664 0.426054 0.296971 0.225812
O63   O     O_R   0.149878 0.430584 0.211043 -0.356289
O64   O     O_R   0.251708 0.474696 0.349901 -0.408982
N7    N     N_R   0.269259 0.666062 0.329719 0.238403
O65   O     O_R   0.223902 0.659116 0.245554 -0.333195
O66   O     O_R   0.338422 0.655204 0.391000 -0.411068
N8    N     N_R   0.797149 0.421216 0.702607 0.219862
O67   O     O_R   0.846707 0.425604 0.788483 -0.363389
O68   O     O_R   0.744585 0.468935 0.649529 -0.395894
Cl9   Cl    Cl    0.936234 0.797085 0.773782 -0.697799
Cl10  Cl    Cl    0.058459 0.205602 0.223741 -0.703243
Cl11  Cl    Cl    0.070640 0.800882 0.229574 -0.601088
Cl12  Cl    Cl    0.935655 0.199375 0.775121 -0.680412
Cl13  Cl    Cl    0.441111 0.294938 0.776245 -0.670556
Cl14  Cl    Cl    0.567816 0.697465 0.226441 -0.661925
Cl15  Cl    Cl    0.565521 0.301957 0.224817 -0.679854
Cl16  Cl    Cl    0.429850 0.696892 0.772283 -0.657717

loop_
_geom_bond_atom_site_label_1
_geom_bond_atom_site_label_2
_geom_bond_distance
_ccdc_geom_bond_type
Zn15  O3    1.955144 S    
C41   H21   1.080578 S    
C54   C58   1.391499 A    
C68   Cl12  1.767268 S    
C44   H24   1.077591 S    
N5    O61   1.301631 A    
C45   H25   1.078728 S    
C14   C93   1.450208 S    
C43   C83   1.419595 A    
O26   C7    1.274385 A    
C134  C150  1.411943 A    
C24   C39   1.474606 S    
C166  C170  1.418127 A    
C101  C141  1.414928 A    
O30   C11   1.277431 A    
C26   C37   1.534666 S    
C30   H10   1.110163 S    
C136  C140  1.412243 A    
C170  C174  1.388189 A    
C97   C105  1.393180 A    
C8    C151  1.453010 S    
C123  H55   1.081224 S    
Zn12  O26   1.936093 S    
C176  C179  1.409176 A    
C65   Cl9   1.767135 S    
C59   C67   1.392223 A    
C52   C64   1.388973 A    
C27   C34   1.547078 S    
C53   C57   1.390547 A    
C102  C110  1.393275 A    
C106  H46   1.082705 S    
C130  C146  1.413431 A    
O11   C7    1.275576 A    
C99   H39   1.078575 S    
O34   C15   1.286437 A    
C77   C81   1.416558 A    
H16   C59   1.083457 S    
C22   C37   1.474335 S    
N6    O63   1.301690 A    
Zn1   O44   1.945023 S    
C25   C33   1.547642 S    
Zn2   O43   1.945023 S    
C79   C83   1.417924 A    
C161  C165  1.390635 A    
Zn5   O48   1.945023 S    
C65   C73   1.436705 A    
Zn6   O47   1.945023 S    
C163  C167  1.393806 A    
Zn7   O46   1.946252 S    
O16   C12   1.271480 A    
C58   C66   1.396309 A    
Zn16  O4    1.955146 S    
C107  C119  1.388435 A    
C100  C108  1.393645 A    
Zn1   O13   1.933882 S    
C26   C28   1.545996 S    
C2    C145  1.449745 S    
Zn4   O16   1.938861 S    
C84   C91   1.424353 A    
C48   H28   1.080482 S    
C85   C94   1.422540 A    
H33   C118  1.082501 S    
C135  C151  1.413951 A    
C73   C89   1.419873 A    
C42   C50   1.395790 A    
Zn6   O4    1.947304 S    
C35   H3    1.110122 S    
C46   C86   1.420415 A    
C138  C145  1.412982 A    
C121  H53   1.082343 S    
N6    O64   1.301922 A    
C103  C143  1.417081 A    
C142  C149  1.413817 A    
C127  H59   1.081422 S    
Zn10  O22   1.936093 S    
C128  H60   1.081259 S    
C33   C37   1.535667 S    
O25   C8    1.275382 A    
Zn13  O29   1.933930 S    
C129  C141  1.410653 A    
C157  H61   1.083481 S    
Zn10  O2    1.945744 S    
C125  H57   1.081853 S    
H18   C61   1.083332 S    
C71   C79   1.440059 A    
O29   C12   1.287677 A    
C72   C80   1.436425 A    
C154  C174  1.422722 A    
C31   C39   1.533316 S    
C5    C150  1.449647 S    
C41   C49   1.395007 A    
C108  H48   1.082636 S    
C135  C139  1.411327 A    
H35   C120  1.082629 S    
C44   C84   1.419747 A    
O48   C23   1.274714 A    
C45   C85   1.420623 A    
C114  C122  1.393405 A    
C43   H23   1.080513 S    
C48   C88   1.419597 A    
C111  H51   1.082634 S    
C106  C118  1.390066 A    
C10   C89   1.451657 S    
C132  C144  1.411766 A    
C78   C94   1.421530 A    
Zn16  O35   1.930174 S    
C171  C179  1.416318 A    
C51   N3    1.440876 S    
C27   C37   1.534580 S    
Zn15  O33   1.933930 S    
Zn7   O10   1.931553 S    
C126  H58   1.082340 S    
O33   C16   1.276974 A    
C124  H56   1.081408 S    
O40   C20   1.288983 A    
C98   C138  1.415070 A    
C157  C161  1.384456 A    
C110  H50   1.082670 S    
N1    O54   1.301922 A    
C161  Cl2   1.755145 S    
C50   N2    1.439818 S    
C163  Cl4   1.754449 S    
C164  Cl3   1.754413 S    
C143  C152  1.413307 A    
C47   C55   1.395783 A    
C25   C27   1.548096 S    
C99   C107  1.392775 A    
O28   C5    1.274126 A    
C13   C94   1.450970 S    
C132  C148  1.414433 A    
C169  C177  1.419608 A    
H30   C113  1.082481 S    
C136  C152  1.413895 A    
Zn8   O3    1.944852 S    
C12   C91   1.458291 S    
C53   N5    1.439666 S    
C164  C168  1.394539 A    
H34   C117  1.082760 S    
C153  Cl5   1.758367 S    
C110  C114  1.389397 A    
C69   C77   1.439559 A    
O38   C18   1.269571 A    
N4    O59   1.301550 A    
C67   C75   1.433709 A    
C19   C180  1.477244 S    
O5    C1    1.273524 A    
C63   C71   1.395313 A    
O32   C9    1.278848 A    
C104  C144  1.417374 A    
C159  H63   1.082961 S    
N8    O68   1.300719 A    
C80   C84   1.415713 A    
Zn15  O51   1.943607 S    
C107  H47   1.082769 S    
Zn11  O28   1.930886 S    
C26   C34   1.546504 S    
C78   C82   1.415340 A    
N7    O66   1.300464 A    
C75   C91   1.419111 A    
H32   C115  1.082630 S    
O8    C4    1.275510 A    
C108  C120  1.389827 A    
C162  C166  1.395115 A    
H36   C119  1.082145 S    
C66   C74   1.439413 A    
C72   Cl16  1.768928 S    
N2    O55   1.301635 A    
O50   C18   1.287595 A    
O37   C17   1.272846 A    
C175  C180  1.413128 A    
C60   C68   1.395247 A    
Zn1   O1    1.947303 S    
C122  C130  1.418012 A    
C133  C137  1.410348 A    
Zn2   O14   1.933881 S    
C101  H41   1.080018 S    
C51   C63   1.390261 A    
O9    C5    1.274215 A    
C4    C147  1.453542 S    
O39   C19   1.289713 A    
O36   C13   1.283915 A    
C97   H37   1.080100 S    
C74   C90   1.423755 A    
C43   C51   1.395161 A    
O13   C9    1.278668 A    
H15   C60   1.083411 S    
C118  C126  1.393885 A    
Zn1   O8    1.935527 S    
Zn2   O7    1.935525 S    
C169  C173  1.414414 A    
H13   C58   1.083314 S    
Zn3   O6    1.931553 S    
O18   C14   1.278370 A    
O31   C10   1.285212 A    
O6    C2    1.274685 A    
C165  H65   1.074850 S    
C25   H5    1.110147 S    
C17   C178  1.447459 S    
C168  H68   1.081842 S    
C140  C147  1.413366 A    
C105  C117  1.389198 A    
C32   H12   1.109345 S    
C144  C151  1.415089 A    
C129  C145  1.411978 A    
Zn14  O30   1.933928 S    
C105  H45   1.082669 S    
C158  H62   1.082862 S    
Zn11  O3    1.945744 S    
O41   C21   1.277093 A    
C160  C164  1.391680 A    
C133  C149  1.413148 A    
C102  C142  1.416873 A    
Zn16  O34   1.933928 S    
C31   H11   1.107684 S    
C116  C124  1.393195 A    
Zn8   O20   1.938861 S    
C70   Cl14  1.768756 S    
N5    O62   1.301470 A    
C49   N1    1.442222 S    
C66   Cl10  1.768359 S    
C56   N8    1.440691 S    
C131  C147  1.413898 A    
C76   C92   1.423814 A    
C54   N6    1.442176 S    
C31   C36   1.547607 S    
C101  C109  1.393481 A    
C28   C33   1.547595 S    
Zn8   O9    1.931556 S    
C109  H49   1.082700 S    
C100  C140  1.417073 A    
C119  C127  1.393103 A    
C153  C157  1.394380 A    
C158  C162  1.392851 A    
C82   C89   1.422206 A    
C155  C159  1.397338 A    
O7    C3    1.274988 A    
C156  C160  1.396524 A    
O19   C15   1.270193 A    
C26   H6    1.110179 S    
C162  Cl1   1.754864 S    
Zn6   O18   1.933881 S    
Zn10  O23   1.930884 S    
C52   N4    1.436057 S    
Zn9   O24   1.930886 S    
N3    O57   1.301694 A    
C71   Cl15  1.767667 S    
C46   C54   1.395104 A    
C73   C85   1.414450 A    
C103  C111  1.393627 A    
Zn15  O36   1.930174 S    
O15   C11   1.278537 A    
O42   C22   1.274719 A    
C47   H27   1.077225 S    
C1    C146  1.449972 S    
Zn4   O1    1.944852 S    
C30   C32   1.548034 S    
Zn9   O37   1.948421 S    
O12   C8    1.274517 A    
C3    C148  1.454052 S    
C36   H4    1.110126 S    
Zn11  O39   1.948421 S    
C70   C78   1.438125 A    
C28   C38   1.533300 S    
C62   C70   1.394592 A    
C137  C146  1.414468 A    
C167  C171  1.413800 A    
Zn5   O3    1.947303 S    
Zn13  O1    1.955144 S    
C44   C52   1.396276 A    
C103  H43   1.082158 S    
C141  C150  1.412956 A    
C45   C53   1.396176 A    
C104  H44   1.080031 S    
C121  C129  1.416914 A    
C120  C128  1.393589 A    
C48   C56   1.395095 A    
C130  C142  1.410457 A    
C100  H40   1.082153 S    
C173  C178  1.431989 A    
C42   C82   1.420441 A    
C28   H8    1.107691 S    
C15   C96   1.453725 S    
C76   C88   1.417705 A    
C32   C35   1.547104 S    
C165  C169  1.419047 A    
N1    O53   1.301698 A    
C6    C149  1.449367 S    
H17   C62   1.083324 S    
Zn3   O42   1.946252 S    
C168  C172  1.414727 A    
Zn7   O4    1.944850 S    
O21   C4    1.274494 A    
C117  C125  1.393259 A    
C11   C92   1.453557 S    
C122  H54   1.081836 S    
C115  C123  1.393592 A    
C171  C175  1.404448 A    
C172  C176  1.405137 A    
C87   C96   1.422972 A    
C36   C40   1.535644 S    
C88   C95   1.421059 A    
N7    O65   1.301573 A    
C64   C72   1.392455 A    
Zn2   O2    1.947304 S    
Zn14  O2    1.955146 S    
C69   Cl13  1.768650 S    
C56   C60   1.390093 A    
C30   C39   1.534375 S    
Zn13  O49   1.943607 S    
O44   C21   1.272457 A    
C50   C62   1.390311 A    
C55   C59   1.388083 A    
C102  H42   1.080470 S    
C174  C177  1.417573 A    
Zn12  O4    1.945744 S    
C41   C81   1.420437 A    
C156  Cl8   1.767035 S    
Zn12  O27   1.930884 S    
C111  C115  1.389822 A    
C98   H38   1.079977 S    
N4    O60   1.300464 A    
C99   C139  1.416589 A    
C97   C137  1.416884 A    
Zn3   O2    1.944850 S    
C127  C135  1.418639 A    
H14   C57   1.083377 S    
C166  H66   1.081071 S    
C18   C177  1.463666 S    
C79   C95   1.423990 A    
C80   C96   1.418494 A    
O46   C24   1.277045 A    
O47   C24   1.272521 A    
C34   H2    1.110126 S    
Zn16  O52   1.943610 S    
C67   Cl11  1.761157 S    
C34   C38   1.536557 S    
Zn8   O45   1.946252 S    
C57   C65   1.394125 A    
C172  C180  1.420946 A    
O27   C6    1.274252 A    
C104  C112  1.392823 A    
C49   C61   1.391506 A    
C98   C106  1.393636 A    
C86   C93   1.420564 A    
C131  C143  1.412221 A    
H31   C116  1.082094 S    
C29   C31   1.545974 S    
C75   C87   1.413990 A    
C33   H1    1.110126 S    
H29   C114  1.082762 S    
O24   C1    1.275290 A    
C154  Cl6   1.766964 S    
N2    O56   1.301410 A    
C7    C152  1.453466 S    
C109  C113  1.390015 A    
Zn5   O17   1.933882 S    
O43   C22   1.274742 A    
C47   C87   1.421042 A    
Zn4   O41   1.946252 S    
Zn3   O15   1.938860 S    
H19   C64   1.083415 S    
Zn5   O12   1.935527 S    
H20   C63   1.083415 S    
Zn6   O11   1.935525 S    
C167  H67   1.082412 S    
Zn9   O21   1.936092 S    
Zn14  O50   1.943610 S    
C29   C35   1.546489 S    
N3    O58   1.300843 A    
O35   C14   1.279276 A    
Zn12  O40   1.948419 S    
C170  C178  1.413988 A    
C32   C40   1.534539 S    
Zn9   O1    1.945744 S    
C154  C158  1.397971 A    
O52   C20   1.276431 A    
C159  C163  1.391891 A    
C83   C92   1.421200 A    
C126  C134  1.416919 A    
C25   C38   1.534281 S    
C29   H9    1.110190 S    
C153  C173  1.429977 A    
C81   C90   1.420428 A    
C155  C175  1.422432 A    
O22   C3    1.275443 A    
C156  C176  1.422028 A    
C139  C148  1.415265 A    
Zn7   O19   1.938860 S    
C16   C95   1.453259 S    
C35   C39   1.536520 S    
Zn13  O32   1.930174 S    
C42   H22   1.078747 S    
O49   C17   1.277130 A    
Zn14  O31   1.930174 S    
C74   C86   1.416459 A    
C123  C131  1.416416 A    
C134  C138  1.410686 A    
O51   C19   1.277049 A    
C9    C90   1.450014 S    
C77   C93   1.423938 A    
C46   H26   1.080547 S    
C29   C40   1.534657 S    
C27   H7    1.109485 S    
Zn4   O5    1.931556 S    
N8    O67   1.301693 A    
O17   C13   1.274291 A    
O20   C16   1.278847 A    
C30   C36   1.547637 S    
O10   C6    1.274121 A    
O23   C2    1.273713 A    
C160  H64   1.082955 S    
Zn11  O25   1.936092 S    
Zn10  O38   1.948419 S    
C124  C132  1.418408 A    
C155  Cl7   1.765357 S    
O14   C10   1.273206 A    
C21   C38   1.474576 S    
C68   C76   1.439806 A    
C20   C179  1.475681 S    
C55   N7    1.436080 S    
C113  C121  1.393923 A    
C128  C136  1.416451 A    
C23   C40   1.474290 S    
C61   C69   1.396480 A    
C112  C116  1.388586 A    
C125  C133  1.418106 A    
C112  H52   1.082760 S    
O45   C23   1.274726 A    
