data_mof_unit_67372.cif
_audit_creation_date              2012-12-11T19:28:07-0500
_audit_creation_method            fapswitch 2.2
_symmetry_space_group_name_H-M    P1
_symmetry_Int_Tables_number       1
_space_group_crystal_system       triclinic
_cell_length_a                    8.498342
_cell_length_b                    14.976937
_cell_length_c                    16.195531
_cell_angle_alpha                 110.888311
_cell_angle_beta                  97.823207
_cell_angle_gamma                 81.426935
_cell_volume                      1896.66170816

loop_
_atom_site_label
_atom_site_type_symbol
_atom_type_description
_atom_site_fract_x
_atom_site_fract_y
_atom_site_fract_z
_atom_type_partial_charge
Ba1   Ba    Ba6+2 0.364200 0.465260 0.540900 1.731127
Ba2   Ba    Ba6+2 0.825630 0.534670 0.459090 1.712623
C1    C     C_3   0.184684 0.190933 0.766546 -0.244119
C2    C     C_R   0.900291 0.545321 0.758204 -0.292740
C3    C     C_2   0.485655 0.383184 0.130718 -0.171420
C4    C     C_3   0.660532 0.273422 0.761107 0.255124
C5    C     C_2   0.459887 0.422276 0.216836 0.032887
C6    C     C_2   0.182308 0.486069 0.185895 0.063192
C7    C     C_3   0.197982 0.432741 0.086787 -0.030839
C8    C     C_3   0.367984 0.401432 0.059187 0.168435
C9    C     C_2   0.083974 0.459752 0.017190 -0.114597
C10   C     C_2   0.103324 0.523811 0.978541 0.435298
C11   C     C_R   0.826893 0.569819 0.927729 0.030876
C12   C     C_3   0.130692 0.293875 0.771266 0.271213
C13   C     C_R   0.984011 0.536795 0.905969 -0.087425
C14   C     C_R   0.708066 0.589326 0.866232 -0.080410
C15   C     C_R   0.745761 0.583774 0.783106 0.025706
C16   C     C_3   0.618657 0.243467 0.836797 0.703753
C17   C     C_R   0.020048 0.520185 0.817882 -0.051863
C18   C     C_R   0.357439 0.827828 0.470908 0.052203
C19   C     C_R   0.295256 0.923637 0.478432 0.008037
C20   C     C_R   0.158490 0.112128 0.484667 -0.067503
C21   C     C_R   0.295880 0.067042 0.441106 -0.080977
C22   C     C_R   0.367477 0.977647 0.442145 -0.073341
C23   C     C_3   0.137727 0.732118 0.745290 0.264267
C24   C     C_R   0.087609 0.205466 0.486466 0.088192
C25   C     C_R   0.947883 0.244457 0.529463 -0.201948
C26   C     C_R   0.131100 0.814744 0.542547 0.049399
C27   C     C_R   0.069602 0.909963 0.551111 -0.017019
C28   C     C_3   0.654773 0.206778 0.320244 0.687133
C29   C     C_R   0.150896 0.964667 0.518483 0.037173
C30   C     C_R   0.926866 0.951286 0.589853 0.018298
C31   C     C_R   0.861387 0.042483 0.593390 -0.064653
C32   C     C_R   0.938319 0.098695 0.561572 -0.068841
C33   C     C_R   0.084631 0.059617 0.523490 0.011200
C34   C     C_3   0.101123 0.754382 0.842064 0.315466
C35   C     C_R   0.870668 0.191574 0.564665 -0.034412
C36   C     C_R   0.274365 0.775152 0.503225 -0.216774
C37   C     C_3   0.573236 0.111789 0.283633 0.224705
C38   C     C_3   0.572742 0.819684 0.765271 0.828976
C39   C     C_3   0.740876 0.824908 0.752301 -0.084337
C40   C     C_3   0.088605 0.274617 0.254719 0.758460
C41   C     C_3   0.209214 0.258794 0.187491 -0.358642
C42   C     C_3   0.347637 0.038071 0.218161 0.187922
C43   C     C_3   0.930834 0.166366 0.140122 0.286781
C44   C     C_3   0.680132 0.383247 0.955356 0.237051
C45   C     C_3   0.618270 0.713735 0.249790 0.280774
C46   C     C_3   0.893877 0.095102 0.313355 0.087317
C47   C     C_3   0.600050 0.727753 0.159600 0.253650
C48   C     C_3   0.082313 0.727019 0.284203 0.431995
C49   C     C_3   0.114417 0.812944 0.261636 -0.219816
C50   C     C_2   0.307761 0.480778 0.244971 -0.289013
H1    H     H_    0.071931 0.291462 0.705074 -0.041049
H2    H     H_    0.321901 0.284133 0.223603 0.075097
H3    H     H_    0.161208 0.296963 0.141041 0.039394
H4    H     H_    0.043063 0.326257 0.821673 0.026671
H5    H     H_    0.080233 0.149070 0.748497 0.137325
H6    H     H_    0.125263 0.654612 0.709732 -0.039024
H7    H     H_    0.260375 0.746503 0.745996 0.141439
H8    H     H_    0.189881 0.708738 0.870317 0.103861
H9    H     H_    0.987217 0.729373 0.844209 0.017234
H10   H     H_    0.242059 0.190310 0.832127 0.133923
H11   H     H_    0.738418 0.729370 0.283319 0.118121
H12   H     H_    0.623504 0.065363 0.220443 0.109445
H13   H     H_    0.604328 0.637603 0.238127 0.022723
H14   H     H_    0.652576 0.661806 0.109161 0.043474
H15   H     H_    0.472069 0.741032 0.138234 0.152107
H16   H     H_    0.200432 0.687377 0.295019 -0.028648
H17   H     H_    0.023671 0.754534 0.347164 -0.035000
H18   H     H_    0.220013 0.844649 0.302424 0.024384
H19   H     H_    0.014147 0.870318 0.276385 0.151170
H20   H     H_    0.606733 0.348442 0.770461 0.055301
H21   H     H_    0.137608 0.791742 0.191279 0.230724
H22   H     H_    0.593850 0.335661 0.110883 0.125180
H23   H     H_    0.596715 0.076687 0.334615 0.010386
H24   H     H_    0.588475 0.612377 0.885567 0.189264
H25   H     H_    0.296175 0.516446 0.315472 0.055619
H26   H     H_    0.927426 0.534280 0.691660 0.062967
H27   H     H_    0.990373 0.413694 0.989302 0.047191
H28   H     H_    0.349681 0.098962 0.404133 0.150541
H29   H     H_    0.476998 0.950173 0.410818 0.093553
H30   H     H_    0.748369 0.066438 0.620781 0.161770
H31   H     H_    0.792317 0.270147 0.762762 -0.071110
H32   H     H_    0.861095 0.913586 0.616774 0.124454
H33   H     H_    0.890687 0.313861 0.528929 0.064514
H34   H     H_    0.808559 0.755710 0.749400 -0.046211
H35   H     H_    0.321277 0.701931 0.496746 0.062041
H36   H     H_    0.517876 0.199109 0.809930 0.094689
H37   H     H_    0.602137 0.252550 0.382625 0.031922
H38   H     H_    0.400152 0.979883 0.244315 0.043228
H39   H     H_    0.365111 0.017471 0.146867 0.151404
H40   H     H_    0.218381 0.044603 0.223575 0.048613
H41   H     H_    0.718986 0.774125 0.970211 0.415998
H42   H     H_    0.379474 0.046754 0.854734 0.373192
H43   H     H_    0.807860 0.145080 0.126606 0.130367
H44   H     H_    0.011501 0.107025 0.153556 0.010744
H45   H     H_    0.791839 0.886373 0.805230 0.201655
H46   H     H_    0.960860 0.175722 0.079342 0.079105
H47   H     H_    0.185457 0.889714 0.051118 0.346381
H48   H     H_    0.022261 0.171012 0.925061 0.370183
H49   H     H_    0.632201 0.910242 0.295062 0.323896
H50   H     H_    0.394267 0.588013 0.135970 0.305635
H51   H     H_    0.622163 0.454531 0.994051 0.099178
H52   H     H_    0.755568 0.395212 0.910521 -0.039673
H53   H     H_    0.754063 0.353839 0.003666 0.113678
H54   H     H_    0.871948 0.056003 0.241384 0.087745
H55   H     H_    0.859606 0.057545 0.355001 0.061369
H56   H     H_    0.745306 0.834095 0.688291 0.112888
H57   H     H_    0.024353 0.091162 0.323591 0.066309
H58   H     H_    0.081220 0.352213 0.295385 -0.003912
H59   H     H_    0.270585 0.156462 0.715353 0.140960
H60   H     H_    0.235542 0.181975 0.147307 0.136772
O1    O     O_2   0.428380 0.595300 0.716110 -0.464571
O2    O     O_2   0.687045 0.813708 0.448712 -0.487034
O3    O     O_3   0.500233 0.774132 0.302494 -0.665613
O4    O     O_3   0.649320 0.571650 0.606870 -0.468948
O5    O     O_3   0.067580 0.379340 0.450790 -0.498348
O6    O     O_2   0.850900 0.734750 0.551740 -0.467779
O7    O     O_3   0.037143 0.789893 0.704094 -0.618616
O8    O     O_2   0.842518 0.510867 0.181147 -0.533740
O9    O     O_3   0.982632 0.668010 0.215472 -0.547005
O10   O     O_3   0.202060 0.415880 0.655570 -0.482857
O11   O     O_2   0.355656 0.508495 0.808646 -0.422100
O12   O     O_3   0.142489 0.215666 0.306092 -0.609894
O13   O     O_3   0.518131 0.736006 0.699562 -0.652273
O14   O     O_3   0.263238 0.346794 0.795909 -0.566213
O15   O     O_2   0.338790 0.265210 0.448200 -0.463548
O16   O     O_3   0.612600 0.359140 0.609510 -0.486235
O17   O     O_2   0.559095 0.182217 0.512539 -0.483471
O18   O     O_3   0.407897 0.127374 0.266266 -0.659234
O19   O     O_2   0.513009 0.927255 0.937253 -0.149419
O20   O     O_2   0.445305 0.762332 0.880805 -0.338460
O21   O     O_3   0.740975 0.790434 0.919401 -0.536790
O22   O     O_2   0.504620 0.932344 0.661919 -0.341890
O23   O     O_3   0.596548 0.212311 0.679647 -0.608668
O24   O     O_2   0.282302 0.907998 0.727315 -0.300735
O25   O     O_3   0.483056 0.025180 0.828291 -0.438071
O26   O     O_3   0.933735 0.254215 0.212269 -0.626397
O27   O     O_2   0.138565 0.941689 0.867961 -0.197939
O28   O     O_2   0.945484 0.916766 0.952687 -0.234354
O29   O     O_3   0.243977 0.884328 0.000387 -0.411087
O30   O     O_2   0.722573 0.142105 0.945318 -0.251970
O31   O     O_2   0.806472 0.073960 0.794462 -0.272463
O32   O     O_3   0.944939 0.218418 0.906775 -0.613974
O33   O     O_2   0.848512 0.790764 0.119650 -0.248595
O34   O     O_2   0.761310 0.404660 0.283830 -0.418285
O35   O     O_2   0.588142 0.881786 0.110234 -0.261026
O36   O     O_3   0.731865 0.900773 0.266791 -0.593670
O37   O     O_2   0.388143 0.582261 0.979773 -0.339398
O38   O     O_2   0.161907 0.705363 0.020261 -0.263454
O39   O     O_3   0.289140 0.625957 0.134257 -0.576712
O40   O     O_3   0.560857 0.323050 0.908806 -0.672018
O41   O     O_3   0.824211 0.192670 0.339736 -0.687571
O42   O     O_3   0.540390 0.428270 0.393120 -0.512976
O43   O     O_3   0.987650 0.584040 0.344420 -0.499144
O44   O     O_3   0.623358 0.252188 0.256124 -0.619928
O45   O     O_3   0.122130 0.620580 0.549200 -0.487673
O46   O     O_3   0.577110 0.640790 0.390470 -0.483802
P1    P     P_3+3 0.592580 0.619750 0.703570 1.022664
P2    P     P_3+3 0.156510 0.273300 0.422380 1.038763
P3    P     P_3+3 0.664317 0.237774 0.594140 0.949387
P4    P     P_3+3 0.597130 0.380170 0.296420 1.037223
P5    P     P_3+3 0.533310 0.764060 0.408131 0.953998
P6    P     P_3+3 0.208761 0.452396 0.771404 1.008919
P7    P     P_3+3 0.035605 0.740873 0.587617 0.987380
P8    P     P_3+3 0.996189 0.556658 0.230366 0.954842
S1    S     S_3+6 0.561549 0.826536 0.878156 -0.004074
S2    S     S_3+6 0.455968 0.922119 0.743650 -0.032342
S3    S     S_3+6 0.103747 0.878092 0.915130 0.049045
S4    S     S_3+6 0.775531 0.165380 0.871194 -0.066103
S5    S     S_3+6 0.694417 0.827314 0.162088 -0.097831
S6    S     S_3+6 0.238934 0.611096 0.026995 -0.097621

loop_
_geom_bond_atom_site_label_1
_geom_bond_atom_site_label_2
_ccdc_geom_bond_type
C12   H4    S    
C46   O41   S    
O33   S5    D    
H49   O36   S    
O28   S3    D    
C39   H56   S    
C40   O26   S    
C32   C35   A    
C44   O40   S    
Ba1   O16   S    
Ba2   P4    S    
Ba2   O6    S    
C40   O12   S    
C45   C47   S    
C45   O3    S    
C39   H34   S    
C19   C29   A    
C34   S3    S    
Ba2   O43   S    
Ba1   O1    S    
C35   P3    S    
C26   C27   A    
C48   H17   S    
C5    C50   S    
C32   C33   A    
C27   C30   A    
H41   O21   S    
C43   H46   S    
O21   S1    S    
C45   H11   S    
C16   O40   S    
C46   H55   S    
O43   P8    S    
C42   O18   S    
O37   S6    D    
C44   H53   S    
O32   S4    S    
O36   S5    S    
O10   P6    S    
Ba1   Ba2   S    
C3    H22   S    
C25   H33   S    
Ba1   O10   S    
O16   P3    S    
C38   S1    S    
C13   C17   A    
C2    C17   A    
Ba2   O4    S    
C28   O41   S    
C46   H54   S    
C40   C41   S    
C1    H59   S    
C6    C7    S    
C21   C22   A    
O20   S1    D    
C24   P2    S    
C49   H18   S    
C37   H23   S    
C21   H28   S    
O34   P4    D    
C31   H30   S    
C6    C50   D    
C42   H40   S    
H50   O39   S    
O30   S4    D    
C28   O44   S    
C46   H57   S    
O19   S1    D    
Ba2   O42   S    
O5    P2    S    
O23   P3    S    
C48   O9    S    
C49   H19   S    
C28   H37   S    
O14   P6    S    
C23   O7    S    
C5    P4    S    
Ba2   O5    S    
O35   S5    D    
C48   C49   S    
C16   S4    S    
C30   H32   S    
C4    C16   S    
O38   S6    D    
C37   H12   S    
C47   H14   S    
O8    P8    D    
C49   H21   S    
Ba1   P1    S    
O4    P1    S    
C10   S6    S    
H48   O32   S    
O45   P7    S    
C3    C5    D    
C14   C15   A    
O24   S2    D    
C18   P5    S    
C44   H52   S    
C16   H36   S    
O39   S6    S    
C4    H20   S    
C22   H29   S    
C2    H26   S    
C4    O23   S    
O9    P8    S    
C18   C36   A    
C41   H2    S    
C10   C13   S    
C26   C36   A    
Ba2   O46   S    
O29   S3    S    
C31   C32   A    
C24   C25   A    
O17   P3    D    
Ba1   O5    S    
O1    P1    D    
C7    C9    S    
C42   H39   S    
C9    H27   S    
C26   P7    S    
C2    C15   A    
O46   P5    S    
C41   H3    S    
C38   C39   S    
Ba1   O4    S    
O12   P2    S    
C11   C13   A    
C39   H45   S    
C19   C22   A    
C41   H60   S    
C34   H9    S    
C43   H43   S    
C1    H5    S    
C42   H38   S    
C47   S5    S    
C23   H6    S    
C7    C8    S    
C1    H10   S    
O7    P7    S    
C4    H31   S    
C47   H15   S    
C14   H24   S    
H47   O29   S    
Ba1   P2    S    
Ba1   O15   S    
O31   S4    D    
C34   H8    S    
O42   P4    S    
C9    C10   D    
O13   P1    S    
C37   O18   S    
C1    C12   S    
Ba2   O34   S    
C44   H51   S    
O6    P7    D    
C12   O14   S    
C36   H35   S    
C30   C31   A    
C20   C33   A    
C40   H58   S    
C3    C8    S    
C27   C29   A    
O11   P6    D    
O2    P5    D    
C25   C35   A    
Ba2   O45   S    
C38   O13   S    
C6    P8    S    
C29   C33   A    
Ba1   O45   S    
C43   O26   S    
C28   C37   S    
O27   S3    D    
O22   S2    D    
C17   P6    S    
O3    P5    S    
Ba1   O42   S    
C15   P1    S    
C38   S2    S    
C23   C34   S    
O44   P4    S    
C12   H1    S    
C18   C19   A    
C20   C24   A    
C11   C14   A    
H42   O25   S    
C20   C21   A    
C23   H7    S    
C43   H44   S    
C48   H16   S    
O15   P2    D    
C45   H13   S    
O25   S2    S    
C50   H25   S    
