data_mof_unit_68473.cif
_audit_creation_date              2012-12-11T16:30:36-0500
_audit_creation_method            fapswitch 2.2
_symmetry_space_group_name_H-M    P1
_symmetry_Int_Tables_number       1
_space_group_crystal_system       monoclinic
_cell_length_a                    7.002176
_cell_length_b                    14.039503
_cell_length_c                    16.540588
_cell_angle_alpha                 90.0
_cell_angle_beta                  90.267847
_cell_angle_gamma                 90.0
_cell_volume                      1626.03899043

loop_
_atom_site_label
_atom_site_type_symbol
_atom_type_description
_atom_site_fract_x
_atom_site_fract_y
_atom_site_fract_z
_atom_type_partial_charge
O1    O     O_R   0.611670 0.415650 0.164070 -0.515123
O2    O     O_R   0.388330 0.915650 0.835930 -0.515123
O3    O     O_R   0.940950 0.405490 0.337780 -0.512527
O4    O     O_R   0.059050 0.905490 0.662220 -0.512527
O5    O     O_R   0.111350 0.584350 0.338470 -0.547078
O6    O     O_R   0.888650 0.084350 0.661530 -0.547078
C1    C     C_R   0.772357 0.381271 0.365717 0.754811
C2    C     C_R   0.227643 0.881271 0.634283 0.754811
O7    O     O_R   0.941380 0.404630 0.164680 -0.538151
O8    O     O_R   0.058620 0.904630 0.835320 -0.538151
O9    O     O_R   0.111780 0.583470 0.164130 -0.532825
O10   O     O_R   0.888220 0.083470 0.835870 -0.532825
C3    C     C_R   0.773445 0.375226 0.141742 0.685213
C4    C     C_R   0.226555 0.875226 0.858258 0.685214
O11   O     O_R   0.611240 0.416530 0.338400 -0.551897
O12   O     O_R   0.388760 0.916530 0.661600 -0.551897
O13   O     O_3   0.778020 0.558680 0.251290 -0.378404
O14   O     O_3   0.221980 0.058680 0.748710 -0.378404
V1    V     V_3+5 0.052840 0.489110 0.251260 1.523182
V2    V     V_3+5 0.947160 0.989110 0.748740 1.523182
O15   O     O_R   0.441500 0.594510 0.164760 -0.537818
O16   O     O_R   0.558500 0.094510 0.835240 -0.537818
C5    C     C_R   0.272828 0.619185 0.138059 0.782793
C6    C     C_R   0.727172 0.119185 0.861941 0.782794
O17   O     O_R   0.441080 0.595370 0.337860 -0.532122
O18   O     O_R   0.558920 0.095370 0.662140 -0.532122
C7    C     C_R   0.274226 0.615876 0.367963 0.700041
C8    C     C_R   0.725774 0.115876 0.632037 0.700041
V3    V     V_3+5 0.552850 0.510890 0.251270 1.510594
V4    V     V_3+5 0.447150 0.010890 0.748730 1.510594
O19   O     O_3   0.277800 0.441320 0.251250 -0.351870
O20   O     O_3   0.722200 0.941320 0.748750 -0.351870
C9    C     C_3   0.088263 0.668301 0.489803 -0.581510
C10   C     C_3   0.911737 0.168301 0.510197 -0.581511
H1    H     H_    0.963625 0.691710 0.453445 0.231692
H2    H     H_    0.036374 0.191710 0.546555 0.231692
H3    H     H_    0.068794 0.591177 0.501049 0.181465
H4    H     H_    0.931206 0.091177 0.498951 0.181464
C11   C     C_3   0.093947 0.724246 0.571398 0.527771
C12   C     C_3   0.906053 0.224246 0.428602 0.527771
H5    H     H_    0.153547 0.796883 0.357643 0.030801
H6    H     H_    0.846453 0.296883 0.642357 0.030801
C13   C     C_3   0.261675 0.791973 0.407350 0.225415
C14   C     C_3   0.738324 0.291973 0.592650 0.225415
C15   C     C_3   0.443609 0.677074 0.498325 0.291611
C16   C     C_3   0.556391 0.177074 0.501675 0.291611
C17   C     C_3   0.269560 0.686619 0.438776 -0.151825
C18   C     C_3   0.730440 0.186619 0.561224 -0.151825
H7    H     H_    0.427010 0.609368 0.533289 0.101109
H8    H     H_    0.572990 0.109368 0.466710 0.101108
C19   C     C_3   0.238724 0.809965 0.562851 -0.110777
C20   C     C_3   0.761276 0.309965 0.437149 -0.110777
C21   C     C_3   0.207359 0.862243 0.478498 0.247316
C22   C     C_3   0.792641 0.362243 0.521502 0.247316
C23   C     C_3   0.442496 0.762079 0.559827 0.263042
C24   C     C_3   0.557504 0.262079 0.440173 0.263042
H9    H     H_    0.481087 0.733076 0.620660 0.063402
H10   H     H_    0.518913 0.233076 0.379340 0.063402
H11   H     H_    0.045981 0.540189 0.781205 0.154827
H12   H     H_    0.954017 0.040190 0.218796 0.154827
C25   C     C_R   0.291815 0.943837 0.017385 -0.134593
C26   C     C_R   0.708185 0.443837 0.982615 -0.134592
C27   C     C_R   0.338753 0.982436 0.092123 -0.041151
C28   C     C_R   0.661247 0.482436 0.907877 -0.041151
C29   C     C_R   0.368635 0.922237 0.158285 -0.029859
C30   C     C_R   0.631364 0.422237 0.841715 -0.029860
C31   C     C_R   0.341525 0.823650 0.149618 -0.155623
C32   C     C_R   0.658474 0.323650 0.850381 -0.155623
C33   C     C_R   0.292602 0.782841 0.074006 0.041860
C34   C     C_R   0.707398 0.282841 0.925994 0.041861
C35   C     C_R   0.272946 0.844342 0.006132 0.074515
C36   C     C_R   0.727054 0.344342 0.993868 0.074515
C37   C     C_R   0.265209 0.682745 0.065309 -0.139163
C38   C     C_R   0.734791 0.182745 0.934690 -0.139163
C39   C     C_R   0.221479 0.644040 0.987390 0.016521
C40   C     C_R   0.778521 0.144040 0.012610 0.016521
C41   C     C_R   0.184627 0.707593 0.920941 -0.011463
C42   C     C_R   0.815373 0.207593 0.079059 -0.011463
C43   C     C_R   0.227549 0.807398 0.928863 -0.125868
C44   C     C_R   0.772451 0.307398 0.071137 -0.125868
C45   C     C_R   0.211697 0.542952 0.973855 0.219908
C46   C     C_R   0.788303 0.042952 0.026145 0.219907
C47   C     C_R   0.163026 0.507285 0.896470 0.301551
C48   C     C_R   0.836974 0.007285 0.103530 0.301550
C49   C     C_R   0.102647 0.569558 0.837073 -0.158720
C50   C     C_R   0.897352 0.069558 0.162927 -0.158720
C51   C     C_R   0.104383 0.667581 0.849313 -0.126144
C52   C     C_R   0.895617 0.167581 0.150687 -0.126144
H13   H     H_    0.268603 0.993494 0.968237 0.120711
H14   H     H_    0.731397 0.493494 0.031763 0.120710
H15   H     H_    0.361792 0.778879 0.201848 0.069194
H16   H     H_    0.638207 0.278878 0.798152 0.069194
O21   O     O_3   0.579572 0.829572 0.536467 -0.529773
H17   H     H_    0.637232 0.857605 0.585747 0.345617
O22   O     O_3   0.420428 0.329572 0.463532 -0.529773
H18   H     H_    0.362768 0.357605 0.414253 0.345617
O23   O     O_3   0.439786 0.818562 0.375394 -0.548298
H19   H     H_    0.465095 0.777614 0.328016 0.301443
O24   O     O_3   0.560214 0.318562 0.624606 -0.548298
H20   H     H_    0.534905 0.277614 0.671984 0.301443
O25   O     O_3   0.323398 0.944374 0.476274 -0.617536
H21   H     H_    0.296477 0.979269 0.425233 0.303586
O26   O     O_3   0.676602 0.444374 0.523726 -0.617537
H22   H     H_    0.703522 0.479269 0.574767 0.303586
C53   C     C_1   0.357834 0.084638 0.098787 0.272843
N1    N     N_1   0.373208 0.166485 0.103571 -0.349526
C54   C     C_1   0.642165 0.584638 0.901213 0.272843
N2    N     N_1   0.626791 0.666485 0.896429 -0.349526
C55   C     C_1   0.436814 0.961333 0.233769 0.335101
N3    N     N_1   0.493956 0.994587 0.293119 -0.298651
C56   C     C_1   0.563183 0.461332 0.766231 0.335100
N4    N     N_1   0.506040 0.494586 0.706881 -0.298648
O27   O     O_3   0.257609 0.479892 0.034914 -0.642743
H23   H     H_    0.172524 0.423708 0.030582 0.296972
O28   O     O_3   0.742391 0.979892 0.965086 -0.642743
H24   H     H_    0.827477 0.923708 0.969418 0.296972
O29   O     O_3   0.164834 0.411526 0.877389 -0.645232
H25   H     H_    0.257012 0.378267 0.913049 0.303526
O30   O     O_3   0.835165 0.911526 0.122612 -0.645231
H26   H     H_    0.742988 0.878267 0.086951 0.303526
C57   C     C_1   0.980123 0.719536 0.796080 0.365959
N5    N     N_1   0.873318 0.758389 0.754133 -0.275060
C58   C     C_1   0.019876 0.219536 0.203919 0.365962
N6    N     N_1   0.126682 0.258389 0.245867 -0.275059
O31   O     O_3   0.155477 0.664166 0.634973 -0.663578
H27   H     H_    0.066603 0.609240 0.638390 0.288800
O32   O     O_3   0.844523 0.164166 0.365026 -0.663579
H28   H     H_    0.933393 0.109239 0.361611 0.288800
O33   O     O_3   0.910551 0.757420 0.588674 -0.616311
H29   H     H_    0.826843 0.700881 0.595253 0.305444
O34   O     O_3   0.089449 0.257420 0.411326 -0.616310
H30   H     H_    0.173156 0.200880 0.404747 0.305444
C59   C     C_1   0.007463 0.894033 0.466727 0.233106
N7    N     N_1   0.853364 0.920114 0.454730 -0.223324
C60   C     C_1   0.992537 0.394033 0.533273 0.233106
N8    N     N_1   0.146636 0.420114 0.545269 -0.223323
O35   O     O_3   0.617998 0.675674 0.456602 -0.594998
H31   H     H_    0.667604 0.609535 0.458152 0.297802
O36   O     O_3   0.382001 0.175674 0.543398 -0.594998
H32   H     H_    0.332396 0.109535 0.541848 0.297803

loop_
_geom_bond_atom_site_label_1
_geom_bond_atom_site_label_2
_ccdc_geom_bond_type
C24   O22   S    
C11   C19   S    
C27   C29   A    
O25   H21   S    
C11   O31   S    
C15   C23   S    
O13   V3    S    
C53   N1    T    
C30   C32   A    
O22   H18   S    
O4    C2    A    
V1    O19   S    
C35   C43   A    
O23   H19   S    
C60   N8    T    
O9    V1    S    
C9    C11   S    
C38   C40   A    
C10   C12   S    
C21   O25   S    
C48   C50   A    
C46   O28   S    
O27   H23   S    
O3    C1    A    
C14   O24   S    
C42   C44   A    
O12   V4    S    
O28   H24   S    
C25   C27   A    
O7    V1    S    
C33   C35   A    
O7    C3    A    
C26   C28   A    
C32   H16   S    
O5    C7    A    
C13   C21   S    
O6    C8    A    
C56   N4    T    
O8    V2    S    
C29   C31   A    
C34   C38   A    
C54   N2    T    
C33   C37   A    
O14   V4    S    
C30   C56   S    
C27   C53   S    
O14   V2    S    
C23   O21   S    
C25   C35   A    
C1    O11   A    
C3    C44   S    
C2    O12   A    
V3    O19   S    
H5    C13   S    
C8    C18   S    
H6    C14   S    
C5    C37   S    
C52   C58   S    
C31   H15   S    
C45   C47   A    
C25   H13   S    
O11   V3    S    
C15   C17   S    
O17   V3    S    
C16   C18   S    
C49   C51   A    
C22   O26   S    
C58   N6    T    
C21   C59   S    
O8    C4    A    
C40   C46   A    
C51   C57   S    
H12   C50   S    
C39   C45   A    
C11   O33   S    
C19   C23   S    
C12   C20   S    
C12   O32   S    
O15   V3    S    
C9    H3    S    
C19   C21   S    
C28   C30   A    
H11   C49   S    
C14   C22   S    
O24   H20   S    
C15   H7    S    
O30   H26   S    
O10   V2    S    
C15   O35   S    
C41   C43   A    
C26   C36   A    
O21   H17   S    
C4    C43   S    
O3    V1    S    
C39   C41   A    
C2    C19   S    
C29   C55   S    
C57   N5    T    
C47   C49   A    
C12   O34   S    
O18   V4    S    
C46   C48   A    
O15   C5    A    
O31   H27   S    
C9    C17   S    
O16   C6    A    
O1    C3    A    
C37   C39   A    
O13   V1    S    
O34   H30   S    
C28   C54   S    
O33   H29   S    
V2    O20   S    
C7    C17   S    
O10   C6    A    
C42   C52   A    
O16   V4    S    
C10   H4    S    
C13   O23   S    
C40   C42   A    
C16   C24   S    
C1    C20   S    
O36   H32   S    
O5    V1    S    
O17   C7    A    
O6    V2    S    
O35   H31   S    
C16   H8    S    
O18   C8    A    
O2    V4    S    
C47   O29   S    
C23   H9    S    
C36   C44   A    
C14   C18   S    
O29   H25   S    
V4    O20   S    
C6    C38   S    
O1    V3    S    
C59   N7    T    
C48   O30   S    
C22   C60   S    
C26   H14   S    
O9    C5    A    
C9    H1    S    
C10   H2    S    
C24   H10   S    
C20   C22   S    
C50   C52   A    
O2    C4    A    
O4    V2    S    
C20   C24   S    
C10   C18   S    
C41   C51   A    
C32   C34   A    
C45   O27   S    
O26   H22   S    
C34   C36   A    
C31   C33   A    
C55   N3    T    
C13   C17   S    
O32   H28   S    
C16   O36   S    
