data_mof_unit_11992.cif
_audit_creation_date              2012-12-10T18:06:46-0500
_audit_creation_method            fapswitch 2.2
_symmetry_space_group_name_H-M    P1
_symmetry_Int_Tables_number       1
_space_group_crystal_system       triclinic
_cell_length_a                    12.628159
_cell_length_b                    13.275124
_cell_length_c                    15.285831
_cell_angle_alpha                 83.650147
_cell_angle_beta                  101.187344
_cell_angle_gamma                 96.67762
_cell_volume                      2486.56296106

loop_
_atom_site_label
_atom_site_type_symbol
_atom_type_description
_atom_site_fract_x
_atom_site_fract_y
_atom_site_fract_z
_atom_type_partial_charge
C1    C     C_R   0.443311 0.309105 0.508739 1.019718
C2    C     C_R   0.426485 0.561821 0.087155 -0.041280
C3    C     C_R   0.316305 0.531019 0.052339 -0.215171
C4    C     C_R   0.502471 0.577303 0.029139 0.083000
C5    C     C_R   0.471312 0.545597 0.942126 -0.003726
C6    C     C_R   0.360112 0.538016 0.904609 -0.329373
C7    C     C_R   0.282675 0.529429 0.959361 0.696493
C8    C     C_R   0.608338 0.622389 0.054936 -0.210427
C9    C     C_R   0.688092 0.615816 0.004819 0.136656
C10   C     C_R   0.663558 0.552449 0.932950 -0.010726
C11   C     C_R   0.552755 0.523979 0.896564 0.048880
C12   C     C_R   0.433628 0.512818 0.335176 0.933870
C13   C     C_R   0.744929 0.512881 0.897988 0.064891
C14   C     C_R   0.719394 0.486563 0.808039 0.129850
C15   C     C_R   0.529903 0.468587 0.819755 0.070913
C16   C     C_R   0.725715 0.938680 0.520272 0.582214
C17   C     C_R   0.587732 0.800855 0.482691 -0.424664
C18   C     C_R   0.299539 0.179356 0.450822 0.564894
C19   C     C_R   0.274748 0.089273 0.410086 0.562543
C20   C     C_R   0.353328 0.022346 0.418000 -0.290186
C21   C     C_R   0.454850 0.038199 0.475965 0.013968
C22   C     C_R   0.479223 0.128476 0.519102 -0.157673
C23   C     C_R   0.555194 0.691431 0.488301 0.966891
C24   C     C_R   0.534883 0.969334 0.488726 -0.091927
C25   C     C_R   0.644297 0.000602 0.527006 -0.281821
C26   C     C_R   0.665949 0.087956 0.575407 0.086990
C27   C     C_R   0.580090 0.145442 0.576851 0.621395
C28   C     C_R   0.507273 0.867350 0.471685 0.513315
C29   C     C_R   0.696993 0.839602 0.497024 0.502755
C30   C     C_R   0.404012 0.202261 0.500570 -0.337823
C31   C     C_R   0.146919 0.671758 0.600861 0.079611
C32   C     C_R   0.761713 0.382935 0.391256 0.097010
C33   C     C_R   0.859007 0.372267 0.364338 0.539252
C34   C     C_R   0.566487 0.485366 0.665805 0.858447
C35   C     C_R   0.951436 0.433757 0.395846 0.065188
C36   C     C_R   0.953208 0.484415 0.472813 -0.046710
C37   C     C_R   0.853789 0.500571 0.494622 0.024854
C38   C     C_R   0.049251 0.528837 0.522076 -0.196312
C39   C     C_R   0.047390 0.613539 0.570589 -0.081489
C40   C     C_R   0.946438 0.634373 0.586478 0.644253
C41   C     C_R   0.852489 0.575561 0.551301 -0.167648
C42   C     C_R   0.147956 0.490932 0.524362 0.712157
C43   C     C_R   0.241720 0.639944 0.582894 -0.113670
C44   C     C_R   0.390659 0.523381 0.238477 -0.252544
C45   C     C_R   0.608203 0.478132 0.764854 -0.159105
C46   C     C_R   0.244466 0.497565 0.111489 0.595202
C47   C     C_R   0.283361 0.488872 0.203586 0.509986
C48   C     C_R   0.460268 0.563097 0.180215 -0.322986
H1    H     H_    0.334568 0.961898 0.374151 0.253402
H2    H     H_    0.318619 0.684708 0.600661 0.193671
H3    H     H_    0.779010 0.591427 0.568530 0.230992
H4    H     H_    0.543083 0.586873 0.209238 0.188301
H5    H     H_    0.332508 0.539287 0.833258 0.171681
H6    H     H_    0.628114 0.667798 0.111381 0.160295
N1    N     N_R   0.239390 0.551900 0.544730 -0.167673
N2    N     N_R   0.759950 0.448600 0.455730 -0.155540
O1    O     O_R   0.374950 0.371210 0.521360 -0.511403
O2    O     O_R   0.542050 0.338030 0.492790 -0.628707
O3    O     O_R   0.368720 0.526070 0.390200 -0.549445
O4    O     O_R   0.535820 0.492890 0.361630 -0.635007
O5    O     O_R   0.457950 0.661970 0.507210 -0.563984
O6    O     O_R   0.625050 0.628790 0.478640 -0.592665
O7    O     O_R   0.464180 0.507110 0.638370 -0.629226
O8    O     O_R   0.631280 0.473930 0.609800 -0.616436
Zn1   Zn    Zn3+2 0.388420 0.522150 0.519080 1.043428
Zn2   Zn    Zn3+2 0.611580 0.477850 0.480920 0.943853
F1    F     F_    0.176210 0.513319 0.921752 -0.632199
C49   C     C_3   0.851165 0.487781 0.959924 -0.378796
C50   C     C_3   0.867249 0.374248 0.969936 -0.693800
H7    H     H_    0.788642 0.326790 0.969425 0.237032
H8    H     H_    0.907057 0.354838 0.916431 0.266726
H9    H     H_    0.921721 0.355058 0.034546 0.294506
H10   H     H_    0.922170 0.534147 0.938424 0.244131
H11   H     H_    0.850919 0.505324 0.028591 0.237563
F2    F     F_    0.776590 0.780318 0.494863 -0.607467
C51   C     C_3   0.775176 0.116537 0.633184 -0.325030
C52   C     C_3   0.845335 0.192828 0.581021 -0.711363
H12   H     H_    0.925831 0.210404 0.623551 0.249721
H13   H     H_    0.857319 0.162080 0.519411 0.312379
H14   H     H_    0.806042 0.264457 0.561540 0.231398
H15   H     H_    0.764407 0.150724 0.693544 0.219997
H16   H     H_    0.818231 0.048660 0.660985 0.248132
F3    F     F_    0.832819 0.971731 0.536423 -0.624696
F4    F     F_    0.401450 0.828974 0.456213 -0.665988
F5    F     F_    0.226185 0.249297 0.431580 -0.539350
F6    F     F_    0.177403 0.071078 0.355637 -0.583985
F7    F     F_    0.594300 0.217699 0.635625 -0.713555
C53   C     C_3   0.440302 0.380563 0.805710 -0.335266
C54   C     C_3   0.443628 0.304198 0.888569 -0.803711
H17   H     H_    0.384524 0.237085 0.872613 0.256042
H18   H     H_    0.525947 0.277990 0.909640 0.259064
H19   H     H_    0.421876 0.338165 0.944981 0.262674
H20   H     H_    0.358378 0.405744 0.783355 0.211084
H21   H     H_    0.451870 0.336849 0.750786 0.226641
F8    F     F_    0.936393 0.707010 0.639249 -0.657923
C55   C     C_3   0.156648 0.769719 0.645494 -0.375138
C56   C     C_3   0.118571 0.857864 0.577975 -0.594275
H22   H     H_    0.170067 0.871776 0.525753 0.251999
H23   H     H_    0.032856 0.841549 0.545000 0.322408
H24   H     H_    0.125649 0.928089 0.612823 0.241593
H25   H     H_    0.112763 0.759807 0.702467 0.268361
H26   H     H_    0.242671 0.791296 0.675669 0.179202
F9    F     F_    0.153678 0.392749 0.510654 -0.611713
C57   C     C_3   0.661659 0.327346 0.338420 -0.297971
C58   C     C_3   0.639919 0.369298 0.239593 -0.780248
H27   H     H_    0.554332 0.347182 0.208878 0.238067
H28   H     H_    0.654773 0.453553 0.233168 0.252935
H29   H     H_    0.692586 0.338205 0.201047 0.295735
H30   H     H_    0.672720 0.244927 0.342901 0.213474
H31   H     H_    0.587682 0.330233 0.363201 0.245150
C59   C     C_3   0.033111 0.462483 0.333726 -0.197606
C60   C     C_3   0.047447 0.577469 0.308240 -0.872403
H32   H     H_    0.967606 0.608981 0.292157 0.258251
H33   H     H_    0.099459 0.617371 0.363539 0.267040
H34   H     H_    0.087092 0.593158 0.248690 0.286415
H35   H     H_    0.111781 0.434571 0.363019 0.327243
H36   H     H_    0.006358 0.426035 0.270017 0.280731
F10   F     F_    0.861571 0.308099 0.301405 -0.652235
C61   C     C_3   0.809825 0.468964 0.761318 -0.353461
C62   C     C_3   0.805230 0.359029 0.738757 -0.797322
H37   H     H_    0.886528 0.343233 0.729300 0.239040
H38   H     H_    0.779848 0.304177 0.792843 0.264237
H39   H     H_    0.748021 0.346089 0.675836 0.320738
H40   H     H_    0.806500 0.521981 0.701782 0.207666
H41   H     H_    0.891160 0.489683 0.800567 0.229708
C63   C     C_3   0.790645 0.688714 0.021303 -0.408542
C64   C     C_3   0.852814 0.676305 0.117842 -0.846129
H42   H     H_    0.813076 0.713181 0.162926 0.260051
H43   H     H_    0.856782 0.594989 0.143009 0.260223
H44   H     H_    0.936690 0.713683 0.121246 0.272317
H45   H     H_    0.845375 0.682060 0.974101 0.215195
H46   H     H_    0.767243 0.767880 0.007313 0.221191
F11   F     F_    0.139633 0.463485 0.080687 -0.603520
F12   F     F_    0.219422 0.437516 0.257927 -0.637836

loop_
_geom_bond_atom_site_label_1
_geom_bond_atom_site_label_2
_ccdc_geom_bond_type
O7    Zn1   S    
C63   C64   S    
C55   H26   S    
C28   F4    S    
C17   C29   A    
C35   C36   A    
C4    C8    A    
C19   F6    S    
C42   F9    S    
C60   H33   S    
C56   H22   S    
C52   H12   S    
C58   H28   S    
C26   C27   A    
C17   C23   S    
C31   C43   A    
C36   C37   A    
C38   C42   A    
C3    C7    A    
C5    C6    A    
C49   H11   S    
C31   C55   S    
C18   C19   A    
C50   H8    S    
C1    C30   S    
N1    Zn1   S    
C53   H20   S    
C37   N2    A    
C11   C15   A    
O2    Zn2   S    
C23   O6    A    
C19   C20   A    
C23   O5    A    
C8    C9    A    
C26   C51   S    
C32   C57   S    
C59   H35   S    
C18   C30   A    
C54   H18   S    
C9    C10   A    
C44   C47   A    
C53   C54   S    
O4    Zn2   S    
C33   F10   S    
C21   C22   A    
C12   O3    A    
C57   C58   S    
C56   H23   S    
C62   H38   S    
C14   C45   A    
C52   H13   S    
C58   H29   S    
C53   H21   S    
C18   F5    S    
O6    Zn2   S    
C55   H25   S    
C51   C52   S    
C8    H6    S    
C39   C40   A    
C49   C50   S    
C2    C48   A    
C49   H10   S    
C61   H40   S    
C16   F3    S    
O8    Zn2   S    
C50   H9    S    
C2    C4    A    
C64   H43   S    
C20   H1    S    
C1    O1    A    
C42   N1    A    
C63   H46   S    
C55   C56   S    
C34   O8    A    
C34   C45   S    
C24   C25   A    
C54   H19   S    
C27   F7    S    
C61   H41   S    
C43   N1    A    
C40   C41   A    
C22   C27   A    
C47   F12   S    
C15   C45   A    
C6    H5    S    
C51   H16   S    
C64   H42   S    
C56   H24   S    
C35   C59   S    
C62   H37   S    
C52   H14   S    
C16   C25   A    
C46   C47   A    
C22   C30   A    
C59   C60   S    
C17   C28   A    
C24   C28   A    
O1    Zn1   S    
C4    C5    A    
C10   C13   A    
C51   H15   S    
C61   C62   S    
C62   H39   S    
C43   H2    S    
C5    C11   A    
C6    C7    A    
C29   F2    S    
C41   H3    S    
C58   H27   S    
C3    C46   A    
C9    C63   S    
C59   H36   S    
C32   C33   A    
C36   C38   A    
C2    C3    A    
C25   C26   A    
C64   H44   S    
C12   C44   S    
C1    O2    A    
O3    Zn1   S    
C46   F11   S    
C57   H31   S    
C38   C39   A    
C63   H45   S    
N2    Zn2   S    
C34   O7    A    
C33   C35   A    
C31   C39   A    
C60   H32   S    
C37   C41   A    
C50   H7    S    
C10   C11   A    
C7    F1    S    
C12   O4    A    
O5    Zn1   S    
C48   H4    S    
C20   C21   A    
C16   C29   A    
C14   C61   S    
C21   C24   A    
C57   H30   S    
C40   F8    S    
C54   H17   S    
C13   C14   A    
C32   N2    A    
C60   H34   S    
C44   C48   A    
C15   C53   S    
C13   C49   S    
