data_mof_unit_39908.cif
_audit_creation_date              2012-12-11T15:13:48-0500
_audit_creation_method            fapswitch 2.2
_symmetry_space_group_name_H-M    P1
_symmetry_Int_Tables_number       1
_space_group_crystal_system       triclinic
_cell_length_a                    6.951111
_cell_length_b                    13.552325
_cell_length_c                    20.098039
_cell_angle_alpha                 104.194099
_cell_angle_beta                  90.410185
_cell_angle_gamma                 90.592709
_cell_volume                      1835.31833676

loop_
_atom_site_label
_atom_site_type_symbol
_atom_type_description
_atom_site_fract_x
_atom_site_fract_y
_atom_site_fract_z
_atom_type_partial_charge
O1    O     O_R   0.506780 0.600060 0.449950 -0.540973
O2    O     O_R   0.179840 0.597110 0.589410 -0.545262
O3    O     O_R   0.004570 0.399940 0.550050 -0.538902
C1    C     C_R   0.349046 0.618777 0.616851 0.682466
O4    O     O_R   0.177380 0.612160 0.452890 -0.543553
O5    O     O_R   0.002100 0.415100 0.412560 -0.536843
C2    C     C_R   0.346092 0.637487 0.435560 0.709962
O6    O     O_R   0.509250 0.584900 0.587440 -0.542564
O7    O     O_3   0.337570 0.435330 0.486930 -0.362304
V1    V     V_3+5 0.064650 0.512000 0.502430 1.427602
O8    O     O_R   0.672090 0.402890 0.410590 -0.529938
C3    C     C_R   0.839183 0.384228 0.382131 0.689622
O9    O     O_R   0.674540 0.387840 0.547110 -0.540712
C4    C     C_R   0.843217 0.361087 0.563582 0.695298
V2    V     V_3+5 0.564040 0.488000 0.497570 1.445474
O10   O     O_3   0.840990 0.564670 0.513070 -0.375705
C5    C     C_R   0.876816 0.108007 0.607284 -0.144965
H1    H     H_    0.870903 0.157664 0.513795 0.103439
H2    H     H_    0.894204 0.982384 0.689517 0.119098
H3    H     H_    0.888356 0.028608 0.580264 0.117703
C6    C     C_R   0.851883 0.283774 0.602916 -0.032864
C7    C     C_R   0.845835 0.318132 0.933078 -0.160501
C8    C     C_R   0.835514 0.394593 0.898173 -0.097994
C9    C     C_R   0.839394 0.370818 0.826697 -0.161937
C10   C     C_R   0.853699 0.268604 0.787905 0.078391
C11   C     C_R   0.864541 0.190504 0.824143 0.070262
C12   C     C_R   0.857500 0.241287 0.714532 0.074661
C13   C     C_R   0.872369 0.136916 0.679315 0.140283
C14   C     C_R   0.882881 0.062030 0.716052 -0.211731
C15   C     C_R   0.878986 0.088174 0.787238 -0.202727
C16   C     C_R   0.847195 0.313799 0.674604 -0.217829
C17   C     C_R   0.866807 0.181093 0.569331 -0.159119
C18   C     C_R   0.860444 0.216457 0.896856 -0.078688
H4    H     H_    0.835884 0.394228 0.697304 0.089375
H5    H     H_    0.842253 0.338275 0.988683 0.107470
H6    H     H_    0.830918 0.434424 0.803615 0.101247
H7    H     H_    0.824218 0.473176 0.926755 0.133291
H8    H     H_    0.887495 0.027059 0.813139 0.116292
C19   C     C_3   0.722822 0.179838 0.241586 -0.124049
C20   C     C_3   0.888996 0.202290 0.295400 -0.185564
H9    H     H_    0.909975 0.161467 0.336401 0.112813
H10   H     H_    0.616043 0.116809 0.232812 0.099517
C21   C     C_3   0.845275 0.316779 0.310617 -0.017622
C22   C     C_3   0.683289 0.294326 0.256993 0.264748
C23   C     C_3   0.820756 0.308029 0.200315 -0.218369
C24   C     C_3   0.986874 0.330286 0.254465 -0.143668
C25   C     C_3   0.031852 0.214928 0.238848 -0.100228
C26   C     C_3   0.865322 0.193377 0.185928 -0.050667
H11   H     H_    0.789992 0.351223 0.161191 0.111075
H12   H     H_    0.094491 0.392972 0.260319 0.121934
H13   H     H_    0.177641 0.182106 0.229782 0.122470
C27   C     C_3   0.539660 0.724754 0.731057 -0.177449
C28   C     C_3   0.459285 0.834701 0.749960 -0.176205
H14   H     H_    0.542897 0.905104 0.750374 0.121060
H15   H     H_    0.689927 0.703024 0.716388 0.112531
C29   C     C_3   0.355786 0.811871 0.812439 -0.016952
C30   C     C_3   0.433620 0.703772 0.793069 0.241993
C31   C     C_3   0.253015 0.665183 0.749657 -0.134452
C32   C     C_3   0.173975 0.775364 0.768410 -0.159262
C33   C     C_3   0.277099 0.797684 0.705253 -0.127248
C34   C     C_3   0.356914 0.688573 0.687425 -0.038643
H16   H     H_    0.170810 0.594543 0.749792 0.103833
H17   H     H_    0.023937 0.796694 0.783713 0.112419
H18   H     H_    0.212313 0.836519 0.668029 0.106811
C35   C     C_R   0.341485 0.892882 0.396704 0.220737
H19   H     H_    0.342410 0.837590 0.487876 0.122677
C36   C     C_R   0.354538 0.715575 0.397372 -0.091711
C37   C     C_R   0.377837 0.682451 0.068154 -0.169440
C38   C     C_R   0.386603 0.605589 0.102971 0.253312
C39   C     C_R   0.380607 0.630665 0.174919 -0.186990
C40   C     C_R   0.363196 0.733121 0.213467 0.057581
C41   C     C_R   0.353229 0.810225 0.176761 0.035922
C42   C     C_R   0.357130 0.761271 0.287051 0.010691
C43   C     C_R   0.342553 0.866311 0.323070 0.085813
C44   C     C_R   0.327073 0.940194 0.284490 0.164426
C45   C     C_R   0.335505 0.912045 0.213032 -0.240889
C46   C     C_R   0.361731 0.687578 0.326096 -0.212110
C47   C     C_R   0.346522 0.817038 0.432230 -0.170108
C48   C     C_R   0.360998 0.784058 0.104032 -0.120657
H20   H     H_    0.366247 0.607099 0.303126 0.097265
H21   H     H_    0.386312 0.662840 0.012602 0.135993
H22   H     H_    0.391372 0.568097 0.198791 0.097877
H23   H     H_    0.323203 0.971800 0.186036 0.117407
O11   O     O_R   0.203580 0.914920 0.912610 -0.543096
O12   O     O_R   0.535710 0.887810 0.047120 -0.538099
O13   O     O_R   0.710730 0.084950 0.087430 -0.541331
C49   C     C_R   0.367273 0.861845 0.064424 0.711034
O14   O     O_R   0.533010 0.902850 0.910600 -0.544691
O15   O     O_R   0.708010 0.100090 0.949930 -0.538659
C50   C     C_R   0.363805 0.881267 0.883146 0.706042
O16   O     O_R   0.206300 0.899780 0.050100 -0.539064
O17   O     O_3   0.375170 0.064580 0.013100 -0.372119
V3    V     V_3+5 0.648200 0.988020 0.997570 1.423192
O18   O     O_R   0.038030 0.112330 0.952840 -0.541088
C51   C     C_R   0.869317 0.138682 0.936143 0.686369
O19   O     O_R   0.040730 0.097300 0.089360 -0.545970
C52   C     C_R   0.872890 0.120688 0.116266 0.689561
V4    V     V_3+5 0.148780 0.012220 0.002360 1.419482
O20   O     O_3   0.871930 0.935430 0.986900 -0.370328
N1    N     N_3   0.492132 0.337890 0.267040 -0.670433
H24   H     H_    0.420256 0.316483 0.219765 0.210578
H25   H     H_    0.508884 0.416992 0.278225 0.207726
N2    N     N_3   0.517607 0.652360 0.841810 -0.686599
H26   H     H_    0.557779 0.579864 0.814168 0.220947
H27   H     H_    0.644431 0.691513 0.860966 0.224175
N3    N     N_3   0.287939 0.043989 0.316775 -0.705881
H28   H     H_    0.395477 0.090415 0.304507 0.234865
H29   H     H_    0.157910 0.061138 0.296615 0.233423
N4    N     N_3   0.338024 0.995377 0.438061 -0.668546
H30   H     H_    0.454261 0.036750 0.425576 0.257505
H31   H     H_    0.206660 0.028585 0.431268 0.261751
N5    N     N_3   0.405908 0.502013 0.064292 -0.669333
H32   H     H_    0.278635 0.481234 0.036048 0.228529
H33   H     H_    0.418497 0.453211 0.097085 0.214612

loop_
_geom_bond_atom_site_label_1
_geom_bond_atom_site_label_2
_ccdc_geom_bond_type
C31   H16   S    
C20   C25   S    
C49   O16   A    
C42   C43   A    
C36   C46   A    
C41   C45   A    
C48   C49   S    
O17   V4    S    
C28   H14   S    
C27   C28   S    
C7    H5    S    
C6    C16   A    
C9    H6    S    
C37   H21   S    
C4    C6    S    
C13   C14   A    
C3    C21   S    
C27   C34   S    
N4    H31   S    
O5    C3    A    
C38   N5    S    
C23   C26   S    
N3    H28   S    
O18   V4    S    
V2    O10   S    
C5    H3    S    
C29   C30   S    
C15   H8    S    
O13   C52   A    
O17   V3    S    
O14   V3    S    
O12   V3    S    
C20   C21   S    
C37   C38   A    
O19   V4    S    
C8    C9    A    
C39   C40   A    
O1    V2    S    
O7    V1    S    
V3    O20   S    
C27   H15   S    
C1    O6    A    
C28   C29   S    
C37   C48   A    
C29   C50   S    
C32   C33   S    
O9    C4    A    
O15   V3    S    
C38   C39   A    
C36   C47   A    
O11   C50   A    
H19   C47   S    
C18   C51   S    
C45   H23   S    
N5    H33   S    
N5    H32   S    
C28   C33   S    
C19   H10   S    
O12   C49   A    
C30   N2    S    
C6    C17   A    
C43   C44   A    
C12   C16   A    
C9    C10   A    
C19   C20   S    
C40   C42   A    
C25   H13   S    
C10   C11   A    
C8    H7    S    
C1    C34   S    
C35   C43   A    
C33   C34   S    
O15   C51   A    
O2    C1    A    
C44   C45   A    
C14   C15   A    
C26   C52   S    
O13   V3    S    
C11   C18   A    
C25   C26   S    
C23   H11   S    
O19   C52   A    
N1    H25   S    
C16   H4    S    
N2    H27   S    
C35   N4    S    
O3    C4    A    
C20   H9    S    
O14   C50   A    
C11   C15   A    
O6    V2    S    
O8    V2    S    
O9    V2    S    
C21   C22   S    
C10   C12   A    
H1    C17   S    
O2    V1    S    
N2    H26   S    
C22   C23   S    
O4    C2    A    
C46   H20   S    
C7    C18   A    
C24   C25   S    
C35   C47   A    
O1    C2    A    
C5    C13   A    
O5    V1    S    
O8    C3    A    
C19   C22   S    
C41   C48   A    
C24   H12   S    
C32   H17   S    
C29   C32   S    
C33   H18   S    
O11   V4    S    
C31   C32   S    
O4    V1    S    
O3    V1    S    
V1    O10   S    
N4    H30   S    
C22   N1    S    
C30   C31   S    
N3    H29   S    
C31   C34   S    
N1    H24   S    
O16   V4    S    
O7    V2    S    
O18   C51   A    
C39   H22   S    
C21   C24   S    
C27   C30   S    
C2    C36   S    
C23   C24   S    
C40   C41   A    
C44   N3    S    
V4    O20   S    
C12   C13   A    
C5    C17   A    
C42   C46   A    
C7    C8    A    
C19   C26   S    
H2    C14   S    
