data_mof_unit_49548.cif
_audit_creation_date              2013-03-05T15:48:01-0500
_audit_creation_method            fapswitch 2.2
_symmetry_space_group_name_H-M    P1
_symmetry_Int_Tables_number       1
_space_group_crystal_system       triclinic
_cell_length_a                    10.147914
_cell_length_b                    10.553421
_cell_length_c                    10.529589
_cell_angle_alpha                 89.829337
_cell_angle_beta                  94.199465
_cell_angle_gamma                 81.239026
_cell_volume                      1111.40476075

loop_
_atom_site_label
_atom_site_type_symbol
_atom_site_description
_atom_site_fract_x
_atom_site_fract_y
_atom_site_fract_z
_atom_type_partial_charge
O1    O     O_R   0.568940 0.489500 0.307530 -0.602772
O2    O     O_R   0.431060 0.510500 0.692470 -0.594861
O3    O     O_R   0.348880 0.522990 0.340350 -0.606307
O4    O     O_R   0.651120 0.477010 0.659650 -0.603664
C1    C     C_R   0.445896 0.499760 0.265965 0.921647
C2    C     C_R   0.553940 0.482988 0.734222 0.924027
O5    O     O_R   0.610000 0.297210 0.483560 -0.578777
O6    O     O_R   0.390000 0.702790 0.516440 -0.568590
O7    O     O_R   0.389940 0.330700 0.516390 -0.624186
O8    O     O_R   0.610060 0.669300 0.483610 -0.615432
C3    C     C_R   0.500112 0.257520 0.500135 0.896437
C4    C     C_R   0.499912 0.742395 0.499827 0.930411
Zn1   Zn    Zn3+2 0.646930 0.477640 0.478080 0.983378
Zn2   Zn    Zn3+2 0.353070 0.522360 0.521920 0.985486
C5    C     C_3   0.620881 0.021281 0.477051 0.361216
C6    C     C_3   0.379168 0.978410 0.522644 0.366965
C7    C     C_3   0.532358 0.952435 0.383982 -0.321608
C8    C     C_3   0.467881 0.047082 0.615468 -0.310114
H1    H     H_    0.559272 0.910863 0.290903 0.190911
H2    H     H_    0.440975 0.084808 0.709718 0.175690
C9    C     C_3   0.499117 0.876706 0.499943 -0.186027
C10   C     C_3   0.501003 0.123085 0.499743 -0.184114
C11   C     C_3   0.589189 0.944340 0.591065 0.095343
C12   C     C_3   0.410802 0.055349 0.408213 0.078216
C13   C     C_2   0.420398 0.476284 0.131449 -0.367493
C14   C     C_2   0.578738 0.449904 0.868917 -0.355044
C15   C     C_2   0.505253 0.390791 0.069412 0.155506
C16   C     C_2   0.490294 0.393739 0.931463 0.185759
H3    H     H_    0.667407 0.476431 0.919808 0.138219
H4    H     H_    0.335120 0.534134 0.080124 0.147148
H5    H     H_    0.889418 0.581215 0.579145 0.159657
H6    H     H_    0.110699 0.418426 0.421197 0.163382
N1    N     N_2   0.157310 0.552180 0.551120 -0.180369
N2    N     N_2   0.842690 0.447820 0.448880 -0.176673
C17   C     C_2   0.073427 0.489053 0.489785 -0.101855
C18   C     C_2   0.926651 0.510690 0.510449 -0.087424
H7    H     H_    0.881494 0.381418 0.384558 0.188511
H8    H     H_    0.118475 0.618571 0.615431 0.198292
N3    N     N_R   0.754480 0.046183 0.453475 0.230357
O9    O     O_R   0.804145 0.014987 0.345491 -0.374961
O10   O     O_R   0.826589 0.095126 0.542129 -0.338620
N4    N     N_R   0.247337 0.952034 0.551179 0.228920
O11   O     O_R   0.143280 0.988888 0.472940 -0.329450
O12   O     O_R   0.232490 0.896003 0.658253 -0.383661
C19   C     C_3   0.690492 0.879124 0.693668 -0.778358
H9    H     H_    0.737824 0.952559 0.747712 0.263148
H10   H     H_    0.639344 0.824372 0.759913 0.220266
H11   H     H_    0.768778 0.812592 0.649068 0.248013
C20   C     C_3   0.311465 0.121394 0.304314 -0.775022
H12   H     H_    0.262000 0.048738 0.251231 0.263352
H13   H     H_    0.234754 0.190951 0.347469 0.256005
H14   H     H_    0.364560 0.173116 0.237224 0.212894
C21   C     C_3   0.369689 0.343915 0.868864 -0.792670
H15   H     H_    0.331959 0.277228 0.934326 0.227202
H16   H     H_    0.287734 0.424555 0.844773 0.248152
H17   H     H_    0.396511 0.290397 0.781851 0.233979
C22   C     C_3   0.618143 0.296418 0.133319 -0.754582
H18   H     H_    0.655688 0.221461 0.065358 0.233508
H19   H     H_    0.703208 0.345921 0.165976 0.245864
H20   H     H_    0.582846 0.247393 0.214865 0.234772

loop_
_geom_bond_atom_site_label_1
_geom_bond_atom_site_label_2
_geom_bond_distance
_ccdc_geom_bond_type
O7    Zn2   2.001979 S    
C6    C9    1.528710 S    
C11   C19   1.521535 S    
C8    C10   1.541901 S    
C13   C15   1.353315 D    
N2    H7    1.030863 S    
C3    C10   1.417412 S    
C14   C16   1.355326 D    
N1    H8    1.030817 S    
O1    C1    1.280962 A    
O6    C4    1.272603 A    
C16   C21   1.512880 S    
C20   H14   1.109200 S    
C21   H17   1.106930 S    
Zn2   N1    2.009865 S    
C5    C11   1.527842 S    
O2    Zn2   1.904557 S    
Zn1   N2    2.009865 S    
C6    C12   1.531135 S    
C2    C14   1.454222 S    
C19   H9    1.109564 S    
O5    C3    1.272711 A    
O7    C3    1.281208 A    
C5    N3    1.458149 S    
C22   H18   1.111077 S    
O2    C2    1.281090 A    
O3    Zn2   1.909184 S    
N4    O12   1.300589 A    
C1    C13   1.449985 S    
C12   C20   1.522759 S    
C6    C8    1.537881 S    
N1    C17   1.296280 D    
N2    C18   1.296280 D    
C8    H2    1.107641 S    
C21   H16   1.110174 S    
C9    C11   1.529677 S    
O8    C4    1.280510 A    
C10   C12   1.533609 S    
C22   H19   1.109646 S    
C7    C12   1.551109 S    
O1    Zn1   1.904557 S    
N4    O11   1.300228 A    
C8    C11   1.548698 S    
N3    O9    1.300327 A    
H6    C17   1.085140 S    
C6    N4    1.459215 S    
O5    Zn1   1.997366 S    
N3    O10   1.300620 A    
C14   H3    1.087283 S    
O4    C2    1.299167 A    
C20   H12   1.109516 S    
C15   C22   1.514167 S    
C19   H10   1.109876 S    
C15   C16   1.449105 S    
C5    C7    1.539265 S    
O3    C1    1.297454 A    
H5    C18   1.085131 S    
C13   H4    1.087340 S    
C22   H20   1.110007 S    
O6    Zn2   1.997368 S    
C19   H11   1.109673 S    
C7    H1    1.110363 S    
C21   H15   1.111244 S    
C4    C9    1.416240 S    
C5    C10   1.528809 S    
C7    C9    1.542739 S    
C17   C18   1.504041 S    
O4    Zn1   1.909184 S    
C20   H13   1.109533 S    
O8    Zn1   2.001981 S    
