data_mof_unit_31424.cif
_audit_creation_date              2012-12-11T17:02:16-0500
_audit_creation_method            fapswitch 2.2
_symmetry_space_group_name_H-M    P1
_symmetry_Int_Tables_number       1
_space_group_crystal_system       triclinic
_cell_length_a                    21.643973
_cell_length_b                    7.071775
_cell_length_c                    14.836828
_cell_angle_alpha                 90.403617
_cell_angle_beta                  105.996889
_cell_angle_gamma                 90.13779
_cell_volume                      2182.92926395

loop_
_atom_site_label
_atom_site_type_symbol
_atom_type_description
_atom_site_fract_x
_atom_site_fract_y
_atom_site_fract_z
_atom_type_partial_charge
O1    O     O_R   0.585850 0.505770 0.002130 -0.537449
O2    O     O_R   0.414150 0.005770 0.997870 -0.537144
O3    O     O_R   0.467530 0.173560 0.861970 -0.538675
O4    O     O_R   0.532470 0.673560 0.138030 -0.538461
C1    C     C_R   0.455455 0.343526 0.825267 0.683926
C2    C     C_R   0.544478 0.845288 0.174612 0.684150
O5    O     O_R   0.588690 0.175900 0.993250 -0.544653
O6    O     O_R   0.411310 0.675900 0.006750 -0.544760
O7    O     O_R   0.536170 0.007950 0.130090 -0.536863
O8    O     O_R   0.463830 0.507950 0.869910 -0.537272
C3    C     C_R   0.615084 0.344773 0.997827 0.690475
C4    C     C_R   0.384931 0.844488 0.002252 0.688701
O9    O     O_3   0.482630 0.339970 0.044740 -0.372569
O10   O     O_3   0.517370 0.839970 0.955260 -0.372727
V1    V     V_3+5 0.503220 0.064200 0.991700 1.409329
V2    V     V_3+5 0.496780 0.564200 0.008300 1.408536
C5    C     C_R   0.292453 0.010403 0.041355 0.103510
C6    C     C_R   0.707896 0.509876 0.959253 0.105671
C7    C     C_R   0.317002 0.852576 0.005325 -0.106665
C8    C     C_R   0.683031 0.352971 0.994900 -0.110722
C9    C     C_R   0.274686 0.699299 0.973696 -0.181614
C10   C     C_R   0.724960 0.200118 0.025973 -0.179511
H1    H     H_    0.291282 0.574330 0.945350 0.133570
H2    H     H_    0.708082 0.075925 0.054072 0.136201
C11   C     C_R   0.209302 0.711283 0.971841 -0.183949
C12   C     C_R   0.790316 0.211631 0.027589 -0.184536
H3    H     H_    0.177718 0.593897 0.943186 0.133025
H4    H     H_    0.821637 0.094835 0.055906 0.134314
C13   C     C_R   0.184115 0.877492 0.000975 -0.103783
C14   C     C_R   0.815852 0.376958 0.998790 -0.108492
C15   C     C_R   0.227812 0.022503 0.039328 0.105652
C16   C     C_R   0.772536 0.521571 0.961118 0.111269
C17   C     C_3   0.225236 0.227627 0.016537 -0.422457
C18   C     C_3   0.775775 0.726995 0.984899 -0.421744
C19   C     C_3   0.295766 0.214511 0.018987 -0.400899
C20   C     C_3   0.705262 0.714262 0.982648 -0.403563
H5    H     H_    0.216747 0.316492 0.074044 0.170795
H6    H     H_    0.784432 0.814978 0.927733 0.171286
H7    H     H_    0.193192 0.256757 0.945459 0.172760
H8    H     H_    0.808010 0.756949 0.056058 0.169095
H9    H     H_    0.327968 0.295664 0.077972 0.174362
H10   H     H_    0.673223 0.794764 0.924127 0.175022
H11   H     H_    0.304573 0.236495 0.949401 0.167531
H12   H     H_    0.696655 0.737216 0.052433 0.165104
C21   C     C_R   0.928051 0.878983 0.723545 -0.029139
C22   C     C_R   0.071903 0.390229 0.276845 -0.036827
C23   C     C_R   0.572967 0.857309 0.275818 -0.028647
C24   C     C_R   0.427186 0.346861 0.723761 -0.031497
C25   C     C_R   0.940207 0.816913 0.569561 -0.129549
C26   C     C_R   0.061441 0.454507 0.431648 -0.131844
C27   C     C_R   0.967199 0.839345 0.665558 -0.179011
C28   C     C_R   0.033949 0.438034 0.335515 -0.188526
C29   C     C_R   0.861704 0.895298 0.685830 -0.195081
C30   C     C_R   0.137646 0.358952 0.314305 -0.194169
C31   C     C_R   0.832451 0.870305 0.588488 0.036694
C32   C     C_R   0.167602 0.379881 0.411774 0.036523
C33   C     C_R   0.873181 0.831351 0.529887 0.118695
C34   C     C_R   0.128066 0.428880 0.470794 0.114143
C35   C     C_R   0.764358 0.880787 0.548219 0.056318
C36   C     C_R   0.235369 0.357282 0.451711 0.055484
C37   C     C_R   0.737833 0.853136 0.449536 0.022308
C38   C     C_R   0.262743 0.383773 0.550349 0.022703
C39   C     C_R   0.780185 0.815627 0.394242 -0.225259
C40   C     C_R   0.221547 0.432127 0.605938 -0.228804
C41   C     C_R   0.846692 0.804982 0.432933 0.186042
C42   C     C_R   0.155376 0.454188 0.567651 0.184753
C43   C     C_R   0.721806 0.917249 0.603554 -0.172607
C44   C     C_R   0.276797 0.309953 0.396082 -0.174087
C45   C     C_R   0.655940 0.927154 0.564288 -0.205383
C46   C     C_R   0.342358 0.288778 0.434978 -0.205307
C47   C     C_R   0.629355 0.901927 0.468387 0.141487
C48   C     C_R   0.369680 0.312088 0.530852 0.141453
C49   C     C_R   0.669610 0.864280 0.409282 0.098925
C50   C     C_R   0.330616 0.360472 0.590290 0.098361
C51   C     C_R   0.562446 0.915788 0.431083 -0.163812
C52   C     C_R   0.436011 0.283747 0.567890 -0.164700
C53   C     C_R   0.534477 0.894701 0.335204 -0.174540
C54   C     C_R   0.464400 0.298734 0.663907 -0.172137
C55   C     C_R   0.639585 0.841333 0.312051 -0.211045
C56   C     C_R   0.361271 0.379402 0.687629 -0.212502
H13   H     H_    0.666107 0.814278 0.261716 0.089621
H14   H     H_    0.335476 0.412200 0.738243 0.091938
H15   H     H_    0.482902 0.908737 0.307200 0.103555
H16   H     H_    0.515286 0.270775 0.691733 0.104628
H17   H     H_    0.625422 0.955895 0.609735 0.120407
H18   H     H_    0.371984 0.251642 0.389330 0.120994
H19   H     H_    0.972261 0.785940 0.526849 0.145345
H20   H     H_    0.030201 0.491197 0.474819 0.158538
H21   H     H_    0.018653 0.824570 0.694775 0.108984
H22   H     H_    0.983051 0.464662 0.306662 0.125672
H23   H     H_    0.834670 0.924374 0.735278 0.091590
H24   H     H_    0.163944 0.325261 0.264453 0.093438
H25   H     H_    0.763139 0.793864 0.319741 0.119251
H26   H     H_    0.239388 0.456362 0.680182 0.119460
H27   H     H_    0.737448 0.939271 0.678186 0.120000
H28   H     H_    0.260431 0.287096 0.321543 0.119997
H29   H     H_    0.531749 0.944987 0.476170 0.113123
H30   H     H_    0.465775 0.245954 0.522583 0.113203
O11   O     O_R   0.036080 0.231270 0.130120 -0.538906
O12   O     O_R   0.963920 0.731270 0.869880 -0.537201
O13   O     O_R   0.911300 0.558970 0.006750 -0.540967
O14   O     O_R   0.088700 0.058970 0.993250 -0.540859
C57   C     C_R   0.884887 0.389778 0.002012 0.688970
C58   C     C_R   0.115102 0.890066 0.997926 0.688186
O15   O     O_R   0.032450 0.561140 0.138040 -0.538645
O16   O     O_R   0.967550 0.061140 0.861960 -0.538092
O17   O     O_R   0.085870 0.728910 0.002130 -0.540352
O18   O     O_R   0.914130 0.228910 0.997870 -0.541354
C59   C     C_R   0.044546 0.393439 0.175136 0.691832
C60   C     C_R   0.955551 0.891573 0.824972 0.693382
O19   O     O_3   0.017320 0.394650 0.955270 -0.372391
O20   O     O_3   0.982680 0.894650 0.044730 -0.374626
V3    V     V_3+5 0.996780 0.670490 0.008300 1.415960
V4    V     V_3+5 0.003220 0.170490 0.991700 1.416003
N1    N     N_3   0.887740 0.766235 0.373403 -0.690087
H31   H     H_    0.911285 0.892355 0.366534 0.226016
H32   H     H_    0.860825 0.726544 0.305957 0.223948
N2    N     N_3   0.115612 0.505171 0.627409 -0.680982
H33   H     H_    0.103756 0.647881 0.615811 0.219544
H34   H     H_    0.140926 0.493380 0.698163 0.225684

loop_
_geom_bond_atom_site_label_1
_geom_bond_atom_site_label_2
_ccdc_geom_bond_type
C14   C16   A    
C39   C41   A    
O12   C60   A    
C31   C35   A    
O13   V3    S    
C25   H19   S    
C28   H22   S    
O1    C3    A    
C23   C55   A    
C48   C52   A    
O2    C4    A    
O11   V4    S    
O20   V4    S    
O3    V1    S    
O5    C3    A    
C44   H28   S    
O16   V4    S    
C18   H8    S    
O15   V3    S    
C7    C9    A    
C52   C54   A    
C17   C19   S    
C53   H15   S    
O18   V4    S    
N1    H31   S    
O11   C59   A    
C22   C28   A    
C51   H29   S    
C25   C33   A    
C36   C38   A    
C24   C54   A    
C45   C47   A    
N2    H33   S    
O17   V3    S    
C38   C40   A    
C35   C43   A    
C20   H10   S    
C34   C42   A    
N1    H32   S    
C14   C57   S    
C29   H23   S    
C26   C28   A    
C15   C17   S    
C57   O18   A    
C19   H11   S    
C18   C20   S    
C26   H20   S    
O5    V1    S    
C21   C29   A    
O6    V2    S    
C50   C56   A    
C43   H27   S    
C41   N1    S    
C2    O7    A    
O20   V3    S    
C22   C59   S    
C29   C31   A    
C11   C13   A    
C1    C24   S    
C30   C32   A    
C3    C8    S    
C35   C37   A    
C2    C23   S    
C26   C34   A    
C48   C50   A    
C55   H13   S    
C21   C60   S    
C25   C27   A    
C17   H5    S    
C32   C36   A    
C13   C58   S    
C43   C45   A    
C40   C42   A    
O4    V2    S    
C30   H24   S    
O14   V4    S    
O6    C4    A    
C22   C30   A    
C37   C39   A    
C49   C55   A    
O19   V3    S    
O1    V2    S    
C17   H7    S    
O14   C58   A    
O2    V1    S    
C51   C53   A    
C56   H14   S    
C8    C10   A    
C12   C14   A    
C31   C33   A    
C42   N2    S    
C5    C15   A    
C10   H2    S    
C20   H12   S    
O4    C2    A    
C6    C16   A    
C23   C53   A    
C46   H18   S    
C45   H17   S    
C47   C49   A    
O16   C60   A    
C9    C11   A    
C18   H6    S    
O12   V3    S    
C33   C41   A    
O3    C1    A    
C11   H3    S    
C39   H25   S    
C12   H4    S    
C37   C49   A    
C24   C56   A    
C9    H1    S    
O7    V1    S    
C40   H26   S    
C1    O8    A    
C13   C15   A    
O8    V2    S    
C27   H21   S    
C47   C51   A    
C6    C20   S    
O15   C59   A    
C4    C7    S    
C5    C7    A    
C32   C34   A    
O19   V4    S    
C6    C8    A    
C19   H9    S    
N2    H34   S    
C54   H16   S    
C36   C44   A    
O13   C57   A    
C10   C12   A    
O9    V2    S    
C44   C46   A    
C21   C27   A    
O10   V1    S    
C38   C50   A    
C46   C48   A    
C5    C19   S    
C52   H30   S    
C58   O17   A    
C16   C18   S    
