data_mof_unit_24362.cif
_audit_creation_date              2012-12-11T20:57:51-0500
_audit_creation_method            fapswitch 2.2
_symmetry_space_group_name_H-M    P1
_symmetry_Int_Tables_number       1
_space_group_crystal_system       triclinic
_cell_length_a                    8.247552
_cell_length_b                    18.811447
_cell_length_c                    22.812278
_cell_angle_alpha                 99.993798
_cell_angle_beta                  89.707132
_cell_angle_gamma                 91.547645
_cell_volume                      3484.31308471

loop_
_atom_site_label
_atom_site_type_symbol
_atom_type_description
_atom_site_fract_x
_atom_site_fract_y
_atom_site_fract_z
_atom_type_partial_charge
Ba1   Ba    Ba6+2 0.157800 0.534120 0.474430 1.743347
Ba2   Ba    Ba6+2 0.652390 0.465870 0.525520 1.705548
C1    C     C_3   0.364018 0.702785 0.261238 -0.312113
C2    C     C_R   0.070936 0.905049 0.561205 -0.080815
C3    C     C_R   0.206956 0.048808 0.552595 -0.102659
C4    C     C_3   0.914544 0.725478 0.354101 0.357634
C5    C     C_R   0.054193 0.023997 0.528249 0.014828
C6    C     C_R   0.263261 0.119253 0.553244 -0.071054
C7    C     C_R   0.170661 0.168685 0.529517 -0.030415
C8    C     C_R   0.021526 0.144538 0.501248 -0.009479
C9    C     C_R   0.963400 0.071818 0.500198 0.025590
C10   C     C_R   0.223102 0.241541 0.532878 0.043024
C11   C     C_R   0.124604 0.289829 0.510549 -0.299394
C12   C     C_3   0.391693 0.684401 0.322629 0.313202
C13   C     C_R   0.982530 0.266678 0.479298 0.030017
C14   C     C_R   0.931762 0.192789 0.473285 -0.043819
C15   C     C_R   0.843561 0.928530 0.500838 0.048315
C16   C     C_3   0.929339 0.800202 0.337430 -0.363339
C17   C     C_R   0.785176 0.855860 0.499965 -0.010415
C18   C     C_R   0.876046 0.807412 0.527293 -0.128141
C19   C     C_R   0.013430 0.834712 0.560304 0.005368
C20   C     C_R   0.795177 0.165290 0.439763 -0.020705
C21   C     C_R   0.737282 0.094982 0.439113 -0.088710
C22   C     C_R   0.815180 0.047608 0.471056 0.009140
C23   C     C_3   0.452972 0.690530 0.626937 0.873731
C24   C     C_R   0.752601 0.976410 0.472912 0.015876
C25   C     C_R   0.599123 0.951837 0.449112 -0.097354
C26   C     C_R   0.634955 0.831949 0.472444 -0.108673
C27   C     C_R   0.542116 0.881529 0.448927 -0.064935
C28   C     C_3   0.820662 0.373660 0.343177 0.295920
C29   C     C_R   0.581978 0.759166 0.469439 -0.071208
C30   C     C_R   0.680944 0.710743 0.491639 0.355938
C31   C     C_R   0.825543 0.733534 0.521350 0.055155
C32   C     C_R   0.643445 0.524298 0.335261 -0.298385
C33   C     C_R   0.380757 0.557607 0.945639 -0.023339
C34   C     C_3   0.405332 0.768783 0.645202 -0.325427
C35   C     C_R   0.330376 0.553567 0.886114 0.583091
C36   C     C_R   0.243178 0.429783 0.881584 0.578941
C37   C     C_R   0.294218 0.431804 0.940928 -0.026322
C38   C     C_R   0.363402 0.496183 0.973029 -0.050926
C39   C     C_R   0.448663 0.621676 0.978345 -0.076627
C40   C     C_3   0.813449 0.352872 0.275732 -0.364090
C41   C     C_R   0.498591 0.624761 0.037114 -0.075970
C42   C     C_R   0.482809 0.563791 0.065004 -0.017951
C43   C     C_R   0.415377 0.499220 0.032801 -0.052819
C44   C     C_R   0.279158 0.370792 0.968780 -0.074898
C45   C     C_3   0.867721 0.277014 0.641966 0.368840
C46   C     C_R   0.332337 0.373529 0.027242 -0.073334
C47   C     C_R   0.400602 0.437606 0.059987 -0.024820
C48   C     C_R   0.454532 0.441357 0.119215 0.590336
C49   C     C_R   0.531938 0.566361 0.124519 0.575045
C50   C     C_2   0.066710 0.471140 0.772872 -0.022304
C51   C     C_3   0.022400 0.478025 0.709499 -0.054363
C52   C     C_3   0.996287 0.630232 0.658156 0.347131
C53   C     C_1   0.304887 0.505657 0.693030 -0.026032
C54   C     C_2   0.347374 0.503673 0.748612 -0.096937
C55   C     C_2   0.221441 0.486430 0.792266 0.215053
C56   C     C_3   0.865321 0.201753 0.657822 -0.331998
C57   C     C_R   0.711128 0.542335 0.235400 -0.091916
C58   C     C_R   0.750930 0.549598 0.295803 -0.029300
C59   C     C_R   0.500323 0.487630 0.314660 0.019858
C60   C     C_R   0.456742 0.482297 0.254514 -0.103639
C61   C     C_R   0.561022 0.510337 0.214042 0.197458
C62   C     C_2   0.171197 0.472553 0.670311 -0.222658
C63   C     C_3   0.031398 0.658619 0.723702 -0.362059
C64   C     C_3   0.319959 0.313538 0.391907 0.308671
C65   C     C_3   0.322449 0.231896 0.373054 -0.379632
C66   C     C_3   0.394042 0.307774 0.678614 0.849174
C67   C     C_3   0.452872 0.295947 0.739138 -0.261641
C68   C     C_R   0.992140 0.952661 0.529767 0.009446
F1    F     F_    0.618096 0.688648 0.619123 -0.722464
F2    F     F_    0.227065 0.299891 0.676864 -0.757588
F3    F     F_    0.632065 0.640655 0.486798 -0.690535
H1    H     H_    0.313969 0.636528 0.326786 0.096655
H2    H     H_    0.194021 0.329831 0.402154 0.003875
H3    H     H_    0.397386 0.328915 0.432008 0.062698
H4    H     H_    0.244655 0.728116 0.259226 0.148260
H5    H     H_    0.242473 0.214810 0.333840 0.128703
H6    H     H_    0.279064 0.204660 0.409743 0.052311
H7    H     H_    0.448075 0.214824 0.361306 0.118571
H8    H     H_    0.521175 0.671184 0.326644 -0.033784
H9    H     H_    0.364356 0.652635 0.227625 0.118902
H10   H     H_    0.391345 0.668982 0.584203 0.027824
H11   H     H_    0.472418 0.794088 0.685932 0.130227
H12   H     H_    0.725903 0.306952 0.262935 0.139450
H13   H     H_    0.434491 0.799307 0.608761 0.049976
H14   H     H_    0.273249 0.771472 0.654476 0.046493
H15   H     H_    0.461017 0.740725 0.250727 0.124461
H16   H     H_    0.872080 0.840337 0.372241 0.074578
H17   H     H_    0.758478 0.282079 0.615169 0.072513
H18   H     H_    0.977088 0.283479 0.614969 0.056448
H19   H     H_    0.858329 0.160622 0.616619 0.066090
H20   H     H_    0.977426 0.193841 0.682404 0.168977
H21   H     H_    0.758028 0.194269 0.685927 0.120185
H22   H     H_    0.430162 0.363591 0.673747 0.007994
H23   H     H_    0.774055 0.398961 0.255562 0.069592
H24   H     H_    0.404512 0.338114 0.774393 0.115373
H25   H     H_    0.587190 0.299587 0.741097 0.085182
H26   H     H_    0.978008 0.727119 0.397207 0.059972
H27   H     H_    0.411351 0.241933 0.747475 0.122275
H28   H     H_    0.163711 0.345851 0.514823 0.064894
H29   H     H_    0.380826 0.134187 0.572899 0.113589
H30   H     H_    0.079533 0.802140 0.585934 0.085322
H31   H     H_    0.729774 0.197672 0.413626 0.096803
H32   H     H_    0.423781 0.866814 0.429847 0.111890
H33   H     H_    0.288509 0.014646 0.570903 0.072309
H34   H     H_    0.935292 0.336916 0.257981 0.129093
H35   H     H_    0.177090 0.920711 0.588124 0.058318
H36   H     H_    0.631765 0.078993 0.411898 0.060141
H37   H     H_    0.783631 0.712224 0.359213 -0.068176
H38   H     H_    0.517496 0.986222 0.431065 0.068214
H39   H     H_    0.318968 0.325219 0.046852 0.124414
H40   H     H_    0.226967 0.320448 0.945298 0.124702
H41   H     H_    0.549905 0.675254 0.060668 0.123746
H42   H     H_    0.797464 0.560966 0.205152 0.117744
H43   H     H_    0.463504 0.669813 0.958577 0.125261
H44   H     H_    0.471125 0.516861 0.763302 0.111437
H45   H     H_    0.108850 0.609675 0.635770 -0.060923
H46   H     H_    0.971749 0.461333 0.803850 0.087168
H47   H     H_    0.342681 0.455863 0.239313 0.126888
H48   H     H_    0.676629 0.528919 0.381614 0.124424
H49   H     H_    0.059169 0.815925 0.333459 0.138784
H50   H     H_    0.166932 0.445136 0.624306 0.067330
H51   H     H_    0.867423 0.800395 0.294339 0.125633
H52   H     H_    0.698220 0.388046 0.360182 0.010809
H53   H     H_    0.905971 0.420596 0.354897 0.061833
H54   H     H_    0.903051 0.586055 0.654224 0.048311
H55   H     H_    0.112592 0.707316 0.728241 0.139044
H56   H     H_    0.092128 0.617808 0.744723 0.070769
H57   H     H_    0.916322 0.673193 0.747748 0.128368
N1    N     N_R   0.264243 0.489915 0.854500 -0.433302
N2    N     N_R   0.515584 0.505835 0.151655 -0.424124
O1    O     O_2   0.110690 0.676100 0.539200 -0.517132
O2    O     O_2   0.689343 0.440568 0.699711 -0.525843
O3    O     O_3   0.870915 0.328729 0.694348 -0.564892
O4    O     O_3   0.863220 0.586720 0.534720 -0.391122
O5    O     O_3   0.450900 0.461390 0.429220 -0.465685
O6    O     O_2   0.599830 0.538970 0.641850 -0.420854
O7    O     O_3   0.409319 0.652133 0.672398 -0.663066
O8    O     O_2   0.559043 0.242663 0.523994 -0.509881
O9    O     O_3   0.464354 0.256652 0.634205 -0.645013
O10   O     O_2   0.344096 0.606998 0.862489 -0.592545
O11   O     O_2   0.181494 0.374318 0.853855 -0.579221
O12   O     O_3   0.377620 0.345547 0.344732 -0.629039
O13   O     O_2   0.449124 0.386833 0.141587 -0.597056
O14   O     O_2   0.588139 0.622957 0.152317 -0.614993
O15   O     O_3   0.368310 0.629070 0.432760 -0.413403
O16   O     O_2   0.243178 0.756708 0.474532 -0.504601
O17   O     O_3   0.938529 0.687331 0.633371 -0.582162
O18   O     O_3   0.349633 0.743528 0.365889 -0.619041
O19   O     O_2   0.210480 0.460990 0.358130 -0.471096
O20   O     O_3   0.959520 0.592090 0.401630 -0.483193
O21   O     O_2   0.087616 0.542923 0.295019 -0.504733
O22   O     O_3   0.986428 0.675250 0.309336 -0.597569
O23   O     O_2   0.699610 0.323860 0.460780 -0.470702
O24   O     O_3   0.947090 0.413280 0.465240 -0.492841
O25   O     O_3   0.442000 0.370930 0.567190 -0.488232
O26   O     O_3   0.873294 0.314338 0.366445 -0.639975
O27   O     O_3   0.359410 0.538600 0.570730 -0.463112
O28   O     O_3   0.850780 0.407910 0.598320 -0.499754
P1    P     P_3+3 0.935930 0.665430 0.555670 1.128099
P2    P     P_3+3 0.382700 0.439650 0.365620 1.001303
P3    P     P_3+3 0.946712 0.588560 0.324728 0.947008
P4    P     P_3+3 0.874370 0.334570 0.444280 0.974186
P5    P     P_3+3 0.857438 0.414992 0.675752 0.980275
P6    P     P_3+3 0.385589 0.722619 0.436429 0.993434
P7    P     P_3+3 0.415812 0.558975 0.645816 1.013182
P8    P     P_3+3 0.421160 0.277659 0.564110 0.950282

loop_
_geom_bond_atom_site_label_1
_geom_bond_atom_site_label_2
_ccdc_geom_bond_type
O8    P8    D    
C53   C54   D    
C28   H53   S    
Ba2   O23   S    
C25   C27   A    
C39   C41   A    
C54   H44   S    
C17   C18   A    
C53   P7    S    
C5    C68   A    
C2    C68   A    
C63   H57   S    
C52   C63   S    
C42   C43   A    
C5    C9    A    
C2    H35   S    
C24   C25   A    
O21   P3    D    
C40   H23   S    
C15   C24   A    
C12   H1    S    
C26   C27   A    
C23   O7    S    
C56   H20   S    
C22   C24   A    
C41   H41   S    
C36   C37   A    
C51   C62   S    
C64   O12   S    
C13   C14   A    
O18   P6    S    
C9    C22   A    
C58   P3    S    
C20   H31   S    
C54   C55   S    
Ba1   O20   S    
Ba1   Ba2   S    
C36   O11   D    
C66   C67   S    
Ba2   O28   S    
Ba2   O27   S    
Ba2   O24   S    
C21   C22   A    
C23   F1    S    
Ba1   O4    S    
C40   H34   S    
C60   H47   S    
O26   P4    S    
O4    P1    S    
C45   O3    S    
C67   H25   S    
C64   C65   S    
C28   H52   S    
C25   H38   S    
C57   C58   A    
C32   C58   A    
C4    H37   S    
C27   H32   S    
C65   H5    S    
Ba1   O1    S    
O25   P8    S    
C52   O17   S    
C3    H33   S    
C34   H14   S    
C38   C43   A    
C21   H36   S    
C4    C16   S    
C44   C46   A    
C66   H22   S    
C35   O10   D    
C59   P2    S    
Ba2   O6    S    
C63   H55   S    
C13   P4    S    
Ba1   O27   S    
C65   H6    S    
C8    C9    A    
Ba2   P4    S    
C37   C38   A    
C3    C5    A    
C6    C7    A    
C49   O14   D    
C34   H13   S    
C61   N2    S    
C32   C59   A    
Ba2   O4    S    
C35   N1    Am   
O6    P7    D    
Ba1   O24   S    
C31   P1    S    
C41   C42   A    
C67   H27   S    
C60   C61   A    
O15   P6    S    
O22   P3    S    
C29   C30   A    
C29   P6    S    
C43   C47   A    
C36   N1    Am   
C66   F2    S    
O19   P2    D    
C64   H3    S    
C53   C62   D    
C12   O18   S    
C1    H9    S    
O3    P5    S    
O2    P5    D    
C66   O9    S    
C40   H12   S    
O28   P5    S    
C10   C11   A    
O7    P7    S    
C17   C26   A    
C4    O22   S    
C1    C12   S    
C48   N2    Am   
C16   H49   S    
C37   C44   A    
C18   C31   A    
C42   C49   A    
C51   P5    S    
C46   C47   A    
C46   H39   S    
Ba1   P2    S    
C32   H48   S    
C52   H45   S    
C45   H17   S    
Ba1   O15   S    
O17   P1    S    
C39   H43   S    
C11   H28   S    
C1    H4    S    
C30   F3    S    
Ba1   O5    S    
C50   C51   S    
C48   O13   D    
C7    C8    A    
C33   C35   A    
C28   O26   S    
O9    P8    S    
C14   C20   A    
C44   H40   S    
O12   P2    S    
C1    H15   S    
C20   C21   A    
C16   H16   S    
C45   H18   S    
C55   N1    S    
C26   C29   A    
C65   H7    S    
O1    P1    D    
C10   P8    S    
C3    C6    A    
C63   H56   S    
C49   N2    Am   
O23   P4    D    
Ba2   O5    S    
C62   H50   S    
C52   H54   S    
C57   C61   A    
C4    H26   S    
C11   C13   A    
C33   C38   A    
C56   H21   S    
C8    C14   A    
C30   C31   A    
C45   C56   S    
C2    C19   A    
O5    P2    S    
C56   H19   S    
C34   H11   S    
Ba2   O25   S    
C64   H2    S    
C15   C17   A    
O27   P7    S    
Ba1   O19   S    
C59   C60   A    
C33   C39   A    
C7    C10   A    
O20   P3    S    
C50   C55   D    
C23   C34   S    
Ba1   P1    S    
C19   H30   S    
C50   H46   S    
C15   C68   A    
C18   C19   A    
O24   P4    S    
C57   H42   S    
C47   C48   A    
C23   H10   S    
O16   P6    D    
C28   C40   S    
C12   H8    S    
C6    H29   S    
C16   H51   S    
C67   H24   S    
