data_mof_unit_32861.cif
_audit_creation_date              2012-12-11T14:15:50-0500
_audit_creation_method            fapswitch 2.2
_symmetry_space_group_name_H-M    P1
_symmetry_Int_Tables_number       1
_space_group_crystal_system       triclinic
_cell_length_a                    11.080296
_cell_length_b                    12.711633
_cell_length_c                    23.450648
_cell_angle_alpha                 90.315017
_cell_angle_beta                  96.312463
_cell_angle_gamma                 68.549148
_cell_volume                      3053.40889986

loop_
_atom_site_label
_atom_site_type_symbol
_atom_type_description
_atom_site_fract_x
_atom_site_fract_y
_atom_site_fract_z
_atom_type_partial_charge
C1    C     C_R   0.150955 0.617043 0.429440 0.561825
C2    C     C_2   0.167737 0.268654 0.217288 -0.119016
C3    C     C_2   0.131680 0.211137 0.255230 -0.106608
C4    C     C_R   0.745185 0.606274 0.405199 0.559165
C5    C     C_1   0.112097 0.251141 0.312075 -0.027811
C6    C     C_1   0.200143 0.221233 0.162792 -0.032633
C7    C     C_1   0.099120 0.285038 0.359820 0.016200
C8    C     C_1   0.206137 0.793213 0.134663 0.006522
C9    C     C_2   0.165155 0.769701 0.242064 0.045154
C10   C     C_2   0.249601 0.681747 0.275396 -0.138768
C11   C     C_1   0.227471 0.656137 0.332207 0.049162
C12   C     C_R   0.618127 0.580582 0.315198 0.046090
C13   C     C_1   0.190199 0.780009 0.183659 -0.041298
C14   C     C_1   0.199835 0.636556 0.378178 0.081782
C15   C     C_1   0.618492 0.763383 0.862838 0.036030
C16   C     C_R   0.087226 0.327409 0.416295 0.545581
C17   C     C_2   0.655165 0.740106 0.753561 -0.135372
C18   C     C_2   0.619039 0.666059 0.721386 0.059406
C19   C     C_1   0.650653 0.654493 0.663165 -0.060493
C20   C     C_1   0.640033 0.753330 0.813583 0.007175
C21   C     C_1   0.687817 0.636594 0.616565 -0.024527
C22   C     C_R   0.265226 0.058759 0.839583 -0.010512
C23   C     C_R   0.705836 0.731887 0.320287 -0.144076
C24   C     C_R   0.110808 0.207978 0.637259 -0.024544
C25   C     C_R   0.013837 0.146701 0.713402 0.264786
C26   C     C_R   0.999208 0.203457 0.660071 0.260836
C27   C     C_R   0.234527 0.154269 0.667459 -0.189338
C28   C     C_R   0.104029 0.592289 0.594333 0.559580
C29   C     C_R   0.247205 0.109326 0.722688 -0.008650
C30   C     C_R   0.135526 0.110088 0.746961 0.020367
C31   C     C_R   0.146235 0.081797 0.805447 -0.101751
C32   C     C_R   0.377869 0.046971 0.813733 -0.122362
C33   C     C_R   0.369106 0.071400 0.755530 -0.119618
C34   C     C_R   0.693349 0.740336 0.260672 0.030853
C35   C     C_R   0.115718 0.742427 0.855203 0.010866
C36   C     C_R   0.121371 0.595062 0.657020 -0.002364
C37   C     C_R   0.250713 0.526641 0.748960 -0.101047
C38   C     C_R   0.229409 0.515073 0.689991 -0.093273
C39   C     C_R   0.027666 0.678844 0.684344 -0.136265
C40   C     C_R   0.747397 0.602887 0.565156 0.535895
C41   C     C_R   0.049693 0.692208 0.742987 0.046260
C42   C     C_R   0.164929 0.618642 0.775208 0.047195
C43   C     C_R   0.196654 0.643442 0.831692 -0.112954
C44   C     C_R   0.995094 0.808134 0.824723 -0.124604
C45   C     C_R   0.657484 0.659902 0.229121 0.008608
C46   C     C_R   0.962544 0.782957 0.768970 -0.138452
C47   C     C_R   0.264467 0.111921 0.068593 0.553091
C48   C     C_R   0.599578 0.774690 0.081563 0.538040
C49   C     C_R   0.219939 0.816419 0.076632 0.558357
C50   C     C_R   0.274853 0.051154 0.902269 0.568954
C51   C     C_R   0.574438 0.776793 0.918284 0.542665
C52   C     C_R   0.099145 0.278305 0.585638 0.556064
C53   C     C_R   0.163079 0.786465 0.907205 0.546436
C54   C     C_R   0.662137 0.753646 0.140833 0.004963
C55   C     C_R   0.678459 0.646185 0.347719 -0.008334
C56   C     C_R   0.654307 0.661155 0.170355 -0.114201
C57   C     C_R   0.615910 0.583612 0.255912 -0.147742
C58   C     C_2   0.045747 0.856909 0.261269 0.581664
C59   C     C_2   0.561817 0.587002 0.743693 0.586416
C60   C     C_3   0.868320 0.058109 0.706389 -0.108799
C61   C     C_3   0.808776 0.355036 0.657814 -0.043407
C62   C     C_2   0.558642 0.507519 0.341369 0.580428
C63   C     C_R   0.697651 0.834856 0.171688 -0.109710
C64   C     C_R   0.717846 0.825767 0.231758 -0.103322
C65   C     C_1   0.228989 0.175090 0.118689 0.009465
Cr1   Cr    Cr6+3 0.189770 0.415650 0.511620 1.042801
Cr2   Cr    Cr6+3 0.930400 0.667320 0.496770 1.025158
Cr3   Cr    Cr6+3 0.879870 0.417010 0.491650 1.088906
Cr4   Cr    Cr6+3 0.149500 0.973980 0.985330 1.035361
Cr5   Cr    Cr6+3 0.457000 0.976510 0.994660 1.022783
Cr6   Cr    Cr6+3 0.411170 0.724270 0.995270 1.031966
H1    H     H_    0.629521 0.595950 0.147585 0.143300
H2    H     H_    0.336921 0.466783 0.773365 0.120904
H3    H     H_    0.873754 0.839163 0.744902 0.080146
H4    H     H_    0.300012 0.446127 0.670073 0.162961
H5    H     H_    0.940864 0.737420 0.659455 0.119925
H6    H     H_    0.577958 0.528859 0.230257 0.148889
H7    H     H_    0.744641 0.888823 0.255476 0.146976
H8    H     H_    0.745735 0.786470 0.344985 0.143883
H9    H     H_    0.122461 0.130845 0.244633 0.163395
H10   H     H_    0.178969 0.348115 0.227983 0.139127
H11   H     H_    0.333997 0.622126 0.257941 0.123293
H12   H     H_    0.695479 0.794615 0.733687 0.090130
H13   H     H_    0.935279 0.922731 0.325112 0.335991
H14   H     H_    0.513700 0.519673 0.811545 0.326746
H15   H     H_    0.794569 0.041819 0.729597 0.124231
H16   H     H_    0.952166 0.976632 0.704761 0.118857
H17   H     H_    0.821463 0.089204 0.662258 0.174001
H18   H     H_    0.712389 0.397929 0.632518 0.186994
H19   H     H_    0.863119 0.413578 0.659824 0.095665
H20   H     H_    0.789176 0.338164 0.701584 0.177622
H21   H     H_    0.503469 0.372852 0.333897 0.341428
H22   H     H_    0.060633 0.086418 0.825232 0.178034
H23   H     H_    0.472152 0.023986 0.839143 0.134766
H24   H     H_    0.456140 0.067560 0.737137 0.109241
H25   H     H_    0.320552 0.155869 0.649999 0.147371
H26   H     H_    0.288724 0.591093 0.855392 0.129858
H27   H     H_    0.703853 0.907138 0.149759 0.157262
H28   H     H_    0.929454 0.883625 0.842406 0.142817
O1    O     O_R   0.196340 0.303200 0.448500 -0.497137
O2    O     O_R   0.555390 0.700940 0.062700 -0.526726
O3    O     O_R   0.295020 0.731920 0.049950 -0.492427
O4    O     O_R   0.199310 0.519670 0.454880 -0.498604
O5    O     O_R   0.094290 0.884230 0.921550 -0.526771
O6    O     O_R   0.168980 0.069410 0.926940 -0.497249
O7    O     O_R   0.358400 0.089990 0.927950 -0.504898
O8    O     O_R   0.544850 0.873850 0.939920 -0.530281
O9    O     O_R   0.536020 0.701900 0.936430 -0.476817
O10   O     O_R   0.277070 0.732810 0.932890 -0.493352
O11   O     O_3   0.339220 0.891590 0.991750 -0.296562
O12   O     O_R   0.811960 0.658090 0.547150 -0.519492
O13   O     O_R   0.045660 0.691380 0.441680 -0.485013
O14   O     O_R   0.811930 0.659460 0.430950 -0.512396
O15   O     O_R   0.757900 0.507620 0.421760 -0.471228
O16   O     O_R   0.988630 0.322990 0.439840 -0.479797
O17   O     O_R   0.196380 0.301720 0.573850 -0.534296
O18   O     O_R   0.199350 0.518300 0.571080 -0.487829
O19   O     O_R   0.045700 0.689900 0.567030 -0.499511
O20   O     O_2   0.970302 0.928910 0.226574 -0.528730
O21   O     O_R   0.019267 0.858981 0.318293 -0.698582
O22   O     O_2   0.527499 0.526026 0.710465 -0.550564
O23   O     O_R   0.757930 0.506140 0.547110 -0.491398
O24   O     O_R   0.548727 0.579926 0.802022 -0.690611
O25   O     O_3   0.906490 0.139794 0.735944 -0.583292
O26   O     O_3   0.875895 0.254600 0.630573 -0.554848
O27   O     O_2   0.514900 0.530795 0.387437 -0.506485
O28   O     O_R   0.547916 0.414433 0.312245 -0.712560
O29   O     O_R   0.988670 0.321620 0.556040 -0.443970
O30   O     O_3   0.000020 0.499990 0.500010 -0.308227
O31   O     O_R   0.113660 0.883270 0.047820 -0.489221
O32   O     O_R   0.186930 0.068530 0.043990 -0.500482
O33   O     O_R   0.377770 0.089040 0.054220 -0.498943
O34   O     O_R   0.562800 0.872960 0.056970 -0.496518

loop_
_geom_bond_atom_site_label_1
_geom_bond_atom_site_label_2
_ccdc_geom_bond_type
C24   C52   S    
C32   H23   S    
C16   O16   A    
C59   O22   D    
C8    C13   T    
C27   C29   A    
C41   C42   A    
C24   C27   A    
C60   H17   S    
C39   C41   A    
C2    C6    S    
C48   C54   S    
C45   C57   A    
C37   C38   A    
C22   C32   A    
C4    O15   A    
C19   C21   T    
C24   C26   A    
C18   C19   S    
C63   H27   S    
Cr5   O8    S    
C1    O13   A    
C30   C31   A    
C44   H28   S    
C35   C53   S    
C54   C63   A    
C53   O5    A    
Cr6   O11   S    
C29   C33   A    
C1    O4    A    
C17   C20   S    
C9    C58   S    
Cr1   O1    S    
C37   C42   A    
C60   O25   S    
C9    C13   S    
Cr5   O11   S    
C6    C65   T    
C45   C56   A    
C61   H18   S    
Cr4   O31   S    
C56   H1    S    
Cr1   O18   S    
Cr5   O34   S    
C41   C46   A    
C15   C51   S    
C35   C43   A    
C9    C10   D    
Cr3   O29   S    
Cr4   O32   S    
C22   C50   S    
Cr1   O30   S    
Cr6   O2    S    
Cr6   O9    S    
C59   O24   S    
C27   H25   S    
Cr2   O30   S    
C3    H9    S    
C33   H24   S    
Cr5   O33   S    
C25   O25   S    
C60   H16   S    
C44   C46   A    
C40   O12   A    
C38   H4    S    
C52   O17   A    
C52   O29   A    
C15   C20   T    
C54   C56   A    
C22   C31   A    
C57   H6    S    
C4    O14   A    
Cr5   O7    S    
Cr3   O23   S    
C49   O3    A    
C5    C7    T    
Cr4   O6    S    
C16   O1    A    
C25   C26   A    
C31   H22   S    
C10   H11   S    
C47   O32   A    
C17   H12   S    
C26   O26   S    
C29   C30   A    
C50   O6    A    
C12   C62   S    
Cr4   O11   S    
C48   O34   A    
H13   O21   S    
C23   C34   A    
C34   C64   A    
C17   C18   D    
C34   C45   A    
C39   H5    S    
C35   C44   A    
Cr1   O17   S    
C18   C59   S    
C12   C57   A    
Cr2   O12   S    
C7    C16   S    
Cr6   O3    S    
C51   O9    A    
C4    C55   S    
C58   O21   S    
H21   O28   S    
C46   H3    S    
C61   H19   S    
C62   O27   D    
Cr4   O5    S    
C53   O10   A    
C25   C30   A    
C37   H2    S    
C60   H15   S    
C64   H7    S    
Cr1   O4    S    
C36   C39   A    
C43   H26   S    
C3    C5    S    
C23   C55   A    
C40   O23   A    
C49   O31   A    
C47   O33   A    
C28   O18   A    
C32   C33   A    
C36   C38   A    
C2    C3    D    
Cr2   O14   S    
C28   O19   A    
C62   O28   S    
C21   C40   S    
C48   O2    A    
Cr6   O10   S    
C58   O20   D    
C11   C14   T    
H14   O24   S    
Cr3   O30   S    
Cr2   O19   S    
C12   C55   A    
C10   C11   S    
Cr3   O16   S    
C63   C64   A    
Cr2   O13   S    
C28   C36   S    
C51   O8    A    
C42   C43   A    
C50   O7    A    
C2    H10   S    
C61   O26   S    
C1    C14   S    
C23   H8    S    
C8    C49   S    
C47   C65   S    
C61   H20   S    
Cr3   O15   S    
