data_mof_unit_53573.cif
_audit_creation_date              2012-10-26T17:11:30-0400
_audit_creation_method            fapswitch 2.2
_symmetry_space_group_name_H-M    P1
_symmetry_Int_Tables_number       1
_space_group_crystal_system       triclinic
_cell_length_a                    27.985509
_cell_length_b                    18.877544
_cell_length_c                    16.866424
_cell_angle_alpha                 90.186071
_cell_angle_beta                  62.404852
_cell_angle_gamma                 90.271718
_cell_volume                      7896.76566887

loop_
_atom_site_label
_atom_site_type_symbol
_atom_type_description
_atom_site_fract_x
_atom_site_fract_y
_atom_site_fract_z
_atom_type_partial_charge
C1    C     C_R   0.294996 0.728158 0.329739 0.805481
C2    C     C_R   0.705045 0.271913 0.670278 0.804043
C3    C     C_R   0.704992 0.728189 0.670320 0.796751
C4    C     C_R   0.295011 0.271804 0.329632 0.809862
C5    C     C_R   0.794950 0.228077 0.329727 0.803137
C6    C     C_R   0.205025 0.771881 0.670244 0.799784
C7    C     C_R   0.205000 0.228171 0.670358 0.803173
C8    C     C_R   0.795057 0.771726 0.329651 0.811887
C9    C     C_R   0.409671 0.000394 0.466403 0.065390
C10   C     C_R   0.590334 0.999599 0.533575 0.065373
C11   C     C_R   0.900716 0.499341 0.491949 0.068743
C12   C     C_R   0.089006 0.499989 0.538671 0.065211
C13   C     C_R   0.583405 0.871935 0.546096 -0.229514
C14   C     C_R   0.416601 0.128058 0.453875 -0.226922
C15   C     C_R   0.417390 0.873119 0.448198 -0.228035
C16   C     C_R   0.582613 0.126874 0.551784 -0.225628
C17   C     C_R   0.087700 0.371925 0.531778 -0.223117
C18   C     C_R   0.882067 0.619211 0.550481 -0.229002
C19   C     C_R   0.918299 0.376253 0.444869 -0.217447
C20   C     C_R   0.076861 0.625648 0.572805 -0.221788
C21   C     C_R   0.221123 0.768014 0.952931 0.107623
C22   C     C_R   0.779473 0.232073 0.046127 0.104850
C23   C     C_R   0.779382 0.766360 0.046844 0.108539
C24   C     C_R   0.220753 0.232262 0.953474 0.105716
C25   C     C_R   0.720591 0.268050 0.953835 0.106159
C26   C     C_R   0.279044 0.732248 0.046898 0.106439
C27   C     C_R   0.279219 0.267787 0.046541 0.106658
C28   C     C_R   0.721490 0.732070 0.952425 0.108813
C29   C     C_R   0.277825 0.770112 0.910108 -0.171586
C30   C     C_R   0.758431 0.300556 0.053124 -0.167449
C31   C     C_R   0.722782 0.769744 0.089314 -0.173541
C32   C     C_R   0.241445 0.300978 0.947908 -0.168562
C33   C     C_R   0.741633 0.199570 0.946841 -0.170306
C34   C     C_R   0.222344 0.730145 0.089711 -0.170169
C35   C     C_R   0.258524 0.199073 0.052107 -0.171522
C36   C     C_R   0.778101 0.728673 0.909920 -0.172549
C37   C     C_R   0.306457 0.752337 0.956538 -0.171467
C38   C     C_R   0.729365 0.318367 0.007435 -0.170589
C39   C     C_R   0.694134 0.752706 0.042603 -0.173211
C40   C     C_R   0.270320 0.318598 0.994077 -0.170585
C41   C     C_R   0.770698 0.181759 0.992528 -0.170758
C42   C     C_R   0.193713 0.747919 0.043285 -0.166905
C43   C     C_R   0.229651 0.181453 0.005939 -0.171714
C44   C     C_R   0.806757 0.745725 0.956649 -0.169236
C45   C     C_R   0.144858 0.830490 0.943632 -0.198568
C46   C     C_R   0.855471 0.169632 0.056121 -0.195908
C47   C     C_R   0.855604 0.829128 0.056071 -0.200779
C48   C     C_R   0.144474 0.170252 0.943821 -0.198009
C49   C     C_R   0.644561 0.330433 0.943868 -0.198504
C50   C     C_R   0.355270 0.669707 0.056247 -0.198625
C51   C     C_R   0.355520 0.329760 0.056171 -0.200190
C52   C     C_R   0.644976 0.669906 0.943451 -0.200716
C53   C     C_R   0.118044 0.852433 0.894985 -0.058489
C54   C     C_R   0.882042 0.147557 0.105007 -0.059420
C55   C     C_R   0.882238 0.851802 0.104789 -0.059296
C56   C     C_R   0.117817 0.147951 0.895102 -0.059551
C57   C     C_R   0.617948 0.352427 0.895015 -0.058888
C58   C     C_R   0.382034 0.647685 0.104942 -0.059307
C59   C     C_R   0.382209 0.352003 0.104864 -0.058706
C60   C     C_R   0.617977 0.647885 0.895062 -0.059789
C61   C     C_R   0.136659 0.830048 0.806835 -0.232069
C62   C     C_R   0.863348 0.169956 0.193159 -0.230811
C63   C     C_R   0.863565 0.829795 0.193036 -0.226973
C64   C     C_R   0.136453 0.170195 0.806966 -0.228786
C65   C     C_R   0.636607 0.329959 0.806896 -0.228429
C66   C     C_R   0.363410 0.670064 0.193099 -0.229069
C67   C     C_R   0.363607 0.329691 0.192969 -0.227992
C68   C     C_R   0.636466 0.670229 0.806992 -0.228010
C69   C     C_R   0.182507 0.787939 0.765823 -0.058629
C70   C     C_R   0.817538 0.212162 0.234020 -0.057416
C71   C     C_R   0.817689 0.787382 0.234056 -0.063377
C72   C     C_R   0.182425 0.212456 0.765996 -0.060404
C73   C     C_R   0.682458 0.287826 0.765997 -0.061083
C74   C     C_R   0.317564 0.712181 0.234112 -0.061076
C75   C     C_R   0.317599 0.287494 0.233975 -0.062603
C76   C     C_R   0.682550 0.712251 0.765792 -0.058318
C77   C     C_R   0.209108 0.765984 0.814630 -0.183012
C78   C     C_R   0.791026 0.234109 0.184967 -0.183589
C79   C     C_R   0.791170 0.764732 0.185172 -0.189475
C80   C     C_R   0.209136 0.234580 0.814894 -0.188854
C81   C     C_R   0.709015 0.265970 0.815017 -0.193851
C82   C     C_R   0.291010 0.734207 0.185255 -0.195576
C83   C     C_R   0.290855 0.265436 0.185102 -0.194228
C84   C     C_R   0.709469 0.734193 0.814324 -0.201630
C85   C     C_R   0.195730 0.632078 0.530281 0.804360
C86   C     C_R   0.803774 0.368048 0.471484 0.815352
C87   C     C_R   0.800485 0.630987 0.482176 0.808140
C88   C     C_R   0.196586 0.368313 0.527360 0.803001
C89   C     C_R   0.697543 0.131605 0.523463 0.798584
C90   C     C_R   0.302456 0.868394 0.476538 0.798626
C91   C     C_R   0.302365 0.131593 0.476887 0.804016
C92   C     C_R   0.697635 0.868406 0.523112 0.804706
C93   C     C_R   0.190789 0.787485 0.903601 0.067570
C94   C     C_R   0.809588 0.212670 0.095853 0.067725
C95   C     C_R   0.809695 0.785859 0.096139 0.070724
C96   C     C_R   0.190533 0.213174 0.903896 0.069728
C97   C     C_R   0.690462 0.287428 0.904123 0.069963
C98   C     C_R   0.309360 0.712752 0.096253 0.070089
C99   C     C_R   0.309451 0.286856 0.096105 0.070819
C100  C     C_R   0.691072 0.712833 0.903225 0.072059
C101  C     C_R   0.926498 0.903198 0.066585 0.803549
C102  C     C_R   0.073465 0.096801 0.933421 0.804755
C103  C     C_R   0.073601 0.903392 0.933250 0.802586
C104  C     C_R   0.926459 0.096649 0.066721 0.803698
C105  C     C_R   0.426548 0.403179 0.066565 0.806553
C106  C     C_R   0.573547 0.596742 0.933380 0.805209
C107  C     C_R   0.573533 0.403339 0.933288 0.805201
C108  C     C_R   0.426425 0.596645 0.066726 0.804260
C109  C     C_R   0.027734 0.624516 0.568852 0.097117
C110  C     C_R   0.961795 0.375105 0.463656 0.097298
C111  C     C_R   0.930070 0.621254 0.557414 0.097086
C112  C     C_R   0.047229 0.373001 0.506314 0.086388
C113  C     C_R   0.540665 0.127925 0.528805 0.094727
C114  C     C_R   0.459341 0.872067 0.471168 0.094302
C115  C     C_R   0.458339 0.128535 0.477385 0.093301
C116  C     C_R   0.541671 0.871457 0.522578 0.092736
C117  C     C_R   0.994257 0.684340 0.592236 -0.197600
C118  C     C_R   0.989047 0.311687 0.457719 -0.191824
C119  C     C_R   0.945390 0.682295 0.588127 -0.200593
C120  C     C_R   0.030096 0.310101 0.482488 -0.195093
C121  C     C_R   0.519013 0.192267 0.519000 -0.196021
C122  C     C_R   0.480996 0.807724 0.480966 -0.200897
C123  C     C_R   0.479438 0.192616 0.490421 -0.197043
C124  C     C_R   0.520573 0.807375 0.509538 -0.202150
C125  C     C_R   0.963263 0.561408 0.533613 0.031323
C126  C     C_R   0.022489 0.437169 0.507375 0.032607
C127  C     C_R   0.011269 0.562342 0.542256 0.030101
C128  C     C_R   0.977397 0.437538 0.491287 0.029551
C129  C     C_R   0.478303 0.064203 0.490532 0.030195
C130  C     C_R   0.521706 0.935789 0.509435 0.029879
C131  C     C_R   0.521184 0.063940 0.512583 0.029479
C132  C     C_R   0.478824 0.936052 0.487387 0.029124
C133  C     C_R   0.456265 0.000248 0.479554 -0.043929
C134  C     C_R   0.543742 0.999744 0.520417 -0.043926
C135  C     C_R   0.947408 0.499686 0.504650 -0.043057
C136  C     C_R   0.041126 0.500050 0.528982 -0.043303
C137  C     C_R   0.386690 0.935474 0.458890 0.031780
C138  C     C_R   0.613312 0.064520 0.541095 0.031879
C139  C     C_R   0.613645 0.934585 0.538793 0.033634
C140  C     C_R   0.386359 0.065409 0.461187 0.033645
C141  C     C_R   0.884732 0.436247 0.464845 0.031505
C142  C     C_R   0.110150 0.564729 0.552002 0.036346
C143  C     C_R   0.114421 0.434820 0.536810 0.042937
C144  C     C_R   0.869409 0.561374 0.508981 0.037321
C145  C     C_R   0.332915 0.935232 0.468796 -0.168776
C146  C     C_R   0.667085 0.064766 0.531200 -0.168272
C147  C     C_R   0.667196 0.934853 0.530311 -0.170860
C148  C     C_R   0.332805 0.065144 0.469683 -0.170410
C149  C     C_R   0.835668 0.435041 0.458907 -0.127100
C150  C     C_R   0.162034 0.565398 0.549461 -0.141593
C151  C     C_R   0.163888 0.434719 0.543014 -0.165875
C152  C     C_R   0.827697 0.563439 0.482114 -0.174538
C153  C     C_R   0.304877 0.000065 0.484723 -0.097506
C154  C     C_R   0.695123 0.999933 0.515279 -0.097664
C155  C     C_R   0.813235 0.499963 0.452748 -0.095367
C156  C     C_R   0.184403 0.500067 0.556667 -0.096965
Cu1   Cu    Cu3+1 0.209920 0.785290 0.495070 0.980243
Cu2   Cu    Cu3+1 0.790080 0.214710 0.504930 0.980579
Cu3   Cu    Cu3+1 0.790080 0.785290 0.504930 0.979248
Cu4   Cu    Cu3+1 0.209920 0.214710 0.495070 0.975168
Cu5   Cu    Cu3+1 0.709920 0.285290 0.495070 0.941506
Cu6   Cu    Cu3+1 0.290080 0.714710 0.504930 0.940754
Cu7   Cu    Cu3+1 0.290080 0.285290 0.504930 0.931172
Cu8   Cu    Cu3+1 0.709920 0.714710 0.495070 0.924008
Cu9   Cu    Cu3+1 0.495240 0.500000 0.924150 0.936741
Cu10  Cu    Cu3+1 0.504760 0.500000 0.075850 0.936335
Cu11  Cu    Cu3+1 0.995240 0.000000 0.924150 0.945792
Cu12  Cu    Cu3+1 0.004760 0.000000 0.075850 0.948446
H1    H     H_    0.535919 0.757082 0.518550 0.136095
H2    H     H_    0.464094 0.242909 0.481403 0.136340
H3    H     H_    0.466033 0.757691 0.469554 0.136400
H4    H     H_    0.533975 0.242300 0.530412 0.136438
H5    H     H_    0.049370 0.260073 0.480869 0.140609
H6    H     H_    0.920153 0.729025 0.607096 0.137821
H7    H     H_    0.977139 0.262884 0.437618 0.140501
H8    H     H_    0.005676 0.732578 0.614236 0.139610
H9    H     H_    0.590629 0.822380 0.569679 0.179538
H10   H     H_    0.409372 0.177613 0.430296 0.179171
H11   H     H_    0.410025 0.824309 0.422614 0.177101
H12   H     H_    0.589975 0.175684 0.577370 0.177108
H13   H     H_    0.093680 0.320797 0.552953 0.182801
H14   H     H_    0.854797 0.662783 0.580374 0.170873
H15   H     H_    0.912167 0.330105 0.412672 0.170160
H16   H     H_    0.086638 0.673300 0.597867 0.169022
H17   H     H_    0.150104 0.744946 0.077724 0.134781
H18   H     H_    0.785517 0.128159 0.987130 0.132212
H19   H     H_    0.850316 0.741930 0.922585 0.133371
H20   H     H_    0.215011 0.127689 0.010135 0.132778
H21   H     H_    0.714541 0.371964 0.012837 0.134080
H22   H     H_    0.350067 0.755300 0.922097 0.131420
H23   H     H_    0.284964 0.372360 0.989877 0.134797
H24   H     H_    0.650580 0.756578 0.076666 0.131773
H25   H     H_    0.300091 0.786647 0.840976 0.131741
H26   H     H_    0.765085 0.340678 0.093024 0.142337
H27   H     H_    0.700668 0.786791 0.158302 0.132292
H28   H     H_    0.234636 0.341357 0.908827 0.141145
H29   H     H_    0.734976 0.159445 0.906948 0.134362
H30   H     H_    0.200076 0.713600 0.158837 0.134333
H31   H     H_    0.265335 0.158692 0.091183 0.134721
H32   H     H_    0.800206 0.711683 0.840899 0.129645
H33   H     H_    0.131399 0.849133 0.011436 0.149460
H34   H     H_    0.869953 0.152552 0.987468 0.150144
H35   H     H_    0.869111 0.847518 0.988226 0.148585
H36   H     H_    0.130012 0.153287 0.012451 0.150096
H37   H     H_    0.630099 0.347548 0.012505 0.148790
H38   H     H_    0.368741 0.651083 0.988432 0.148963
H39   H     H_    0.369964 0.346757 0.987558 0.149134
H40   H     H_    0.631574 0.651300 0.011180 0.148934
H41   H     H_    0.116599 0.847754 0.768849 0.176411
H42   H     H_    0.883315 0.152170 0.231258 0.177027
H43   H     H_    0.883535 0.848088 0.231128 0.178322
H44   H     H_    0.116362 0.152210 0.768935 0.177409
H45   H     H_    0.616589 0.347654 0.768841 0.173987
H46   H     H_    0.383448 0.652321 0.231103 0.173597
H47   H     H_    0.383741 0.347600 0.230963 0.173935
H48   H     H_    0.616179 0.652501 0.769166 0.173779
H49   H     H_    0.244621 0.732965 0.783086 0.154261
H50   H     H_    0.754636 0.265453 0.217082 0.152459
H51   H     H_    0.755534 0.731601 0.216688 0.151383
H52   H     H_    0.245681 0.265961 0.782786 0.151686
H53   H     H_    0.745429 0.234675 0.782883 0.151924
H54   H     H_    0.255502 0.767235 0.216790 0.151274
H55   H     H_    0.254289 0.234096 0.217227 0.151235
H56   H     H_    0.745268 0.767018 0.782668 0.148265
O1    O     O_R   0.255040 0.869590 0.478480 -0.537361
O2    O     O_R   0.744960 0.130410 0.521520 -0.537978
O3    O     O_R   0.744960 0.869590 0.521520 -0.537067
O4    O     O_R   0.255040 0.130410 0.478480 -0.537913
O5    O     O_R   0.755040 0.369590 0.478480 -0.579408
O6    O     O_R   0.244960 0.630410 0.521520 -0.581148
O7    O     O_R   0.244960 0.369590 0.521520 -0.599868
O8    O     O_R   0.755040 0.630410 0.478480 -0.606776
O9    O     O_R   0.182050 0.796550 0.624440 -0.595830
O10   O     O_R   0.817950 0.203450 0.375560 -0.594977
O11   O     O_R   0.817950 0.796550 0.375560 -0.584761
O12   O     O_R   0.182050 0.203450 0.624440 -0.592351
O13   O     O_R   0.682050 0.296550 0.624440 -0.597669
O14   O     O_R   0.317950 0.703450 0.375560 -0.597334
O15   O     O_R   0.317950 0.296550 0.375560 -0.596332
O16   O     O_R   0.682050 0.703450 0.624440 -0.597349
O17   O     O_R   0.250530 0.763330 0.367210 -0.583386
O18   O     O_R   0.749470 0.236670 0.632790 -0.583314
O19   O     O_R   0.749470 0.763330 0.632790 -0.596580
O20   O     O_R   0.250530 0.236670 0.367210 -0.584730
O21   O     O_R   0.750530 0.263330 0.367210 -0.582326
O22   O     O_R   0.249470 0.736670 0.632790 -0.582743
O23   O     O_R   0.249470 0.263330 0.632790 -0.587210
O24   O     O_R   0.750530 0.736670 0.367210 -0.588856
O25   O     O_R   0.177260 0.690030 0.513710 -0.594937
O26   O     O_R   0.822740 0.309970 0.486290 -0.598623
O27   O     O_R   0.822740 0.690030 0.486290 -0.588901
O28   O     O_R   0.177260 0.309970 0.513710 -0.598844
O29   O     O_R   0.677260 0.190030 0.513710 -0.606535
O30   O     O_R   0.322740 0.809970 0.486290 -0.607069
O31   O     O_R   0.322740 0.190030 0.486290 -0.607441
O32   O     O_R   0.677260 0.809970 0.513710 -0.608050
O33   O     O_R   0.051640 0.926880 0.885090 -0.588880
O34   O     O_R   0.948360 0.073120 0.114910 -0.587913
O35   O     O_R   0.948360 0.926880 0.114910 -0.587523
O36   O     O_R   0.051640 0.073120 0.885090 -0.587915
O37   O     O_R   0.551640 0.426880 0.885090 -0.589972
O38   O     O_R   0.448360 0.573120 0.114910 -0.590351
O39   O     O_R   0.448360 0.426880 0.114910 -0.590168
O40   O     O_R   0.551640 0.573120 0.885090 -0.590549
O41   O     O_R   0.940620 0.926560 0.986760 -0.593015
O42   O     O_R   0.059380 0.073440 0.013240 -0.592503
O43   O     O_R   0.059380 0.926560 0.013240 -0.591836
O44   O     O_R   0.940620 0.073440 0.986760 -0.592279
O45   O     O_R   0.440620 0.426560 0.986760 -0.592392
O46   O     O_R   0.559380 0.573440 0.013240 -0.592623
O47   O     O_R   0.559380 0.426560 0.013240 -0.592519
O48   O     O_R   0.440620 0.573440 0.986760 -0.592483
C157  C     C_2   0.244866 0.999880 0.535142 0.466971
H57   H     H_    0.225169 0.999955 0.607722 0.022695
O49   O     O_2   0.217596 0.999705 0.495744 -0.504953
C158  C     C_2   0.755135 0.000119 0.464886 0.466641
H58   H     H_    0.774844 0.000044 0.392307 0.022317
O50   O     O_2   0.782392 0.000295 0.504308 -0.504638
C159  C     C_2   0.777946 0.500362 0.408729 0.446337
H59   H     H_    0.735786 0.514787 0.445751 0.087647
O51   O     O_2   0.795694 0.481328 0.330986 -0.545714
C160  C     C_2   0.226213 0.500514 0.587294 0.456877
H60   H     H_    0.268182 0.491215 0.540270 0.082652
O52   O     O_2   0.213792 0.513460 0.665375 -0.543864

loop_
_geom_bond_atom_site_label_1
_geom_bond_atom_site_label_2
_ccdc_geom_bond_type
C103  O33   A    
Cu4   O28   S    
Cu7   O23   S    
C34   C42   A    
C32   H28   S    
C16   C113  A    
C110  C118  A    
C27   C99   S    
C160  H60   S    
C13   C139  A    
C117  C119  A    
Cu6   O14   S    
C30   C38   A    
Cu11  O44   S    
C109  C127  A    
C111  C125  A    
C108  O38   A    
C103  O43   A    
Cu2   O2    S    
C88   O28   A    
C83   H55   S    
C125  C135  A    
C143  C151  A    
C126  C136  A    
C19   C141  A    
C92   C147  S    
C82   C98   A    
C130  C134  A    
C73   C81   A    
C115  C123  A    
C84   C100  A    
Cu4   Cu7   S    
C36   H32   S    
C127  C136  A    
C128  C135  A    
C57   C65   A    
C112  C120  A    
C27   C35   A    
C21   C29   A    
C23   C31   A    
C24   C32   A    
C65   H45   S    
C5    C70   S    
C79   H51   S    
C146  C154  A    
C105  O39   A    
C106  O40   A    
C107  O37   A    
Cu5   O5    S    
C63   C71   A    
C129  C133  A    
C36   C44   A    
C148  C153  A    
Cu7   O15   S    
C54   C104  S    
C7    O12   A    
C8    C71   S    
C48   C96   A    
C86   O5    A    
C6    O22   A    
C16   C138  A    
Cu1   O25   S    
C82   H54   S    
Cu8   O8    S    
C60   C68   A    
C24   C96   S    
C149  C155  A    
Cu3   O27   S    
C31   H27   S    
C77   H49   S    
C21   C93   S    
C78   C94   A    
C29   H25   S    
C101  O35   A    
C4    O15   A    
C23   C95   S    
Cu10  O38   S    
C118  C120  A    
C121  C123  A    
C49   C97   A    
C21   C42   A    
C8    O11   A    
C116  C130  A    
Cu4   O12   S    
C125  C127  A    
C24   C43   A    
C64   H44   S    
C153  C157  S    
C10   C138  A    
Cu1   Cu6   S    
C14   C115  A    
C110  C128  A    
C15   C137  A    
C9    C133  A    
C6    C69   S    
C85   O25   A    
Cu9   O48   S    
C15   H11   S    
C91   O4    A    
Cu10  O47   S    
C69   C77   A    
C89   O2    A    
Cu6   O30   S    
C45   C93   A    
C71   C79   A    
C35   H31   S    
C87   O27   A    
C62   C70   A    
C91   O31   A    
C1    C74   S    
Cu12  O35   S    
C119  H6    S    
C9    C140  A    
C51   H39   S    
C66   C74   A    
C7    O23   A    
C49   C57   A    
C111  C119  A    
Cu2   O18   S    
C155  C159  S    
C52   C60   A    
C59   C67   A    
C53   C61   A    
C92   O3    A    
C102  O36   A    
C55   C63   A    
C56   C64   A    
C35   C43   A    
C3    O16   A    
C159  O51   D    
C37   H22   S    
C90   O30   A    
C45   C53   A    
C22   C94   S    
C50   C98   A    
C7    C72   S    
C52   C100  A    
Cu7   O31   S    
Cu5   O21   S    
C25   C38   A    
C2    O18   A    
C34   H30   S    
C46   C94   A    
C27   C40   A    
C62   H42   S    
C104  O34   A    
Cu4   O20   S    
C154  C158  S    
C11   C141  A    
C8    O24   A    
C14   H10   S    
C2    C73   S    
C50   H38   S    
C42   H17   S    
C25   C97   S    
C14   C140  A    
C87   C152  S    
C88   C151  S    
C67   C75   A    
C122  C124  A    
C60   C106  S    
C126  C128  A    
C22   C30   A    
Cu3   O11   S    
C63   H43   S    
C2    O13   A    
C68   C76   A    
Cu11  O33   S    
C48   H36   S    
C160  O52   D    
C12   C143  A    
C20   H16   S    
C5    O10   A    
C56   C102  S    
C72   C80   A    
Cu2   O10   S    
C156  C160  S    
C138  C146  A    
C157  O49   D    
C41   H18   S    
C123  H2    S    
C44   H19   S    
C17   H13   S    
C121  H4    S    
C113  C121  A    
C158  H58   S    
C122  H3    S    
C12   C136  A    
Cu3   Cu8   S    
C4    O20   A    
C16   H12   S    
C25   C33   A    
C131  C134  A    
C76   C84   A    
C109  C117  A    
C59   C105  S    
Cu9   O45   S    
C137  C145  A    
C90   C145  S    
C22   C41   A    
Cu5   O13   S    
C87   O8    A    
Cu12  O34   S    
C85   C150  S    
C4    C75   S    
Cu2   Cu5   S    
C9    C137  A    
C124  H1    S    
C159  H59   S    
C112  C126  A    
Cu1   O1    S    
C83   C99   A    
Cu8   O32   S    
C74   C82   A    
Cu3   O19   S    
C105  O45   A    
C107  O47   A    
C50   C58   A    
C104  O44   A    
C108  O48   A    
C84   H56   S    
Cu11  Cu12  S    
C54   C62   A    
C28   C39   A    
C23   C44   A    
Cu4   O4    S    
C66   H46   S    
C130  C132  A    
Cu11  O41   S    
C79   C95   A    
C11   C135  A    
C152  C155  A    
C38   H21   S    
C46   C54   A    
Cu9   O40   S    
C47   H35   S    
C61   H41   S    
C151  C156  A    
C18   C111  A    
Cu6   O6    S    
C92   O32   A    
C49   H37   S    
Cu11  O36   S    
Cu12  O43   S    
C101  O41   A    
C116  C124  A    
C85   O6    A    
Cu2   O26   S    
C5    O21   A    
C26   C37   A    
C81   H53   S    
C17   C143  A    
C33   C41   A    
C142  C150  A    
C18   C144  A    
C78   H50   S    
C39   H24   S    
C75   C83   A    
C30   H26   S    
C40   H23   S    
C43   H20   S    
C53   C103  S    
C13   H9    S    
C77   C93   A    
C12   C142  A    
C58   C108  S    
C68   H48   S    
C13   C116  A    
C46   H34   S    
C88   O7    A    
C28   C36   A    
C144  C152  A    
C29   C37   A    
C86   O26   A    
Cu9   Cu10  S    
C70   C78   A    
C90   O1    A    
C67   H47   S    
C140  C148  A    
Cu5   O29   S    
C141  C149  A    
C139  C147  A    
Cu7   O7    S    
C18   H14   S    
C65   C73   A    
C147  C154  A    
Cu1   O17   S    
C58   C66   A    
C132  C133  A    
Cu8   O16   S    
Cu3   O3    S    
C80   C96   A    
C11   C144  A    
C145  C153  A    
C28   C100  S    
C64   C72   A    
C89   O29   A    
Cu10  O46   S    
C91   C148  S    
C26   C34   A    
C51   C99   A    
C89   C146  S    
C20   C142  A    
C86   C149  S    
C19   H15   S    
Cu10  O39   S    
Cu6   O22   S    
C33   H29   S    
C157  H57   S    
C15   C114  A    
C3    O19   A    
C3    C76   S    
C1    O17   A    
C26   C98   S    
C117  H8    S    
C57   C107  S    
C6    O9    A    
C158  O50   D    
C118  H7    S    
C106  O46   A    
C102  O42   A    
Cu9   O37   S    
C51   C59   A    
C17   C112  A    
C47   C55   A    
C115  C129  A    
C19   C110  A    
C61   C69   A    
C48   C56   A    
C113  C131  A    
C52   H40   S    
C114  C132  A    
C10   C134  A    
Cu12  O42   S    
C80   H52   S    
C1    O14   A    
C55   C101  S    
Cu1   O9    S    
C81   C97   A    
C31   C39   A    
C32   C40   A    
Cu8   O24   S    
C20   C109  A    
C114  C122  A    
C120  H5    S    
C45   H33   S    
C10   C139  A    
C47   C95   A    
C150  C156  A    
C129  C131  A    
