data_mof_unit_11066.cif
_audit_creation_date              2012-10-26T17:12:31-0400
_audit_creation_method            fapswitch 2.2
_symmetry_space_group_name_H-M    P1
_symmetry_Int_Tables_number       1
_space_group_crystal_system       triclinic
_cell_length_a                    16.729501
_cell_length_b                    16.685031
_cell_length_c                    16.845384
_cell_angle_alpha                 67.592798
_cell_angle_beta                  67.879449
_cell_angle_gamma                 67.685567
_cell_volume                      3870.98794408

loop_
_atom_site_label
_atom_site_type_symbol
_atom_type_description
_atom_site_fract_x
_atom_site_fract_y
_atom_site_fract_z
_atom_type_partial_charge
C1    C     C_R   0.030636 0.827924 0.563931 0.593075
C2    C     C_R   0.015147 0.569822 0.830972 0.598101
C3    C     C_R   0.171950 0.969176 0.436466 0.584611
C4    C     C_R   0.829980 0.017728 0.568601 0.591778
C5    C     C_R   0.450398 0.073746 0.700940 0.122273
C6    C     C_R   0.499764 0.049578 0.271254 0.112428
C7    C     C_R   0.102557 0.680718 0.461796 0.108659
C8    C     C_R   0.896874 0.319493 0.538262 0.113249
C9    C     C_R   0.701931 0.448420 0.074760 0.113973
C10   C     C_R   0.298094 0.551710 0.925266 0.115024
C11   C     C_R   0.300226 0.921986 0.548302 0.122089
C12   C     C_R   0.969162 0.172081 0.436150 0.581395
C13   C     C_R   0.729660 0.947999 0.502923 0.112921
C14   C     C_R   0.550419 0.298526 0.925404 0.121241
C15   C     C_R   0.449234 0.700919 0.075508 0.130847
C16   C     C_R   0.066123 0.486773 0.265429 0.108478
C17   C     C_R   0.933558 0.513142 0.734708 0.106751
C18   C     C_R   0.543608 0.006712 0.553009 -0.056975
C19   C     C_R   0.447951 0.991033 0.456484 -0.056970
C20   C     C_R   0.005404 0.550403 0.548292 -0.058511
C21   C     C_R   0.994109 0.449715 0.451793 -0.055520
C22   C     C_R   0.543415 0.543058 0.022650 -0.057002
C23   C     C_R   0.827666 0.563338 0.031690 0.592186
C24   C     C_R   0.456983 0.457292 0.976754 -0.057931
C25   C     C_R   0.587276 0.992647 0.467894 0.057488
C26   C     C_R   0.410506 0.984662 0.548239 0.056267
C27   C     C_R   0.961614 0.480796 0.594397 0.051757
C28   C     C_R   0.037938 0.519294 0.405686 0.051811
C29   C     C_R   0.454823 0.586224 0.014662 0.049924
C30   C     C_R   0.545656 0.414213 0.984537 0.053394
C31   C     C_R   0.533419 0.005520 0.413679 0.058122
C32   C     C_R   0.451511 0.012344 0.589794 0.056985
C33   C     C_R   0.414806 0.546513 0.983350 0.049999
C34   C     C_R   0.172343 0.436637 0.968467 0.593762
C35   C     C_R   0.585567 0.453825 0.016081 0.052607
C36   C     C_R   0.950741 0.434381 0.544620 0.051616
C37   C     C_R   0.048784 0.565740 0.455464 0.049119
C38   C     C_R   0.403358 0.053132 0.659986 0.138501
C39   C     C_R   0.556299 0.042228 0.320262 0.131571
C40   C     C_R   0.109955 0.619303 0.418756 0.144810
C41   C     C_R   0.889541 0.380853 0.581337 0.148587
C42   C     C_R   0.657942 0.403459 0.055035 0.136411
C43   C     C_R   0.342001 0.596727 0.945010 0.132581
C44   C     C_R   0.340728 0.942538 0.595626 0.138565
C45   C     C_R   0.563668 0.030445 0.828015 0.587042
C46   C     C_R   0.681151 0.955541 0.446024 0.131022
C47   C     C_R   0.595390 0.341363 0.946467 0.139211
C48   C     C_R   0.404995 0.658811 0.053063 0.174023
C49   C     C_R   0.064905 0.542968 0.310749 0.138023
C50   C     C_R   0.934747 0.457017 0.689335 0.138286
C51   C     C_R   0.545729 0.043814 0.679070 0.010878
C52   C     C_R   0.431214 0.004135 0.313302 0.002877
C53   C     C_R   0.049896 0.674014 0.550342 0.008646
C54   C     C_R   0.949603 0.326099 0.449768 0.009887
C55   C     C_R   0.675838 0.544023 0.052396 0.008482
C56   C     C_R   0.431283 0.982395 0.170047 0.585112
C57   C     C_R   0.324273 0.456102 0.947638 0.007346
C58   C     C_R   0.322172 0.953179 0.453647 0.009271
C59   C     C_R   0.686863 0.993879 0.570498 0.002211
C60   C     C_R   0.455277 0.324823 0.947531 0.007142
C61   C     C_R   0.544705 0.675066 0.053019 -0.014143
C62   C     C_R   0.015535 0.423515 0.309459 -0.000246
C63   C     C_R   0.984015 0.576502 0.690667 -0.000062
C64   C     C_R   0.596618 0.046751 0.728906 0.008444
C65   C     C_R   0.391658 0.979737 0.266503 0.015875
C66   C     C_R   0.047425 0.728170 0.599144 0.016638
C67   C     C_R   0.436476 0.172474 0.968458 0.595136
C68   C     C_R   0.952055 0.271892 0.401007 0.010429
C69   C     C_R   0.727125 0.595104 0.053855 0.013090
C70   C     C_R   0.272900 0.404933 0.946478 0.011356
C71   C     C_R   0.271577 0.951612 0.403149 0.009721
C72   C     C_R   0.733451 0.019559 0.608904 0.016587
C73   C     C_R   0.404340 0.273398 0.946308 0.012419
C74   C     C_R   0.595780 0.726635 0.053774 -0.019575
C75   C     C_R   0.985130 0.388060 0.263975 0.018730
C76   C     C_R   0.014368 0.611972 0.736159 0.019618
C77   C     C_R   0.685127 0.052216 0.685021 0.048814
C78   C     C_R   0.563689 0.827568 0.031225 0.554957
C79   C     C_R   0.314921 0.947317 0.314667 0.047729
C80   C     C_R   0.050509 0.686200 0.687609 0.050154
C81   C     C_R   0.948868 0.313825 0.312579 0.049666
C82   C     C_R   0.682784 0.682259 0.065888 0.054575
C83   C     C_R   0.317166 0.317806 0.934567 0.047058
C84   C     C_R   0.592092 0.015375 0.600726 -0.051592
C85   C     C_R   0.400679 0.982151 0.407718 -0.052252
C86   C     C_R   0.012763 0.600228 0.596470 -0.055077
C87   C     C_R   0.986745 0.399867 0.403634 -0.053449
C88   C     C_R   0.588700 0.588090 0.041118 -0.042539
C89   C     C_R   0.984581 0.430228 0.169109 0.597452
C90   C     C_R   0.411491 0.412066 0.958811 -0.052751
Cu1   Cu    Cu3+1 0.995180 0.995180 0.424630 0.955213
Cu2   Cu    Cu3+1 0.004820 0.004820 0.575370 0.974964
Cu3   Cu    Cu3+1 0.995180 0.424630 0.995180 0.947438
Cu4   Cu    Cu3+1 0.004820 0.575370 0.004820 0.947718
Cu5   Cu    Cu3+1 0.424630 0.995180 0.995180 0.952723
Cu6   Cu    Cu3+1 0.575370 0.004820 0.004820 0.948600
H1    H     H_    0.351038 0.111593 0.806028 0.242420
H2    H     H_    0.722688 0.366465 0.194458 0.211017
H3    H     H_    0.277185 0.633856 0.805654 0.204342
H4    H     H_    0.188636 0.652443 0.894871 0.244832
H5    H     H_    0.194576 0.882852 0.646446 0.240592
H6    H     H_    0.286793 0.797242 0.622996 0.205078
H7    H     H_    0.857892 0.893508 0.437305 0.245045
H8    H     H_    0.806604 0.818406 0.521309 0.218748
H9    H     H_    0.650701 0.189586 0.893686 0.240123
H10   H     H_    0.631433 0.279990 0.805238 0.204171
H11   H     H_    0.436141 0.761127 0.168094 0.222791
H12   H     H_    0.374096 0.197883 0.714613 0.208146
H13   H     H_    0.358195 0.814272 0.108156 0.261890
H14   H     H_    0.191914 0.470410 0.182521 0.228591
H15   H     H_    0.113086 0.553059 0.135322 0.249029
H16   H     H_    0.887038 0.446563 0.864811 0.249100
H17   H     H_    0.807926 0.529137 0.817946 0.229291
H18   H     H_    0.287666 0.155103 0.664648 0.222167
H19   H     H_    0.280524 0.059097 0.749125 0.234887
H20   H     H_    0.603384 0.152266 0.251614 0.221952
H21   H     H_    0.672528 0.055595 0.225109 0.235021
H22   H     H_    0.244568 0.568700 0.376255 0.223410
H23   H     H_    0.567493 0.102647 0.143946 0.245653
H24   H     H_    0.199162 0.657912 0.300207 0.234423
H25   H     H_    0.800254 0.342245 0.699814 0.224596
H26   H     H_    0.754960 0.431716 0.623868 0.218763
H27   H     H_    0.660034 0.288181 0.157036 0.217276
H28   H     H_    0.745406 0.278164 0.063385 0.232596
H29   H     H_    0.253780 0.721572 0.937838 0.230072
H30   H     H_    0.338979 0.712547 0.843798 0.217723
H31   H     H_    0.337393 0.839150 0.709276 0.213539
H32   H     H_    0.251350 0.933883 0.718022 0.233850
H33   H     H_    0.750674 0.845464 0.399468 0.221675
H34   H     H_    0.483310 0.178811 0.193541 0.221918
H35   H     H_    0.777628 0.942261 0.331044 0.233332
H36   H     H_    0.710955 0.338405 0.846660 0.217726
H37   H     H_    0.719106 0.251763 0.940549 0.230323
H38   H     H_    0.281236 0.747943 0.062014 0.238939
H39   H     H_    0.290871 0.659751 0.154088 0.239951
H40   H     H_    0.025935 0.665319 0.226001 0.219996
H41   H     H_    0.138078 0.624865 0.211537 0.241031
H42   H     H_    0.861699 0.375007 0.788542 0.241207
H43   H     H_    0.973863 0.334598 0.773926 0.220162
H44   H     H_    0.743342 0.148101 0.657667 0.225643
H45   H     H_    0.146215 0.780527 0.359254 0.237120
H46   H     H_    0.674559 0.133484 0.756565 0.239486
H47   H     H_    0.340235 0.852775 0.255883 0.213585
H48   H     H_    0.241156 0.868394 0.324199 0.242541
H49   H     H_    0.133773 0.756740 0.675932 0.239888
H50   H     H_    0.148361 0.656024 0.744615 0.229648
H51   H     H_    0.851101 0.343840 0.255510 0.229798
H52   H     H_    0.865553 0.242840 0.324226 0.231722
H53   H     H_    0.673076 0.758781 0.140316 0.222170
H54   H     H_    0.759617 0.672306 0.140226 0.222471
H55   H     H_    0.326559 0.241599 0.860598 0.234307
H56   H     H_    0.226145 0.702626 0.409851 0.216185
H57   H     H_    0.240270 0.327740 0.860338 0.220812
H58   H     H_    0.852068 0.219853 0.640575 0.243597
H59   H     H_    0.772953 0.298767 0.589394 0.206121
H60   H     H_    0.811230 0.347539 0.105292 0.246893
N1    N     N_3   0.402657 0.135602 0.754520 -0.629320
N2    N     N_3   0.396038 0.751933 0.139269 -0.651875
N3    N     N_3   0.126488 0.487770 0.177962 -0.592805
N4    N     N_3   0.873411 0.511897 0.822300 -0.592539
N5    N     N_3   0.307164 0.084732 0.680694 -0.616494
N6    N     N_3   0.629107 0.083009 0.277658 -0.622639
N7    N     N_3   0.189803 0.598208 0.349079 -0.617504
N8    N     N_3   0.809729 0.401965 0.651047 -0.621204
N9    N     N_3   0.676776 0.306929 0.087419 -0.629877
N10   N     N_3   0.322453 0.693314 0.913391 -0.615631
N11   N     N_3   0.320311 0.909500 0.691121 -0.614867
N12   N     N_3   0.501942 0.114534 0.185358 -0.587884
N13   N     N_3   0.724590 0.914756 0.373807 -0.619836
N14   N     N_3   0.691541 0.321001 0.916205 -0.631339
N15   N     N_3   0.308937 0.678401 0.084472 -0.622186
N16   N     N_3   0.076012 0.631150 0.259504 -0.621740
N17   N     N_3   0.923718 0.368792 0.740506 -0.618263
N18   N     N_3   0.723919 0.096881 0.713405 -0.576690
N19   N     N_3   0.285085 0.904471 0.275428 -0.571398
N20   N     N_3   0.097511 0.713023 0.725315 -0.578105
N21   N     N_3   0.901856 0.286823 0.274967 -0.571220
N22   N     N_3   0.723575 0.723148 0.096596 -0.558406
N23   N     N_3   0.158870 0.740452 0.420681 -0.635200
N24   N     N_3   0.276038 0.276988 0.904252 -0.566398
N25   N     N_3   0.840028 0.260340 0.578983 -0.637414
N26   N     N_3   0.759996 0.397552 0.132417 -0.620309
N27   N     N_3   0.239973 0.602555 0.867647 -0.620614
N28   N     N_3   0.246559 0.859613 0.594907 -0.628941
N29   N     N_3   0.815571 0.882502 0.502191 -0.591347
N30   N     N_3   0.600697 0.241633 0.866840 -0.626072
O1    O     O_R   0.124540 0.978640 0.385460 -0.489574
O2    O     O_R   0.124540 0.385460 0.978640 -0.484913
O3    O     O_R   0.021360 0.875460 0.614540 -0.495482
O4    O     O_R   0.978640 0.124540 0.385460 -0.492930
O5    O     O_R   0.013780 0.867370 0.487190 -0.490089
O6    O     O_R   0.986220 0.132630 0.512810 -0.486719
O7    O     O_R   0.867370 0.487190 0.013780 -0.492416
O8    O     O_R   0.132630 0.512810 0.986220 -0.492540
O9    O     O_R   0.487190 0.013780 0.867370 -0.489544
O10   O     O_R   0.512810 0.986220 0.132630 -0.504591
O11   O     O_R   0.512810 0.132630 0.986220 -0.490988
O12   O     O_R   0.875460 0.021360 0.614540 -0.471042
O13   O     O_R   0.487190 0.867370 0.013780 -0.519054
O14   O     O_R   0.986220 0.512810 0.132630 -0.515211
O15   O     O_R   0.013780 0.487190 0.867370 -0.515697
O16   O     O_R   0.132630 0.986220 0.512810 -0.494358
O17   O     O_R   0.867370 0.013780 0.487190 -0.505636
O18   O     O_R   0.978640 0.385460 0.124540 -0.470977
O19   O     O_R   0.021360 0.614540 0.875460 -0.471106
O20   O     O_R   0.385460 0.124540 0.978640 -0.482142
O21   O     O_R   0.614540 0.875460 0.021360 -0.473374
O22   O     O_R   0.614540 0.021360 0.875460 -0.487911
O23   O     O_R   0.385460 0.978640 0.124540 -0.482866
O24   O     O_R   0.875460 0.614540 0.021360 -0.485028

loop_
_geom_bond_atom_site_label_1
_geom_bond_atom_site_label_2
_ccdc_geom_bond_type
C8    N25   S    
C25   C31   A    
C21   C87   A    
C26   C32   A    
Cu3   Cu4   S    
C65   C79   A    
C22   C29   A    
H30   N10   S    
C64   C77   A    
C23   C69   S    
Cu5   Cu6   S    
H7    N29   S    
H47   N19   S    
C19   C31   A    
C47   N14   S    
C71   C79   A    
C26   C44   A    
H46   N18   S    
C21   C36   A    
H8    N29   S    
C12   C68   S    
C9    C42   A    
H52   N21   S    
C16   C62   A    
C83   N24   S    
C50   N17   S    
C68   C81   A    
H20   N6    S    
C52   C85   A    
C37   C40   A    
C32   C38   A    
C54   C87   A    
C14   N30   S    
Cu2   O16   S    
C58   C71   A    
Cu6   O22   S    
C54   C68   A    
C63   C76   A    
C56   C65   S    
H58   N25   S    
C29   C33   A    
C60   C73   A    
H26   N8    S    
C19   C26   A    
C55   C88   A    
Cu3   O18   S    
H4    N27   S    
H15   N3    S    
C78   O21   A    
H41   N16   S    
C9    N26   S    
H24   N7    S    
C56   O10   A    
C38   N5    S    
H40   N16   S    
C20   C86   A    
H32   N11   S    
C18   C84   A    
C7    C40   A    
C53   C86   A    
C67   C73   S    
C22   C88   A    
C57   C70   A    
C11   C58   A    
Cu3   O15   S    
C34   C70   S    
H3    N27   S    
C27   C50   A    
C59   C72   A    
H54   N22   S    
C34   O8    A    
Cu5   O20   S    
C4    O12   A    
H57   N24   S    
H17   N4    S    
H45   N23   S    
C5    C38   A    
C16   N3    S    
C10   N27   S    
C23   O7    A    
C36   C41   A    
C2    O15   A    
H36   N14   S    
C15   C48   A    
C74   C82   A    
Cu2   O12   S    
H13   N2    S    
H23   N12   S    
H14   N3    S    
C17   N4    S    
C24   C33   A    
Cu6   O11   S    
C12   O6    A    
Cu1   O4    S    
C6    N12   S    
H22   N7    S    
C13   N29   S    
C57   C90   A    
C51   C64   A    
C29   C48   A    
C33   C43   A    
C79   N19   S    
C30   C47   A    
C10   C57   A    
C16   C49   A    
C80   N20   S    
C15   N2    S    
C8    C54   A    
Cu1   Cu2   S    
H60   N26   S    
C75   C81   A    
Cu6   O21   S    
H12   N1    S    
C67   O11   A    
H25   N8    S    
Cu1   O5    S    
H50   N20   S    
C44   N11   S    
H1    N1    S    
H9    N30   S    
H19   N5    S    
C3    C71   S    
H37   N14   S    
C72   C77   A    
C70   C83   A    
C61   C88   A    
C48   N15   S    
C28   C49   A    
H51   N21   S    
H49   N20   S    
C82   N22   S    
H42   N17   S    
H59   N25   S    
C1    C66   S    
C15   C61   A    
C7    N23   S    
C11   C44   A    
C2    O19   A    
C8    C41   A    
C39   N6    S    
C34   O2    A    
C53   C66   A    
C67   O20   A    
H10   N30   S    
C55   C69   A    
H5    N28   S    
C40   N7    S    
C9    C55   A    
C1    O5    A    
H31   N11   S    
C20   C27   A    
C21   C28   A    
Cu4   O24   S    
C45   O22   A    
H39   N15   S    
H38   N15   S    
C63   C86   A    
C4    O17   A    
C62   C75   A    
H43   N17   S    
C18   C32   A    
C78   O13   A    
C7    C53   A    
C58   C85   A    
C30   C35   A    
C4    C72   S    
H11   N2    S    
C2    C76   S    
Cu2   O3    S    
C43   N10   S    
H33   N13   S    
C14   C60   A    
C89   O14   A    
Cu1   O1    S    
H35   N13   S    
Cu5   O9    S    
H16   N4    S    
C10   C43   A    
Cu4   O8    S    
C45   O9    A    
Cu3   O7    S    
C11   N28   S    
C76   C80   A    
C19   C85   A    
C24   C90   A    
C17   C50   A    
C49   N16   S    
C42   N9    S    
C14   C47   A    
C13   C59   A    
C23   O24   A    
C60   C90   A    
H2    N26   S    
C66   C80   A    
C62   C87   A    
C45   C64   S    
C5    N1    S    
C59   C84   A    
C46   N13   S    
C27   C36   A    
H6    N28   S    
Cu4   O19   S    
H56   N23   S    
C22   C35   A    
H29   N10   S    
C81   N21   S    
C56   O23   A    
C18   C25   A    
C17   C63   A    
C20   C37   A    
H55   N24   S    
C13   C46   A    
C28   C37   A    
C51   C84   A    
H48   N19   S    
H53   N22   S    
C35   C42   A    
C31   C39   A    
C69   C82   A    
Cu4   O14   S    
C12   O4    A    
C77   N18   S    
H21   N6    S    
C24   C30   A    
H18   N5    S    
C75   C89   S    
H28   N9    S    
H27   N9    S    
Cu3   O2    S    
H34   N12   S    
Cu6   O10   S    
C89   O18   A    
H44   N18   S    
C74   C78   S    
C41   N8    S    
C3    O16   A    
C6    C39   A    
C5    C51   A    
C6    C52   A    
Cu5   O13   S    
C3    O1    A    
C25   C46   A    
C73   C83   A    
Cu1   O17   S    
C52   C65   A    
Cu2   O6    S    
C61   C74   A    
Cu5   O23   S    
C1    O3    A    
