data_mof_unit_7677.cif
_audit_creation_date              2012-12-11T14:44:08-0500
_audit_creation_method            fapswitch 2.2
_symmetry_space_group_name_H-M    P1
_symmetry_Int_Tables_number       1
_space_group_crystal_system       triclinic
_cell_length_a                    18.856573
_cell_length_b                    10.916579
_cell_length_c                    18.723011
_cell_angle_alpha                 90.000216
_cell_angle_beta                  89.656948
_cell_angle_gamma                 90.000115
_cell_volume                      3854.04904194

loop_
_atom_site_label
_atom_site_type_symbol
_atom_type_description
_atom_site_fract_x
_atom_site_fract_y
_atom_site_fract_z
_atom_type_partial_charge
C1    C     C_R   0.731589 0.382070 0.147342 0.554672
C2    C     C_R   0.986592 0.999536 0.035139 0.334739
C3    C     C_R   0.994003 0.775497 0.037465 -0.045748
C4    C     C_R   0.499646 0.052486 0.036542 -0.159164
C5    C     C_R   0.500571 0.052485 0.963376 -0.159040
C6    C     C_R   0.999587 0.552467 0.036574 -0.159060
C7    C     C_R   0.000512 0.552504 0.963408 -0.159139
C8    C     C_R   0.513227 0.499580 0.964901 0.334747
C9    C     C_R   0.486859 0.499585 0.034969 0.333748
C10   C     C_R   0.679127 0.923114 0.029819 -0.112304
C11   C     C_R   0.320905 0.923223 0.970199 -0.111789
C12   C     C_R   0.179128 0.423121 0.029819 -0.111868
C13   C     C_R   0.820903 0.423208 0.970198 -0.112228
C14   C     C_R   0.687547 0.893253 0.957890 -0.169814
C15   C     C_R   0.312473 0.893351 0.042126 -0.168503
C16   C     C_R   0.187551 0.393258 0.957891 -0.168540
C17   C     C_R   0.268412 0.382066 0.852660 0.558696
C18   C     C_R   0.812476 0.393339 0.042126 -0.169775
C19   C     C_R   0.744274 0.942634 0.918688 0.029439
C20   C     C_R   0.255700 0.942638 0.081304 0.031629
C21   C     C_R   0.244286 0.442628 0.918694 0.031635
C22   C     C_R   0.755714 0.442645 0.081311 0.029438
C23   C     C_R   0.785392 0.037465 0.949650 0.240728
C24   C     C_R   0.214525 0.037375 0.050313 0.240966
C25   C     C_R   0.285417 0.537439 0.949663 0.240998
C26   C     C_R   0.714556 0.537409 0.050330 0.240700
C27   C     C_R   0.778561 0.062207 0.021921 -0.086152
C28   C     C_R   0.231586 0.882066 0.147339 0.558634
C29   C     C_R   0.221374 0.062116 0.978048 -0.086965
C30   C     C_R   0.278574 0.562192 0.021930 -0.086971
C31   C     C_R   0.721393 0.562142 0.978060 -0.086165
C32   C     C_R   0.728315 0.000595 0.063268 -0.018169
C33   C     C_R   0.271682 0.000608 0.936729 -0.017831
C34   C     C_R   0.228316 0.500596 0.063270 -0.017841
C35   C     C_R   0.771684 0.500607 0.936732 -0.018161
C36   C     C_R   0.551514 0.053463 0.477266 -0.090988
C37   C     C_R   0.531724 0.055367 0.548199 -0.095482
C38   C     C_R   0.968142 0.555435 0.451750 -0.095681
C39   C     C_R   0.768409 0.882070 0.852657 0.554719
C40   C     C_R   0.948374 0.553520 0.522694 -0.090964
C41   C     C_R   0.509393 0.164900 0.580258 0.020722
C42   C     C_R   0.550492 0.161191 0.437139 0.023465
C43   C     C_R   0.949530 0.661212 0.562862 0.023682
C44   C     C_R   0.990601 0.664936 0.419735 0.020765
C45   C     C_R   0.530475 0.155304 0.146928 0.593889
C46   C     C_R   0.469554 0.155303 0.853048 0.580676
C47   C     C_R   0.030456 0.655296 0.146944 0.580748
C48   C     C_R   0.969535 0.655311 0.853064 0.593844
C49   C     C_R   0.514565 0.275260 0.542309 -0.139603
C50   C     C_R   0.523492 0.387392 0.928385 0.183501
C51   C     C_R   0.535178 0.273454 0.470696 -0.133289
C52   C     C_R   0.964973 0.773465 0.529346 -0.133218
C53   C     C_R   0.985571 0.775277 0.457732 -0.139503
C54   C     C_R   0.812573 0.963660 0.461262 -0.122172
C55   C     C_R   0.184352 0.923465 0.543994 -0.128425
C56   C     C_R   0.315625 0.423064 0.455968 -0.128367
C57   C     C_R   0.687502 0.463949 0.538681 -0.122315
C58   C     C_R   0.812356 0.961636 0.534223 -0.167405
C59   C     C_R   0.178891 0.914116 0.471177 -0.158792
C60   C     C_R   0.321121 0.413608 0.528781 -0.158721
C61   C     C_R   0.476615 0.387407 0.071501 0.182404
C62   C     C_R   0.687748 0.461926 0.465722 -0.167530
C63   C     C_R   0.757126 0.904018 0.571781 0.036855
C64   C     C_R   0.240018 0.901419 0.428245 0.042501
C65   C     C_R   0.259997 0.401380 0.571759 0.042578
C66   C     C_R   0.742919 0.404102 0.428193 0.036829
C67   C     C_R   0.700184 0.850510 0.533803 0.206295
C68   C     C_R   0.307258 0.893612 0.459567 0.215537
C69   C     C_R   0.192719 0.394087 0.540502 0.215481
C70   C     C_R   0.799803 0.350452 0.466197 0.206287
C71   C     C_R   0.699468 0.858362 0.459798 -0.117003
C72   C     C_R   0.023277 0.887493 0.928515 0.182396
C73   C     C_R   0.312385 0.903205 0.533121 -0.095366
C74   C     C_R   0.187556 0.403751 0.466956 -0.095381
C75   C     C_R   0.800499 0.358311 0.540201 -0.117022
C76   C     C_R   0.754050 0.919604 0.423861 -0.014279
C77   C     C_R   0.251099 0.922126 0.574964 -0.009152
C78   C     C_R   0.248852 0.422212 0.425059 -0.009164
C79   C     C_R   0.745958 0.419698 0.576113 -0.014299
C80   C     C_R   0.726673 0.022351 0.140371 0.566967
C81   C     C_R   0.273327 0.022354 0.859628 0.566084
C82   C     C_R   0.226673 0.522354 0.140371 0.566068
C83   C     C_R   0.976407 0.887309 0.071634 0.183517
C84   C     C_R   0.773328 0.522356 0.859629 0.566960
C85   C     C_R   0.729209 0.376548 0.353681 0.563154
C86   C     C_R   0.271273 0.376562 0.646481 0.588016
C87   C     C_R   0.228729 0.876564 0.353522 0.587879
C88   C     C_R   0.770802 0.876527 0.646309 0.563217
C89   C     C_R   0.565076 0.153059 0.360718 0.555039
C90   C     C_R   0.469873 0.157125 0.647336 0.552980
C91   C     C_R   0.030123 0.657129 0.352661 0.552993
C92   C     C_R   0.934933 0.653061 0.639280 0.555055
C93   C     C_R   0.742485 0.968012 0.353149 0.564362
C94   C     C_R   0.012953 0.999633 0.965068 0.333749
C95   C     C_R   0.258623 0.969584 0.646144 0.573097
C96   C     C_R   0.241367 0.469608 0.353865 0.573057
C97   C     C_R   0.757517 0.468029 0.646844 0.564309
C98   C     C_R   0.500288 0.162608 0.925080 0.048273
C99   C     C_R   0.499845 0.162609 0.074844 0.047027
C100  C     C_R   0.000203 0.662645 0.925130 0.047061
C101  C     C_R   0.999761 0.662573 0.074894 0.048246
C102  C     C_R   0.505970 0.275527 0.962531 -0.045731
C103  C     C_R   0.494169 0.275533 0.037382 -0.047274
C104  C     C_R   0.005802 0.775564 0.962613 -0.047260
Cl1   Cl    Cl    0.627815 0.775602 0.574888 -0.642104
Cl2   Cl    Cl    0.152399 0.126893 0.098193 -0.556628
Cl3   Cl    Cl    0.347462 0.627053 0.901740 -0.556405
Cl4   Cl    Cl    0.652481 0.626983 0.098240 -0.559178
Cl5   Cl    Cl    0.386058 0.879993 0.409012 -0.568382
Cl6   Cl    Cl    0.113944 0.381037 0.591140 -0.568313
Cl7   Cl    Cl    0.872123 0.275335 0.425150 -0.642056
Cl8   Cl    Cl    0.571584 0.385436 0.846715 -0.566659
Cl9   Cl    Cl    0.428450 0.385473 0.153122 -0.554349
Cl10  Cl    Cl    0.071450 0.885701 0.846899 -0.554332
Cl11  Cl    Cl    0.928322 0.885219 0.153307 -0.566682
Cl12  Cl    Cl    0.847390 0.127129 0.901700 -0.559052
Cr1   Cr    Cr6+3 0.772000 0.169640 0.250110 1.099072
Cr2   Cr    Cr6+3 0.383330 0.010620 0.749160 1.078529
Cr3   Cr    Cr6+3 0.116670 0.510620 0.250840 1.078475
Cr4   Cr    Cr6+3 0.883330 0.510620 0.749160 1.083443
Cr5   Cr    Cr6+3 0.228000 0.169640 0.749890 1.106726
Cr6   Cr    Cr6+3 0.272000 0.669640 0.250110 1.106844
Cr7   Cr    Cr6+3 0.728000 0.669640 0.749890 1.099075
Cr8   Cr    Cr6+3 0.614960 0.323350 0.249260 1.103109
Cr9   Cr    Cr6+3 0.385040 0.323350 0.750740 1.106885
Cr10  Cr    Cr6+3 0.114960 0.823350 0.249260 1.106834
Cr11  Cr    Cr6+3 0.885040 0.823350 0.750740 1.103069
Cr12  Cr    Cr6+3 0.616670 0.010620 0.250840 1.083369
H1    H     H_    0.501957 0.964323 0.063027 0.172326
H2    H     H_    0.126176 0.915754 0.448646 0.148512
H3    H     H_    0.373850 0.414810 0.551282 0.148446
H4    H     H_    0.642563 0.502290 0.439100 0.160835
H5    H     H_    0.654672 0.821974 0.430711 0.159264
H6    H     H_    0.364703 0.904249 0.556776 0.172818
H7    H     H_    0.135222 0.405203 0.443348 0.172804
H8    H     H_    0.845247 0.321798 0.569310 0.159298
H9    H     H_    0.636325 0.881211 0.059783 0.203741
H10   H     H_    0.363743 0.881391 0.940251 0.203785
H11   H     H_    0.136324 0.381219 0.059781 0.203801
H12   H     H_    0.498295 0.964323 0.936885 0.171781
H13   H     H_    0.863735 0.381366 0.940246 0.203729
H14   H     H_    0.652110 0.827024 0.934150 0.162119
H15   H     H_    0.347936 0.827181 0.065882 0.162837
H16   H     H_    0.152114 0.327033 0.934149 0.162751
H17   H     H_    0.847936 0.327159 0.065879 0.162218
H18   H     H_    0.813821 0.127862 0.046259 0.169258
H19   H     H_    0.186067 0.127674 0.953691 0.168749
H20   H     H_    0.313839 0.627835 0.046273 0.168760
H21   H     H_    0.686096 0.627721 0.953709 0.169207
H22   H     H_    0.563975 0.966313 0.452860 0.170166
H23   H     H_    0.001940 0.464294 0.063045 0.171789
H24   H     H_    0.528755 0.969025 0.576345 0.202289
H25   H     H_    0.970987 0.469118 0.423552 0.202193
H26   H     H_    0.935815 0.466388 0.547077 0.169992
H27   H     H_    0.498825 0.361215 0.566477 0.136106
H28   H     H_    0.535748 0.358555 0.441034 0.140632
H29   H     H_    0.964516 0.858544 0.559040 0.140546
H30   H     H_    0.001413 0.861209 0.433599 0.135983
H31   H     H_    0.035197 0.102555 0.882403 0.366085
H32   H     H_    0.964280 0.102259 0.117870 0.366199
H33   H     H_    0.535559 0.602387 0.882208 0.366176
H34   H     H_    0.998278 0.464352 0.936902 0.172323
H35   H     H_    0.464553 0.602426 0.117650 0.366111
H36   H     H_    0.856652 0.008302 0.434592 0.202459
H37   H     H_    0.136761 0.937877 0.575675 0.164807
H38   H     H_    0.363218 0.437126 0.424240 0.164797
H39   H     H_    0.643454 0.508722 0.565327 0.202572
H40   H     H_    0.857595 0.001862 0.560823 0.160785
O1    O     O_R   0.787540 0.042690 0.170470 -0.450602
O2    O     O_R   0.454130 0.051100 0.669160 -0.515552
O3    O     O_R   0.045870 0.551100 0.330840 -0.515585
O4    O     O_R   0.954130 0.551100 0.669160 -0.464278
O5    O     O_R   0.681340 0.959300 0.325510 -0.523899
O6    O     O_R   0.318660 0.959300 0.674490 -0.500589
O7    O     O_R   0.181340 0.459300 0.325510 -0.500600
O8    O     O_R   0.818660 0.459300 0.674490 -0.523891
O9    O     O_3   0.667880 0.167870 0.250070 -0.335118
O10   O     O_3   0.332120 0.167870 0.749930 -0.314331
O11   O     O_3   0.167880 0.667870 0.250070 -0.314327
O12   O     O_R   0.212460 0.042690 0.829530 -0.451954
O13   O     O_3   0.832120 0.667870 0.749930 -0.335151
O14   O     O_R   0.765660 0.292160 0.175050 -0.538072
O15   O     O_R   0.234340 0.292160 0.824950 -0.537090
O16   O     O_R   0.265660 0.792160 0.175050 -0.537108
O17   O     O_R   0.734340 0.792160 0.824950 -0.538058
O18   O     O_R   0.670190 0.408980 0.168550 -0.442400
O19   O     O_R   0.329810 0.408980 0.831450 -0.442694
O20   O     O_R   0.170190 0.908980 0.168550 -0.442665
O21   O     O_R   0.829810 0.908980 0.831450 -0.442433
O22   O     O_R   0.556580 0.251450 0.175160 -0.450298
O23   O     O_R   0.287540 0.542690 0.170470 -0.451950
O24   O     O_R   0.443420 0.251450 0.824840 -0.454268
O25   O     O_R   0.056580 0.751450 0.175160 -0.454258
O26   O     O_R   0.943420 0.751450 0.824840 -0.450318
O27   O     O_R   0.545920 0.049510 0.170320 -0.525620
O28   O     O_R   0.454080 0.049510 0.829680 -0.533198
O29   O     O_R   0.045920 0.549510 0.170320 -0.533204
O30   O     O_R   0.954080 0.549510 0.829680 -0.525615
O31   O     O_R   0.681390 0.957840 0.176710 -0.468563
O32   O     O_R   0.318610 0.957840 0.823290 -0.466193
O33   O     O_R   0.181390 0.457840 0.176710 -0.466280
O34   O     O_R   0.712460 0.542690 0.829530 -0.450614
O35   O     O_R   0.818610 0.457840 0.823290 -0.468475
O36   O     O_R   0.787500 0.044280 0.330990 -0.465790
O37   O     O_R   0.212500 0.044280 0.669010 -0.479698
O38   O     O_R   0.287500 0.544280 0.330990 -0.479457
O39   O     O_R   0.712500 0.544280 0.669010 -0.465907
O40   O     O_R   0.765610 0.293630 0.323860 -0.439713
O41   O     O_R   0.234390 0.293630 0.676140 -0.448575
O42   O     O_R   0.265610 0.793630 0.323860 -0.448421
O43   O     O_R   0.734390 0.793630 0.676140 -0.439715
O44   O     O_R   0.670140 0.410570 0.329080 -0.534828
O45   O     O_R   0.556540 0.252920 0.323970 -0.482180
O46   O     O_R   0.329860 0.410570 0.670920 -0.520432
O47   O     O_R   0.170140 0.910570 0.329080 -0.520537
O48   O     O_R   0.829860 0.910570 0.670920 -0.534816
O49   O     O_3   0.027263 0.112193 0.934312 -0.618001
O50   O     O_3   0.972168 0.112000 0.065962 -0.618602
O51   O     O_3   0.527576 0.612094 0.934104 -0.618487
O52   O     O_3   0.472469 0.612099 0.065746 -0.618130
O53   O     O_R   0.443460 0.252920 0.676030 -0.493255
O54   O     O_R   0.056540 0.752920 0.323970 -0.493219
O55   O     O_R   0.943460 0.752920 0.676030 -0.482230
O56   O     O_R   0.545870 0.051100 0.330840 -0.464536

loop_
_geom_bond_atom_site_label_1
_geom_bond_atom_site_label_2
_ccdc_geom_bond_type
C3    C104  A    
C45   O27   A    
C99   C103  A    
C14   H14   S    
C59   H2    S    
C95   O37   A    
C16   C21   A    
C47   C101  S    
C96   O7    A    
C55   C59   A    
C82   O23   A    
C34   C82   S    
C57   C79   A    
C36   C42   A    
Cr3   O33   S    
Cr12  O27   S    
Cr5   O37   S    
Cr1   O40   S    
Cr2   O32   S    
Cr12  O56   S    
C81   O32   A    
Cr8   O22   S    
C57   C62   A    
C65   C86   S    
C1    O18   A    
C25   Cl3   S    
C53   H30   S    
Cr11  O21   S    
C13   C18   A    
C10   C32   A    
C9    C61   A    
C64   C68   A    
C36   C37   A    
C61   C103  A    
C95   O6    A    
Cr6   O23   S    
C13   C35   A    
C28   O20   A    
C71   C76   A    
C55   C77   A    
C65   C69   A    
Cr11  O48   S    
Cr1   O14   S    
C3    C101  A    
Cr2   O2    S    
C29   C33   A    
C100  C104  A    
C72   Cl10  S    
C56   C78   A    
Cr9   O46   S    
C6    C101  A    
C93   O36   A    
Cr6   O38   S    
C24   C29   A    
Cr3   O7    S    
C23   Cl12  S    
C11   C15   A    
C44   C53   A    
Cr4   O8    S    
C40   C43   A    
H32   O50   S    
C6    C7    A    
C12   C16   A    
C78   C96   S    
C8    C9    A    
C49   C51   A    
C88   O43   A    
Cr7   O43   S    
Cr4   O30   S    
C86   O41   A    
C10   H9    S    
Cr5   O41   S    
Cr1   O36   S    
C58   H40   S    
Cr4   O13   S    
C64   C87   S    
C20   C28   S    
Cr11  O55   S    
C42   C51   A    
Cr5   O15   S    
C72   C94   A    
H35   O52   S    
C18   H17   S    
Cr6   O16   S    
C41   C90   S    
C46   C98   S    
C1    C22   S    
C97   O8    A    
C18   C22   A    
C5    C98   A    
C37   C41   A    
C40   H26   S    
C2    C83   A    
C15   C20   A    
Cr3   O11   S    
C80   O1    A    
C66   C85   S    
C14   C19   A    
C60   H3    S    
C41   C49   A    
C49   H27   S    
Cr5   O12   S    
Cr8   O45   S    
Cr6   O11   S    
C48   C100  S    
C7    H34   S    
C63   C67   A    
C51   H28   S    
C7    C100  A    
C62   C66   A    
C83   Cl11  S    
C2    C94   A    
C90   O53   A    
C45   C99   S    
Cr11  O26   S    
C26   Cl4   S    
C30   C34   A    
C75   H8    S    
Cr4   O4    S    
Cr8   O44   S    
H31   O49   S    
C68   C73   A    
C98   C102  A    
C80   O31   A    
C48   O26   A    
C77   C95   S    
C94   O49   S    
C17   C21   S    
C56   C60   A    
Cr10  O11   S    
C48   O30   A    
Cr7   O17   S    
C19   C23   A    
C86   O46   A    
C38   C44   A    
C62   H4    S    
C76   C93   S    
C32   C80   S    
C63   C88   S    
C69   Cl6   S    
C17   O15   A    
C79   C97   S    
C96   O38   A    
C11   C33   A    
C35   C84   S    
C74   H7    S    
C90   O2    A    
Cr6   O42   S    
C71   H5    S    
Cr12  O5    S    
C12   H11   S    
Cr7   O39   S    
C69   C74   A    
C97   O39   A    
C91   O54   A    
C30   H20   S    
Cr8   O9    S    
Cr5   O10   S    
C44   C91   S    
C19   C39   S    
C54   C76   A    
C6    H23   S    
Cr2   O10   S    
C84   O35   A    
C60   C65   A    
C50   C102  A    
C23   C27   A    
H33   O51   S    
C10   C14   A    
Cr11  O13   S    
C87   O42   A    
C15   H15   S    
C24   Cl2   S    
C55   H37   S    
C37   H24   S    
C12   C34   A    
C85   O44   A    
C8    C50   A    
C70   C75   A    
Cr2   O28   S    
C52   C53   A    
C9    O52   S    
C5    H12   S    
C89   O45   A    
C54   C58   A    
C84   O34   A    
C25   C30   A    
Cr4   O35   S    
C21   C25   A    
C52   H29   S    
C87   O47   A    
C88   O48   A    
Cr7   O34   S    
C16   H16   S    
C27   C32   A    
Cr3   O29   S    
C13   H13   S    
C47   O25   A    
C92   O55   A    
C67   Cl1   S    
C58   C63   A    
C81   O12   A    
C46   O24   A    
C4    C5    A    
C29   H19   S    
C82   O33   A    
C1    O14   A    
Cr10  O54   S    
C46   O28   A    
C4    H1    S    
C57   H39   S    
Cr9   O53   S    
C72   C104  A    
C74   C78   A    
C43   C92   S    
Cr1   O1    S    
C91   O3    A    
Cr9   O19   S    
C42   C89   S    
C11   H10   S    
Cr10  O20   S    
C50   Cl8   S    
C28   O16   A    
Cr12  O31   S    
Cr7   O13   S    
C8    O51   S    
C38   C40   A    
Cr10  O25   S    
C36   H22   S    
C66   C70   A    
C75   C79   A    
C17   O19   A    
C27   H18   S    
C31   H21   S    
C31   C35   A    
C93   O5    A    
Cr8   O18   S    
Cr9   O24   S    
C67   C71   A    
C68   Cl5   S    
C89   O56   A    
C102  C103  A    
C43   C52   A    
C70   Cl7   S    
Cr10  O47   S    
C39   O17   A    
C59   C64   A    
C45   O22   A    
C26   C31   A    
C3    C83   A    
C73   H6    S    
Cr2   O6    S    
C92   O4    A    
C22   C26   A    
C4    C99   A    
C56   H38   S    
Cr9   O10   S    
C2    O50   S    
C39   O21   A    
C73   C77   A    
C47   O29   A    
Cr12  O9    S    
Cr1   O9    S    
C38   H25   S    
C54   H36   S    
C33   C81   S    
C20   C24   A    
C61   Cl9   S    
C85   O40   A    
Cr3   O3    S    
