data_mof_unit_10263.cif
_audit_creation_date              2012-12-10T17:07:43-0500
_audit_creation_method            fapswitch 2.2
_symmetry_space_group_name_H-M    P1
_symmetry_Int_Tables_number       1
_space_group_crystal_system       triclinic
_cell_length_a                    10.657726
_cell_length_b                    10.706377
_cell_length_c                    10.079431
_cell_angle_alpha                 90.126191
_cell_angle_beta                  90.322827
_cell_angle_gamma                 91.349395
_cell_volume                      1149.77950962

loop_
_atom_site_label
_atom_site_type_symbol
_atom_type_description
_atom_site_fract_x
_atom_site_fract_y
_atom_site_fract_z
_atom_type_partial_charge
C1    C     C_R   0.492862 0.262498 0.499766 0.800570
C2    C     C_2   0.546610 0.591718 0.074598 0.539355
C3    C     C_R   0.258097 0.493434 0.499510 0.998817
C4    C     C_R   0.506004 0.737210 0.500181 0.903006
C5    C     C_R   0.741773 0.493235 0.499784 0.907281
C6    C     C_3   0.071348 0.446323 0.638680 0.318785
C7    C     C_3   0.927590 0.442342 0.634367 -0.591718
C8    C     C_3   0.074608 0.624759 0.480504 0.239718
C9    C     C_3   0.069907 0.389624 0.388122 0.892007
C10   C     C_3   0.121331 0.488035 0.497588 -0.191327
C11   C     C_3   0.837005 0.311625 0.189542 -0.278824
C12   C     C_3   0.878453 0.487014 0.497113 -0.106523
C13   C     C_3   0.137234 0.817884 0.392748 -0.323696
C14   C     C_3   0.388326 0.097485 0.705102 -0.268423
C15   C     C_3   0.748355 0.669107 0.858165 -0.266706
C16   C     C_3   0.701121 0.713283 0.173004 -0.255140
C17   C     C_3   0.118717 0.317346 0.817449 -0.316328
C18   C     C_3   0.384302 0.330777 0.109785 -0.190454
C19   C     C_3   0.095885 0.507383 0.178690 -0.198554
C20   C     C_3   0.092738 0.170311 0.346181 -0.270615
C21   C     C_3   0.930945 0.620311 0.466970 -0.512608
C22   C     C_3   0.921956 0.391073 0.389423 0.272774
C23   C     C_2   0.523298 0.934549 0.389574 -0.151991
C24   C     C_2   0.526818 0.868724 0.501411 -0.277580
C25   C     C_2   0.532554 0.068585 0.398185 -0.307876
C26   C     C_2   0.475082 0.129077 0.496316 0.395021
C27   C     C_2   0.558841 0.585106 0.924511 0.455561
H1    H     H_    0.901303 0.650558 0.366750 0.209198
H2    H     H_    0.042212 0.854589 0.411855 0.152013
H3    H     H_    0.173569 0.863164 0.301378 0.185822
H4    H     H_    0.513649 0.891449 0.292470 0.222164
H5    H     H_    0.591039 0.116986 0.325768 0.141199
H6    H     H_    0.341998 0.186953 0.726234 0.219816
H7    H     H_    0.486955 0.099488 0.742470 0.146940
H8    H     H_    0.336700 0.023532 0.760849 0.174439
H9    H     H_    0.780788 0.577085 0.895374 0.109738
H10   H     H_    0.795172 0.744572 0.916648 0.148471
H11   H     H_    0.780811 0.681922 0.754837 0.182222
H12   H     H_    0.545673 0.912853 0.596891 0.184911
H13   H     H_    0.758591 0.631796 0.144194 0.155227
H14   H     H_    0.707328 0.724583 0.281970 0.183661
H15   H     H_    0.744508 0.799162 0.130300 0.150879
H16   H     H_    0.025115 0.335708 0.860691 0.148071
H17   H     H_    0.191077 0.381288 0.861770 0.142237
H18   H     H_    0.142955 0.220387 0.844017 0.173365
H19   H     H_    0.311279 0.388886 0.063382 0.115088
H20   H     H_    0.358471 0.315522 0.214216 0.244240
H21   H     H_    0.382004 0.238618 0.059217 0.133163
H22   H     H_    0.890642 0.346205 0.654975 0.217734
H23   H     H_    0.433885 0.444997 0.893449 0.149900
H24   H     H_    0.098307 0.676066 0.574620 0.085896
H25   H     H_    0.891205 0.688665 0.537766 0.138352
H26   H     H_    0.021914 0.567451 0.215803 0.223188
H27   H     H_    0.064159 0.471074 0.080681 0.131815
H28   H     H_    0.181749 0.565447 0.161212 0.198955
H29   H     H_    0.138082 0.187957 0.248956 0.175434
H30   H     H_    0.992584 0.142639 0.333770 0.116370
H31   H     H_    0.139978 0.088611 0.389219 0.200574
H32   H     H_    0.884738 0.298896 0.425358 0.064307
H33   H     H_    0.894250 0.502988 0.715213 0.175538
H34   H     H_    0.101294 0.519747 0.712430 0.077961
H35   H     H_    0.772183 0.248260 0.245164 0.158080
H36   H     H_    0.922066 0.262512 0.157255 0.153241
H37   H     H_    0.786711 0.340731 0.098471 0.198333
H38   H     H_    0.202628 0.843548 0.475313 0.201133
N1    N     N_2   0.501360 0.501330 0.852150 -0.239610
N2    N     N_2   0.501390 0.501360 0.147810 0.026278
O1    O     O_R   0.499980 0.319060 0.613040 -0.632084
O2    O     O_3   0.133260 0.687380 0.372636 -0.603890
O3    O     O_3   0.380068 0.068799 0.568650 -0.603872
O4    O     O_3   0.617275 0.684605 0.860537 -0.559901
O5    O     O_3   0.573448 0.705880 0.133867 -0.615818
O6    O     O_3   0.118062 0.328542 0.677805 -0.517902
O7    O     O_3   0.505058 0.385813 0.094939 -0.611657
O8    O     O_3   0.126853 0.404850 0.259581 -0.649518
O9    O     O_3   0.108367 0.270856 0.436645 -0.591785
O10   O     O_R   0.500020 0.319100 0.386900 -0.627393
O11   O     O_R   0.314770 0.499960 0.613070 -0.641775
O12   O     O_R   0.314820 0.500000 0.386930 -0.566922
O13   O     O_R   0.499980 0.680900 0.613100 -0.570770
O14   O     O_R   0.500020 0.680940 0.386960 -0.584158
O15   O     O_R   0.685180 0.500000 0.613070 -0.622784
O16   O     O_R   0.685230 0.500040 0.386930 -0.567226
O17   O     O_3   0.869778 0.419819 0.263165 -0.618439
Zn1   Zn    Zn3+2 0.499970 0.499970 0.650990 0.964700
Zn2   Zn    Zn3+2 0.500030 0.500030 0.349010 1.030317

loop_
_geom_bond_atom_site_label_1
_geom_bond_atom_site_label_2
_ccdc_geom_bond_type
C1    O10   A    
C15   H9    S    
C16   O5    S    
C20   H29   S    
C11   H35   S    
C3    O12   A    
C18   H20   S    
C1    O1    A    
C14   H6    S    
C13   H38   S    
C8    O2    S    
C6    H34   S    
C13   H2    S    
C17   H18   S    
C4    O13   A    
C11   H36   S    
C4    C24   S    
C9    C22   S    
C12   C22   S    
C24   H12   S    
C20   O9    S    
C15   H10   S    
C4    O14   A    
C23   C24   D    
C2    C27   S    
C9    O9    S    
C9    C10   S    
O14   Zn2   S    
C19   H26   S    
C25   H5    S    
C18   O7    S    
C17   O6    S    
O1    Zn1   S    
C14   O3    S    
N1    Zn1   S    
C2    O5    S    
C18   H19   S    
C7    C12   S    
C13   H3    S    
C21   H25   S    
C7    H22   S    
C5    C12   S    
C2    N2    D    
C22   H32   S    
C25   C26   D    
C12   C21   S    
C23   H4    S    
C17   H16   S    
C15   H11   S    
C6    C10   S    
O13   Zn1   S    
C8    C21   S    
N2    O7    S    
H23   N1    S    
C8    H24   S    
C16   H13   S    
O11   Zn1   S    
C21   H1    S    
O10   Zn2   S    
C11   H37   S    
C1    C26   S    
C26   O3    S    
C20   H31   S    
C16   H15   S    
C7    H33   S    
C14   H8    S    
C27   O4    S    
C19   H27   S    
C6    O6    S    
C19   H28   S    
N2    Zn2   S    
C18   H21   S    
C14   H7    S    
C6    C7    S    
C11   O17   S    
O15   Zn1   S    
C15   O4    S    
C19   O8    S    
C17   H17   S    
C27   N1    D    
C5    O15   A    
C13   O2    S    
C5    O16   A    
C23   C25   S    
O16   Zn2   S    
C8    C10   S    
C3    C10   S    
C9    O8    S    
C20   H30   S    
C3    O11   A    
C16   H14   S    
O12   Zn2   S    
C22   O17   S    
