data_mof_unit_59189.cif
_audit_creation_date              2012-12-10T20:52:47-0500
_audit_creation_method            fapswitch 2.2
_symmetry_space_group_name_H-M    P1
_symmetry_Int_Tables_number       1
_space_group_crystal_system       triclinic
_cell_length_a                    8.6075
_cell_length_b                    15.840086
_cell_length_c                    15.081633
_cell_angle_alpha                 91.038408
_cell_angle_beta                  98.724804
_cell_angle_gamma                 90.085987
_cell_volume                      2032.13598503

loop_
_atom_site_label
_atom_site_type_symbol
_atom_type_description
_atom_site_fract_x
_atom_site_fract_y
_atom_site_fract_z
_atom_type_partial_charge
C1    C     C_R   0.499832 0.338935 0.499178 0.906726
C2    C     C_R   0.799555 0.500023 0.523326 0.968866
C3    C     C_2   0.035726 0.499957 0.463894 -0.385184
C4    C     C_2   0.964274 0.500043 0.536106 -0.385186
C5    C     C_R   0.529733 0.957636 0.581420 -0.251539
C6    C     C_R   0.470338 0.042364 0.418582 -0.251538
C7    C     C_R   0.492872 0.913026 0.500272 0.102550
C8    C     C_R   0.507193 0.086975 0.499731 0.102547
C9    C     C_R   0.461904 0.954632 0.417814 0.011659
C10   C     C_R   0.538166 0.045368 0.582189 0.011663
C11   C     C_1   0.495997 0.824116 0.502598 -0.062804
C12   C     C_R   0.500169 0.661064 0.500822 0.906726
C13   C     C_1   0.504044 0.175884 0.497404 -0.062805
C14   C     C_1   0.501633 0.250662 0.497506 -0.177449
C15   C     C_1   0.498387 0.749338 0.502496 -0.177450
C16   C     C_R   0.371954 0.469919 0.939969 -0.234576
C17   C     C_R   0.628035 0.530088 0.060030 -0.234595
C18   C     C_R   0.578094 0.091893 0.669187 0.122942
C19   C     C_R   0.704462 0.149459 0.683023 -0.133724
C20   C     C_R   0.739530 0.194218 0.764416 -0.132458
C21   C     C_R   0.649833 0.181431 0.832875 -0.112837
C22   C     C_R   0.525326 0.123579 0.820187 -0.136704
C23   C     C_R   0.504950 0.498489 0.905435 0.006234
C24   C     C_R   0.489655 0.078772 0.738828 -0.161346
C25   C     C_R   0.421979 0.908108 0.330817 0.122944
C26   C     C_R   0.295596 0.850551 0.316975 -0.133727
C27   C     C_R   0.260529 0.805792 0.235582 -0.132457
C28   C     C_R   0.350243 0.818570 0.167129 -0.112839
C29   C     C_R   0.474766 0.876413 0.179822 -0.136709
C30   C     C_R   0.510434 0.921220 0.261181 -0.161343
C31   C     C_R   0.216552 0.443575 0.064054 0.121452
C32   C     C_R   0.145920 0.493113 0.125201 -0.114499
C33   C     C_R   0.009362 0.465222 0.155352 -0.136604
C34   C     C_R   0.495040 0.501515 0.094564 0.006230
C35   C     C_R   0.938393 0.389318 0.122341 -0.100121
C36   C     C_R   0.004909 0.340716 0.059744 -0.139578
C37   C     C_R   0.143684 0.367364 0.030973 -0.164005
C38   C     C_R   0.783419 0.556445 0.935943 0.121461
C39   C     C_R   0.854085 0.506903 0.874815 -0.114501
C40   C     C_R   0.990625 0.534810 0.844656 -0.136585
C41   C     C_R   0.061535 0.610738 0.877637 -0.100116
C42   C     C_R   0.994980 0.659346 0.940214 -0.139593
C43   C     C_R   0.856227 0.632679 0.968996 -0.164009
C44   C     C_R   0.636057 0.528049 0.966816 0.036603
C45   C     C_R   0.363928 0.471958 0.033183 0.036609
C46   C     C_1   0.501680 0.499387 0.807205 0.036262
C47   C     C_1   0.498316 0.500615 0.192794 0.036245
C48   C     C_R   0.200444 0.499977 0.476674 0.968863
H1    H     H_    0.973705 0.499861 0.395414 0.176204
H2    H     H_    0.456084 0.113630 0.873327 0.126348
H3    H     H_    0.391963 0.034695 0.729708 0.127963
H4    H     H_    0.224218 0.840398 0.369132 0.126691
H5    H     H_    0.163707 0.761226 0.225552 0.123869
H6    H     H_    0.323068 0.783785 0.104211 0.119155
H7    H     H_    0.544021 0.886355 0.126687 0.126345
H8    H     H_    0.608137 0.965291 0.270306 0.127964
H9    H     H_    0.196007 0.553478 0.149460 0.121070
H10   H     H_    0.957871 0.502899 0.203861 0.120728
H11   H     H_    0.831527 0.368370 0.145004 0.131060
H12   H     H_    0.026295 0.500139 0.604586 0.176205
H13   H     H_    0.949515 0.282052 0.033935 0.122948
H14   H     H_    0.194891 0.328149 0.983521 0.121605
H15   H     H_    0.804036 0.446526 0.850575 0.121063
H16   H     H_    0.042144 0.497130 0.796161 0.120720
H17   H     H_    0.168383 0.631700 0.854966 0.131050
H18   H     H_    0.050326 0.718029 0.965997 0.122961
H19   H     H_    0.804987 0.671897 0.016431 0.121615
H20   H     H_    0.554706 0.923901 0.643932 0.151750
H21   H     H_    0.445364 0.076098 0.356071 0.151753
H22   H     H_    0.272281 0.446733 0.893454 0.139966
H23   H     H_    0.727707 0.553276 0.106543 0.139986
H24   H     H_    0.775827 0.159618 0.630862 0.126692
H25   H     H_    0.836341 0.238791 0.774441 0.123866
H26   H     H_    0.677009 0.216217 0.895792 0.119143
N1    N     N_1   0.499960 0.500020 0.270540 -0.090477
N2    N     N_1   0.500040 0.499980 0.729460 -0.090476
O1    O     O_R   0.500000 0.378020 0.573650 -0.609131
O2    O     O_R   0.500000 0.621980 0.426350 -0.609131
O3    O     O_R   0.500070 0.378020 0.426320 -0.611625
O4    O     O_R   0.499930 0.621980 0.573680 -0.611626
O5    O     O_R   0.271720 0.500000 0.556430 -0.613975
O6    O     O_R   0.728280 0.500000 0.443570 -0.613974
O7    O     O_R   0.271790 0.500000 0.409110 -0.622432
O8    O     O_R   0.728210 0.500000 0.590890 -0.622430
Zn1   Zn    Zn3+2 0.499950 0.500000 0.598370 0.968427
Zn2   Zn    Zn3+2 0.500050 0.500000 0.401630 0.968426

loop_
_geom_bond_atom_site_label_1
_geom_bond_atom_site_label_2
_ccdc_geom_bond_type
C6    H21   S    
C8    C13   S    
C1    O1    A    
C41   C42   A    
C2    O8    A    
C35   C36   A    
C33   H10   S    
C6    C9    A    
C46   N2    T    
C37   H14   S    
C3    H1    S    
C9    C25   S    
C7    C11   S    
C26   C27   A    
O4    Zn1   S    
C18   C24   A    
C36   C37   A    
C38   C39   A    
C3    C48   S    
C48   O5    A    
C35   H11   S    
C18   C19   A    
C11   C15   T    
C19   C20   A    
C12   O2    A    
C42   C43   A    
C22   H2    S    
O2    Zn2   S    
C24   H3    S    
O1    Zn1   S    
C23   C46   S    
C13   C14   T    
C19   H24   S    
C32   H9    S    
C5    H20   S    
C16   H22   S    
O8    Zn1   S    
C39   C40   A    
C5    C7    A    
C28   H6    S    
C41   H17   S    
C29   H7    S    
C25   C26   A    
O6    Zn2   S    
C30   H8    S    
C21   H26   S    
C23   C44   A    
C31   C37   A    
C2    C4    S    
C38   C44   S    
C29   C30   A    
C26   H4    S    
N1    Zn2   S    
C31   C32   A    
C12   C15   S    
C4    H12   S    
C34   C45   A    
C43   H19   S    
C40   C41   A    
C17   H23   S    
C16   C23   A    
C1    O3    A    
C22   C24   A    
C2    O6    A    
C17   C34   A    
C36   H13   S    
C25   C30   A    
C7    C9    A    
C28   C29   A    
C16   C45   A    
C6    C8    A    
C27   H5    S    
C34   C47   S    
C39   H15   S    
C40   H16   S    
C48   O7    A    
C32   C33   A    
C17   C44   A    
C47   N1    T    
C38   C43   A    
C10   C18   S    
C12   O4    A    
C33   C35   A    
C20   H25   S    
C5    C10   A    
O7    Zn2   S    
C20   C21   A    
C8    C10   A    
C31   C45   S    
C27   C28   A    
C42   H18   S    
C1    C14   S    
C21   C22   A    
N2    Zn1   S    
O3    Zn2   S    
O5    Zn1   S    
C3    C4    D    
