data_mof_unit_51116.cif
_audit_creation_date              2012-12-10T17:21:18-0500
_audit_creation_method            fapswitch 2.2
_symmetry_space_group_name_H-M    P1
_symmetry_Int_Tables_number       1
_space_group_crystal_system       triclinic
_cell_length_a                    9.615879
_cell_length_b                    10.778266
_cell_length_c                    13.878192
_cell_angle_alpha                 92.657132
_cell_angle_beta                  84.932513
_cell_angle_gamma                 90.066713
_cell_volume                      1431.20180799

loop_
_atom_site_label
_atom_site_type_symbol
_atom_type_description
_atom_site_fract_x
_atom_site_fract_y
_atom_site_fract_z
_atom_type_partial_charge
C1    C     C_R   0.499786 0.737320 0.502121 0.829158
C2    C     C_1   0.463747 0.496995 0.785868 -0.126259
C3    C     C_R   0.353685 0.880507 0.662920 -0.262352
C4    C     C_R   0.283826 0.949881 0.739647 -0.204042
C5    C     C_R   0.283925 0.079321 0.740094 0.502406
C6    C     C_R   0.354612 0.139278 0.663316 -0.234156
C7    C     C_R   0.424636 0.070675 0.584289 0.026908
C8    C     C_R   0.424611 0.939629 0.584035 0.050161
C9    C     C_R   0.499570 0.871671 0.506416 -0.076714
C10   C     C_R   0.576704 0.932581 0.432125 0.142399
C11   C     C_R   0.576194 0.061229 0.433171 -0.252632
C12   C     C_R   0.477380 0.499871 0.682802 0.789817
C13   C     C_R   0.499142 0.129666 0.507009 -0.074000
C14   C     C_R   0.872260 0.334096 0.371771 -0.135260
C15   C     C_R   0.952101 0.252248 0.309628 -0.198950
C16   C     C_R   0.095397 0.252033 0.309709 -0.184587
C17   C     C_R   0.159796 0.333624 0.371965 -0.132629
C18   C     C_R   0.082623 0.418207 0.437161 0.210659
C19   C     C_R   0.933163 0.418352 0.437112 0.213300
C20   C     C_R   0.918671 0.577778 0.559833 -0.037980
C21   C     C_R   0.066442 0.577751 0.559813 -0.028090
C22   C     C_R   0.499779 0.262962 0.501619 0.769711
C23   C     C_R   0.522563 0.499709 0.317183 0.806380
C24   C     C_1   0.535837 0.499785 0.213980 -0.153464
C25   C     C_2   0.556756 0.501100 0.023433 -0.153468
C26   C     C_2   0.442106 0.490922 0.976167 -0.114877
C27   C     C_1   0.452835 0.494098 0.872618 0.052719
C28   C     C_1   0.546219 0.500160 0.127101 0.024109
Cu1   Cu    Cu3+1 0.359340 0.500010 0.500010 0.952001
Cu2   Cu    Cu3+1 0.640660 0.499990 0.499990 0.958523
H1    H     H_    0.339766 0.480891 0.014923 0.167830
H2    H     H_    0.763493 0.327197 0.365064 0.189023
H3    H     H_    0.902108 0.188739 0.260770 0.158565
H4    H     H_    0.157514 0.188383 0.260874 0.167461
H5    H     H_    0.270247 0.326224 0.365438 0.194133
H6    H     H_    0.115350 0.641595 0.608864 0.137166
H7    H     H_    0.659010 0.511253 0.984583 0.163844
H8    H     H_    0.353513 0.780611 0.667264 0.155337
H9    H     H_    0.231218 0.902381 0.799493 0.178755
H10   H     H_    0.356651 0.239582 0.667228 0.187214
H11   H     H_    0.634111 0.107984 0.374853 0.132383
H12   H     H_    0.857510 0.641636 0.608905 0.140901
N1    N     N_R   0.852210 0.498790 0.499090 -0.199209
N2    N     N_R   0.148080 0.498710 0.499060 -0.197251
O1    O     O_R   0.381190 0.680360 0.500010 -0.587315
O2    O     O_R   0.618760 0.680340 0.500000 -0.557484
O3    O     O_R   0.364420 0.499990 0.637850 -0.565883
O4    O     O_R   0.601990 0.499960 0.637840 -0.570172
O5    O     O_R   0.381240 0.319660 0.500000 -0.596856
O6    O     O_R   0.618810 0.319640 0.499990 -0.588006
O7    O     O_R   0.398010 0.500040 0.362160 -0.590578
O8    O     O_R   0.635580 0.500010 0.362150 -0.584488
N3    N     N_3   0.653056 0.863252 0.354061 -0.575874
H13   H     H_    0.615161 0.887799 0.289196 0.219038
H14   H     H_    0.757771 0.890035 0.352302 0.230668
S1    S     S_3+6 0.200358 0.167070 0.838657 -0.009917
O9    O     O_2   0.071912 0.100462 0.878378 -0.282886
O10   O     O_2   0.299490 0.183033 0.916163 -0.302713
O11   O     O_3   0.155609 0.307503 0.802972 -0.542540
H15   H     H_    0.127358 0.356478 0.863692 0.370060

loop_
_geom_bond_atom_site_label_1
_geom_bond_atom_site_label_2
_ccdc_geom_bond_type
C7    C13   A    
C20   H12   S    
C23   C24   S    
C4    H9    S    
Cu1   Cu2   S    
C14   H2    S    
C18   N2    A    
C21   N2    A    
C9    C10   A    
C5    S1    S    
C23   O7    A    
S1    O11   S    
C22   O6    A    
C12   O4    A    
C2    C12   S    
N3    H14   S    
C17   C18   A    
C23   O8    A    
C7    C8    A    
C21   H6    S    
Cu1   O5    S    
N3    H13   S    
S1    O9    D    
C25   C28   S    
C11   C13   A    
C1    O1    A    
C26   C27   S    
C2    C27   T    
Cu1   O3    S    
C22   O5    A    
C4    C5    A    
Cu2   O4    S    
C19   N1    A    
C13   C22   S    
C11   H11   S    
C6    C7    A    
C12   O3    A    
Cu1   N2    S    
Cu2   O6    S    
C5    C6    A    
Cu2   N1    S    
C6    H10   S    
C1    O2    A    
C3    C8    A    
C10   C11   A    
C15   C16   A    
C24   C28   T    
O11   H15   S    
C20   N1    A    
C1    C9    S    
C20   C21   A    
C18   C19   A    
Cu1   O7    S    
Cu1   O1    S    
C10   N3    S    
Cu2   O8    S    
C14   C15   A    
C16   C17   A    
C17   H5    S    
C16   H4    S    
C25   C26   D    
C26   H1    S    
C14   C19   A    
Cu2   O2    S    
C3    C4    A    
C3    H8    S    
S1    O10   D    
C8    C9    A    
C15   H3    S    
C25   H7    S    
