data_mof_unit_13354.cif
_audit_creation_date              2012-12-11T15:42:43-0500
_audit_creation_method            fapswitch 2.2
_symmetry_space_group_name_H-M    P1
_symmetry_Int_Tables_number       1
_space_group_crystal_system       triclinic
_cell_length_a                    6.936795
_cell_length_b                    14.484994
_cell_length_c                    16.278711
_cell_angle_alpha                 90.407311
_cell_angle_beta                  90.232494
_cell_angle_gamma                 90.174943
_cell_volume                      1635.6131007

loop_
_atom_site_label
_atom_site_type_symbol
_atom_type_description
_atom_site_fract_x
_atom_site_fract_y
_atom_site_fract_z
_atom_type_partial_charge
O1    O     O_R   0.505810 0.583360 0.413880 -0.542991
O2    O     O_R   0.175870 0.595480 0.585520 -0.545508
O3    O     O_R   0.005540 0.416640 0.586120 -0.546118
C1    C     C_R   0.345191 0.617639 0.614642 0.693623
O4    O     O_R   0.176100 0.594390 0.414490 -0.545774
O5    O     O_R   0.005770 0.415540 0.413870 -0.545405
C2    C     C_R   0.345095 0.616479 0.385745 0.680727
O6    O     O_R   0.505580 0.584460 0.586130 -0.541252
O7    O     O_3   0.339190 0.441320 0.500000 -0.360035
V1    V     V_3+5 0.064350 0.510890 0.500000 1.404175
O8    O     O_R   0.676050 0.404520 0.414480 -0.517023
C3    C     C_R   0.844129 0.382071 0.385543 0.700974
O9    O     O_R   0.675830 0.405610 0.585510 -0.510966
C4    C     C_R   0.844730 0.385769 0.615506 0.791736
V2    V     V_3+5 0.564340 0.489110 0.500000 1.459767
O10   O     O_3   0.839370 0.558680 0.500000 -0.381921
C5    C     C_2   0.749335 0.244666 0.813009 0.200956
C6    C     C_2   0.877751 0.174978 0.818344 -0.400728
H1    H     H_    0.963164 0.155995 0.765259 0.081793
C7    C     C_2   0.712197 0.291385 0.732368 0.394045
C8    C     C_2   0.861255 0.326640 0.689431 -0.426802
H2    H     H_    0.005890 0.316532 0.713005 0.107457
C9    C     C_R   0.037003 0.241311 0.205403 -0.171355
H3    H     H_    0.170616 0.236853 0.171433 0.124280
C10   C     C_R   0.022482 0.305618 0.269875 -0.221621
H4    H     H_    0.144334 0.350295 0.282833 0.143624
C11   C     C_R   0.852581 0.313513 0.316435 -0.072882
C12   C     C_R   0.693307 0.256734 0.294428 0.293791
C13   C     C_R   0.708211 0.194084 0.228688 -0.220433
H5    H     H_    0.584871 0.150935 0.213732 0.124745
C14   C     C_R   0.879778 0.184567 0.184362 -0.070600
C15   C     C_R   0.188698 0.723921 0.718255 -0.155135
H6    H     H_    0.048020 0.705972 0.693796 0.115526
C16   C     C_R   0.199756 0.786175 0.784520 -0.152409
H7    H     H_    0.067128 0.814470 0.808701 0.117611
C17   C     C_R   0.379088 0.811673 0.818886 -0.048258
C18   C     C_R   0.547045 0.773138 0.784830 -0.156816
H8    H     H_    0.687725 0.791101 0.809280 0.116209
C19   C     C_R   0.535988 0.710885 0.718566 -0.148284
H9    H     H_    0.668619 0.682605 0.694373 0.116906
C20   C     C_R   0.356645 0.685320 0.684249 -0.047654
C21   C     C_R   0.188586 0.723366 0.283649 -0.157477
H10   H     H_    0.047854 0.705102 0.307152 0.115646
C22   C     C_R   0.199980 0.786468 0.218943 -0.150339
H11   H     H_    0.067382 0.814970 0.194825 0.119002
C23   C     C_R   0.379536 0.812456 0.185974 -0.048308
C24   C     C_R   0.547372 0.773529 0.219722 -0.157640
H12   H     H_    0.688100 0.791802 0.196220 0.116512
C25   C     C_R   0.535977 0.710423 0.284432 -0.150905
H13   H     H_    0.668568 0.681921 0.308556 0.117403
C26   C     C_R   0.356412 0.684411 0.317377 -0.046543
O11   O     O_R   0.230120 0.912300 0.917180 -0.541381
O12   O     O_R   0.559740 0.902430 0.088770 -0.543242
O13   O     O_R   0.729930 0.081310 0.089370 -0.538836
C27   C     C_R   0.390785 0.880336 0.117563 0.689212
O14   O     O_R   0.559840 0.901330 0.917750 -0.544253
O15   O     O_R   0.730030 0.080210 0.917120 -0.528421
C28   C     C_R   0.390526 0.879228 0.888587 0.683188
O16   O     O_R   0.230020 0.913400 0.089430 -0.539309
O17   O     O_3   0.396460 0.055470 0.003290 -0.373264
V3    V     V_3+5 0.671360 0.985960 0.003250 1.400286
O18   O     O_R   0.059740 0.091300 0.917690 -0.555414
C29   C     C_R   0.890302 0.114068 0.890414 0.818675
O19   O     O_R   0.059640 0.092400 0.088720 -0.546074
C30   C     C_R   0.891063 0.115421 0.116758 0.709583
V4    V     V_3+5 0.171350 0.007820 0.003190 1.379621
O20   O     O_3   0.896380 0.938200 0.003220 -0.373526
N1    N     N_2   0.659213 0.279107 0.885660 -0.514814
H14   H     H_    0.679987 0.349076 0.893999 0.250980
C31   C     C_3   0.460530 0.252481 0.898509 -0.445544
H15   H     H_    0.427255 0.257579 0.965015 0.185044
H16   H     H_    0.433613 0.180290 0.878103 0.202529
H17   H     H_    0.362706 0.299906 0.865148 0.175117
O21   O     O_3   0.524326 0.308317 0.706990 -0.555419
C32   C     C_3   0.416327 0.225058 0.701782 0.091992
H18   H     H_    0.279763 0.235122 0.735523 0.126893
H19   H     H_    0.487486 0.163324 0.728923 0.094923
C33   C     C_3   0.370535 0.203389 0.612165 -0.298899
H20   H     H_    0.308882 0.265463 0.582250 0.221492
H21   H     H_    0.507138 0.184520 0.581246 0.177573
C34   C     C_3   0.228079 0.123299 0.603652 -0.875657
H22   H     H_    0.208673 0.105196 0.537768 0.232221
H23   H     H_    0.282433 0.061547 0.636438 0.236314
H24   H     H_    0.085730 0.143269 0.628906 0.228707
N2    N     N_2   0.516878 0.260833 0.338024 -0.507707
H25   H     H_    0.398650 0.249920 0.300789 0.245881
C35   C     C_3   0.511351 0.201515 0.408725 -0.530859
H26   H     H_    0.524368 0.127973 0.389580 0.180558
H27   H     H_    0.371379 0.210941 0.440202 0.199653
H28   H     H_    0.630326 0.219439 0.451879 0.186848

loop_
_geom_bond_atom_site_label_1
_geom_bond_atom_site_label_2
_ccdc_geom_bond_type
C35   H26   S    
C27   O16   A    
C1    O6    A    
C34   H22   S    
C19   C20   A    
O13   C30   A    
N2    H25   S    
O18   C29   A    
C4    C8    S    
C17   C18   A    
C18   H8    S    
C6    H1    S    
C17   C28   S    
O16   V4    S    
O5    C3    A    
C33   H21   S    
C6    C29   S    
C1    C20   S    
V2    O10   S    
C5    C7    S    
C16   H7    S    
O12   V3    S    
N1    H14   S    
C25   C26   A    
C23   C27   S    
C9    H3    S    
C31   H15   S    
O1    V2    S    
O7    V1    S    
C21   C26   A    
N2    C35   S    
V4    O20   S    
O17   V4    S    
O9    C4    A    
C13   C14   A    
C21   C22   A    
C34   H23   S    
C22   C23   A    
O15   C29   A    
O12   C27   A    
O21   C32   S    
O18   V4    S    
C3    C11   S    
C24   C25   A    
C19   H9    S    
O4    C2    A    
C33   H20   S    
C10   H4    S    
O17   V3    S    
C9    C14   A    
O2    C1    A    
C32   H18   S    
C13   H5    S    
V3    O20   S    
C24   H12   S    
C15   C20   A    
C31   H17   S    
C5    C6    D    
C7    O21   S    
C32   H19   S    
O19   V4    S    
O3    C4    A    
O11   C28   A    
O6    V2    S    
O8    V2    S    
O9    V2    S    
C21   H10   S    
O2    V1    S    
C12   N2    S    
C34   H24   S    
O11   V4    S    
C22   H11   S    
C14   C30   S    
C23   C24   A    
C12   C13   A    
C5    N1    S    
O1    C2    A    
O5    V1    S    
O8    C3    A    
O15   V3    S    
O13   V3    S    
C10   C11   A    
C15   H6    S    
C35   H27   S    
O7    V2    S    
C2    C26   S    
O4    V1    S    
C18   C19   A    
O3    V1    S    
V1    O10   S    
O19   C30   A    
C33   C34   S    
O14   C28   A    
C16   C17   A    
C9    C10   A    
C32   C33   S    
C7    C8    D    
N1    C31   S    
C25   H13   S    
C35   H28   S    
C11   C12   A    
O14   V3    S    
C31   H16   S    
C8    H2    S    
C15   C16   A    
