data_mof_unit_36364.cif
_audit_creation_date              2012-12-11T16:21:23-0500
_audit_creation_method            fapswitch 2.2
_symmetry_space_group_name_H-M    P1
_symmetry_Int_Tables_number       1
_space_group_crystal_system       triclinic
_cell_length_a                    7.182304
_cell_length_b                    37.194402
_cell_length_c                    41.197098
_cell_angle_alpha                 90.000837
_cell_angle_beta                  90.002635
_cell_angle_gamma                 89.901313
_cell_volume                      11005.4383108

loop_
_atom_site_label
_atom_site_type_symbol
_atom_type_description
_atom_site_fract_x
_atom_site_fract_y
_atom_site_fract_z
_atom_type_partial_charge
O1    O     O_R   0.564240 0.782760 0.216890 -0.513510
O2    O     O_R   0.435760 0.217240 0.783110 -0.516672
O3    O     O_R   0.435760 0.217240 0.716890 -0.513499
O4    O     O_R   0.564240 0.782760 0.283110 -0.516677
O5    O     O_R   0.064240 0.717240 0.283110 -0.520819
O6    O     O_R   0.935760 0.282760 0.716890 -0.522040
O7    O     O_R   0.935760 0.282760 0.783110 -0.520818
O8    O     O_R   0.064240 0.717240 0.216890 -0.522020
O9    O     O_R   0.234510 0.787070 0.282870 -0.509966
O10   O     O_R   0.765490 0.212930 0.717130 -0.548751
O11   O     O_R   0.765490 0.212930 0.782870 -0.509966
O12   O     O_R   0.234510 0.787070 0.217130 -0.548750
O13   O     O_R   0.734510 0.712930 0.217130 -0.518089
O14   O     O_R   0.265490 0.287070 0.782870 -0.516913
O15   O     O_R   0.265490 0.287070 0.717130 -0.518076
O16   O     O_R   0.734510 0.712930 0.282870 -0.516900
C1    C     C_R   0.403109 0.795713 0.293830 0.776961
C2    C     C_R   0.597145 0.204254 0.706254 0.752748
C3    C     C_R   0.596896 0.204288 0.793831 0.776975
C4    C     C_R   0.402850 0.795749 0.206256 0.752726
C5    C     C_R   0.903308 0.704269 0.206221 0.770134
C6    C     C_R   0.096864 0.295706 0.793717 0.788266
C7    C     C_R   0.096686 0.295729 0.706220 0.770121
C8    C     C_R   0.903141 0.704294 0.293718 0.788265
O17   O     O_3   0.397750 0.727090 0.250000 -0.353366
O18   O     O_3   0.602250 0.272910 0.750000 -0.353381
O19   O     O_3   0.897750 0.772910 0.250000 -0.356898
O20   O     O_3   0.102250 0.227090 0.750000 -0.356893
V1    V     V_3+5 0.122890 0.754250 0.250000 1.645207
V2    V     V_3+5 0.877110 0.245750 0.750000 1.645166
V3    V     V_3+5 0.622890 0.745750 0.250000 1.671072
V4    V     V_3+5 0.377110 0.254250 0.750000 1.671027
C9    C     C_R   0.984315 0.612494 0.428269 0.634356
C10   C     C_R   0.086432 0.388566 0.571049 0.638187
C11   C     C_R   0.014973 0.387512 0.928245 0.634518
C12   C     C_R   0.914047 0.611459 0.071030 0.637971
C13   C     C_R   0.502220 0.887510 0.071880 0.642771
C14   C     C_R   0.588762 0.111611 0.929073 0.636686
C15   C     C_R   0.498306 0.112512 0.571848 0.642635
C16   C     C_R   0.410685 0.888417 0.429053 0.636847
O21   O     O_2   0.005779 0.648098 0.433170 -0.483756
O22   O     O_2   0.120760 0.353435 0.565515 -0.479978
O23   O     O_2   0.992935 0.351918 0.933127 -0.483764
O24   O     O_2   0.880269 0.646607 0.065487 -0.479988
O25   O     O_2   0.525837 0.851934 0.067026 -0.477087
O26   O     O_2   0.618035 0.146893 0.934597 -0.483158
O27   O     O_2   0.475132 0.148097 0.566979 -0.477084
O28   O     O_2   0.380869 0.853151 0.434571 -0.483162
N1    N     N_R   0.950381 0.600348 0.397471 -0.551874
N2    N     N_R   0.065781 0.400133 0.602386 -0.552239
N3    N     N_R   0.049580 0.399648 0.897468 -0.551868
N4    N     N_R   0.934059 0.599873 0.102375 -0.552232
N5    N     N_R   0.464657 0.899592 0.102569 -0.553213
N6    N     N_R   0.570978 0.099904 0.897734 -0.551350
N7    N     N_R   0.535347 0.100422 0.602553 -0.553216
N8    N     N_R   0.429052 0.900106 0.397720 -0.551348
C17   C     C_R   0.927873 0.564504 0.391227 0.750680
C18   C     C_R   0.031811 0.435510 0.609283 0.748516
C19   C     C_R   0.072710 0.435479 0.891243 0.750538
C20   C     C_R   0.967412 0.564475 0.109278 0.748682
C21   C     C_R   0.439960 0.935394 0.108794 0.748725
C22   C     C_R   0.542049 0.064391 0.890827 0.750623
C23   C     C_R   0.559549 0.064611 0.608794 0.748839
C24   C     C_R   0.458551 0.935601 0.390815 0.750485
C25   C     C_R   0.081433 0.628624 0.348069 0.128729
C26   C     C_R   0.228166 0.373145 0.649643 0.134574
C27   C     C_R   0.918596 0.371385 0.848057 0.128685
C28   C     C_R   0.771770 0.626851 0.149649 0.134543
C29   C     C_R   0.589616 0.870671 0.152148 0.142761
C30   C     C_R   0.734186 0.127847 0.851178 0.130049
C31   C     C_R   0.410348 0.129348 0.652128 0.142797
C32   C     C_R   0.265853 0.872164 0.351164 0.130026
C33   C     C_R   0.068543 0.653992 0.322811 0.488489
C34   C     C_R   0.233598 0.347818 0.675038 0.488354
C35   C     C_R   0.931488 0.346016 0.822801 0.488516
C36   C     C_R   0.766398 0.652172 0.175050 0.488410
C37   C     C_R   0.571526 0.845597 0.177510 0.525240
C38   C     C_R   0.738815 0.153262 0.825894 0.508454
C39   C     C_R   0.428445 0.154417 0.677495 0.525245
C40   C     C_R   0.261213 0.846745 0.325883 0.508486
C41   C     C_R   0.769303 0.674193 0.343741 0.109593
C42   C     C_R   0.933475 0.324242 0.657832 0.122675
C43   C     C_R   0.230684 0.325802 0.843746 0.109622
C44   C     C_R   0.066409 0.675770 0.157819 0.122608
C45   C     C_R   0.270850 0.826941 0.155930 0.099332
C46   C     C_R   0.430846 0.174810 0.841586 0.140564
C47   C     C_R   0.729138 0.173070 0.655926 0.099279
C48   C     C_R   0.569167 0.825190 0.341586 0.140616
C49   C     C_R   0.782940 0.648608 0.368712 -0.202024
C50   C     C_R   0.928647 0.349920 0.632876 -0.198053
C51   C     C_R   0.217025 0.351384 0.868721 -0.202143
C52   C     C_R   0.071178 0.650099 0.132858 -0.197984
C53   C     C_R   0.290574 0.852148 0.130917 -0.114789
C54   C     C_R   0.428109 0.149075 0.866593 -0.189251
C55   C     C_R   0.709426 0.147863 0.630912 -0.114675
C56   C     C_R   0.571911 0.850929 0.366591 -0.189349
C57   C     C_R   0.937955 0.625890 0.371110 0.279222
C58   C     C_R   0.074569 0.374303 0.628560 0.275828
C59   C     C_R   0.062030 0.374107 0.871109 0.279343
C60   C     C_R   0.925293 0.625704 0.128551 0.275655
C61   C     C_R   0.448407 0.874001 0.128790 0.240245
C62   C     C_R   0.578064 0.125701 0.871545 0.271117
C63   C     C_R   0.551581 0.126014 0.628777 0.240149
C64   C     C_R   0.421966 0.874306 0.371535 0.271225
C65   C     C_R   0.975858 0.550875 0.448490 -0.189246
C66   C     C_R   0.036373 0.449746 0.551541 -0.188991
C67   C     C_R   0.024042 0.449120 0.948485 -0.189217
C68   C     C_R   0.963483 0.550256 0.051530 -0.189016
C69   C     C_R   0.491131 0.949111 0.051651 -0.189174
C70   C     C_R   0.545848 0.050272 0.948587 -0.189070
C71   C     C_R   0.508897 0.050902 0.551635 -0.189194
C72   C     C_R   0.454175 0.949740 0.448570 -0.189051
C73   C     C_R   0.997363 0.588089 0.454626 0.019942
C74   C     C_R   0.071691 0.413042 0.544779 0.019274
C75   C     C_R   0.001845 0.411918 0.954601 0.019906
C76   C     C_R   0.928854 0.586982 0.044761 0.019317
C77   C     C_R   0.516178 0.911949 0.045578 0.017486
C78   C     C_R   0.576272 0.087118 0.955348 0.020038
C79   C     C_R   0.484407 0.088074 0.545544 0.017517
C80   C     C_R   0.423149 0.912912 0.455327 0.020000
C81   C     C_R   0.034396 0.599521 0.486710 0.172371
C82   C     C_R   0.093218 0.402191 0.512103 0.173341
C83   C     C_R   0.964069 0.400500 0.986661 0.172362
C84   C     C_R   0.908055 0.597856 0.012076 0.173358
C85   C     C_R   0.556963 0.900602 0.013606 0.172124
C86   C     C_R   0.595384 0.098095 0.988028 0.173506
C87   C     C_R   0.444213 0.099432 0.513552 0.172136
C88   C     C_R   0.403438 0.901955 0.488002 0.173498
C89   C     C_R   0.941415 0.538992 0.416493 -0.289343
C90   C     C_R   0.017630 0.461103 0.584089 -0.289177
C91   C     C_R   0.059189 0.460992 0.916508 -0.289232
C92   C     C_R   0.981540 0.538880 0.084085 -0.289280
C93   C     C_R   0.453586 0.960929 0.083568 -0.288294
C94   C     C_R   0.529930 0.038791 0.916031 -0.290419
C95   C     C_R   0.545886 0.039075 0.583569 -0.288377
C96   C     C_R   0.470691 0.961203 0.416018 -0.290331
C97   C     C_R   0.912876 0.677114 0.320322 -0.177692
C98   C     C_R   0.087093 0.322915 0.679469 -0.175526
C99   C     C_R   0.087134 0.322888 0.820320 -0.177705
C100  C     C_R   0.912876 0.677083 0.179471 -0.175545
C101  C     C_R   0.413145 0.823176 0.179771 -0.232651
C102  C     C_R   0.588034 0.177149 0.820686 -0.212586
C103  C     C_R   0.586840 0.176833 0.679765 -0.232664
C104  C     C_R   0.411981 0.822853 0.320683 -0.212607
H1    H     H_    0.672863 0.646623 0.386601 0.157020
H2    H     H_    0.810689 0.350732 0.616493 0.153550
H3    H     H_    0.327069 0.353365 0.886619 0.156985
H4    H     H_    0.189079 0.649298 0.116463 0.153672
H5    H     H_    0.181988 0.854733 0.112800 0.169774
H6    H     H_    0.309182 0.147345 0.882681 0.144685
H7    H     H_    0.818028 0.145277 0.612800 0.169796
H8    H     H_    0.690831 0.852660 0.382683 0.144634
C105  C     C_R   0.999667 0.512303 0.532774 -0.168441
C106  C     C_R   0.983398 0.488085 0.467596 -0.168059
C107  C     C_R   0.999467 0.487682 0.032766 -0.168517
C108  C     C_R   0.017209 0.511909 0.967603 -0.167974
C109  C     C_R   0.515896 0.987621 0.967384 -0.168895
C110  C     C_R   0.493732 0.011894 0.032500 -0.167794
C111  C     C_R   0.484738 0.012381 0.467366 -0.168843
C112  C     C_R   0.505699 0.988116 0.532497 -0.167870
C113  C     C_R   0.021569 0.463226 0.493113 0.119825
C114  C     C_R   0.007237 0.537591 0.506770 0.120313
C115  C     C_R   0.979024 0.536784 0.993107 0.119846
C116  C     C_R   0.991908 0.462407 0.006751 0.120294
C117  C     C_R   0.530340 0.036833 0.007005 0.119728
C118  C     C_R   0.524940 0.962413 0.993433 0.120252
C119  C     C_R   0.469086 0.963188 0.506992 0.119709
C120  C     C_R   0.475688 0.037600 0.493406 0.120264
C121  C     C_R   0.019256 0.475142 0.525764 0.001032
C122  C     C_R   0.988790 0.525472 0.474334 0.000661
C123  C     C_R   0.980604 0.524857 0.025756 0.001028
C124  C     C_R   0.011094 0.474524 0.974329 0.000669
C125  C     C_R   0.530775 0.024857 0.974371 0.001011
C126  C     C_R   0.503323 0.974520 0.025815 0.001034
C127  C     C_R   0.469253 0.975155 0.474354 0.001024
C128  C     C_R   0.496706 0.025492 0.525799 0.001037
C129  C     C_R   0.969924 0.522582 0.565497 0.523803
C130  C     C_R   0.936664 0.477087 0.435688 0.523383
C131  C     C_R   0.028510 0.477376 0.065501 0.523826
C132  C     C_R   0.064648 0.522888 0.935722 0.523378
C133  C     C_R   0.488958 0.977175 0.934636 0.524173
C134  C     C_R   0.444322 0.022791 0.064322 0.523215
C135  C     C_R   0.512267 0.022803 0.434626 0.524147
C136  C     C_R   0.554548 0.977202 0.564341 0.523209
C137  C     C_R   0.980275 0.497510 0.590579 0.653630
C138  C     C_R   0.917589 0.502047 0.410673 0.652012
C139  C     C_R   0.018187 0.502448 0.090584 0.653636
C140  C     C_R   0.083716 0.497923 0.910711 0.651988
C141  C     C_R   0.497433 0.002238 0.909536 0.653592
C142  C     C_R   0.426283 0.997809 0.089325 0.652046
C143  C     C_R   0.503787 0.997737 0.409528 0.653585
C144  C     C_R   0.572617 0.002183 0.589346 0.652054
O29   O     O_2   0.010480 0.445739 0.640482 -0.429660
O30   O     O_2   0.892029 0.553701 0.360600 -0.429926
O31   O     O_2   0.988212 0.554228 0.140482 -0.429647
O32   O     O_2   0.109135 0.446269 0.860634 -0.429968
O33   O     O_2   0.523844 0.054032 0.859606 -0.428679
O34   O     O_2   0.401495 0.946122 0.139353 -0.430955
O35   O     O_2   0.477285 0.945939 0.359599 -0.428706
O36   O     O_2   0.597576 0.053875 0.639368 -0.430940
C145  C     C_R   0.039572 0.574479 0.512027 -0.142313
C146  C     C_R   0.068899 0.427087 0.487007 -0.139534
C147  C     C_R   0.958870 0.425538 0.011981 -0.142336
C148  C     C_R   0.932392 0.572953 0.986986 -0.139470
C149  C     C_R   0.561597 0.925635 0.988284 -0.141851
C150  C     C_R   0.573257 0.073144 0.013123 -0.139274
C151  C     C_R   0.439597 0.074394 0.488233 -0.141828
C152  C     C_R   0.425577 0.926902 0.513100 -0.139333
H9    H     H_    0.079077 0.584537 0.535589 0.208091
H10   H     H_    0.097316 0.417695 0.462734 0.208919
H11   H     H_    0.918790 0.415500 0.035520 0.208062
H12   H     H_    0.904541 0.582369 0.962702 0.208939
H13   H     H_    0.603887 0.915689 0.964821 0.207978
H14   H     H_    0.599773 0.082670 0.037412 0.208964
H15   H     H_    0.397763 0.084354 0.464749 0.207990
H16   H     H_    0.398596 0.917398 0.537380 0.208936
N9    N     N_3   0.611987 0.697918 0.342969 -0.636526
H17   H     H_    0.606142 0.711617 0.365109 0.228220
H18   H     H_    0.491619 0.682327 0.341017 0.267713
N10   N     N_3   0.783486 0.299059 0.660442 -0.637607
H19   H     H_    0.660033 0.313529 0.663743 0.277481
H20   H     H_    0.772956 0.285234 0.638421 0.230758
N11   N     N_3   0.387998 0.302077 0.842979 -0.636525
H21   H     H_    0.393814 0.288373 0.865116 0.228228
H22   H     H_    0.508373 0.317668 0.841036 0.267669
N12   N     N_3   0.216352 0.700965 0.160416 -0.637550
H23   H     H_    0.339914 0.686507 0.163640 0.277209
H24   H     H_    0.226473 0.714837 0.138414 0.230764
N13   N     N_3   0.107033 0.805014 0.155687 -0.630801
H25   H     H_    0.146382 0.777978 0.156548 0.239902
H26   H     H_    0.026061 0.811277 0.175977 0.289026
N14   N     N_3   0.275905 0.199011 0.837987 -0.573837
H27   H     H_    0.165241 0.191328 0.852941 0.242308
H28   H     H_    0.319360 0.224279 0.846048 0.220346
N15   N     N_3   0.892949 0.194998 0.655687 -0.630817
H29   H     H_    0.853597 0.222034 0.656548 0.239967
H30   H     H_    0.973911 0.188735 0.675979 0.289045
N16   N     N_3   0.724093 0.800985 0.337993 -0.573868
H31   H     H_    0.834742 0.808662 0.352956 0.242297
H32   H     H_    0.680598 0.775717 0.346046 0.220342
N17   N     N_3   0.068698 0.636593 0.494092 -0.565077
H33   H     H_    0.970489 0.644969 0.511251 0.262711
H34   H     H_    0.200696 0.638583 0.504648 0.248271
N18   N     N_3   0.141133 0.365886 0.503860 -0.561917
H35   H     H_    0.265750 0.366274 0.490739 0.251298
H36   H     H_    0.037054 0.355670 0.488712 0.263602
N19   N     N_3   0.929002 0.363449 0.994015 -0.565111
H37   H     H_    0.026746 0.355006 0.011229 0.262775
H38   H     H_    0.796774 0.361540 0.004493 0.248197
N20   N     N_3   0.860898 0.634193 0.003817 -0.561887
H39   H     H_    0.736516 0.633887 0.990625 0.251367
H40   H     H_    0.965425 0.644349 0.988732 0.263533
N21   N     N_3   0.595656 0.863638 0.006350 -0.561790
H41   H     H_    0.499742 0.854936 0.988955 0.263864
H42   H     H_    0.728694 0.862054 0.996130 0.248923
N22   N     N_3   0.638642 0.134586 0.996276 -0.563876
H43   H     H_    0.762829 0.134694 0.009527 0.250917
H44   H     H_    0.532837 0.144423 0.011301 0.262768
N23   N     N_3   0.406131 0.136413 0.506270 -0.561747
H45   H     H_    0.502421 0.145061 0.488918 0.263812
H46   H     H_    0.273272 0.138061 0.495986 0.248980
N24   N     N_3   0.359542 0.865490 0.496240 -0.563891
H47   H     H_    0.235183 0.865455 0.509440 0.250859
H48   H     H_    0.465005 0.855601 0.511311 0.262810
F1    F     F_    0.381336 0.348187 0.695632 -0.659983
F2    F     F_    0.207341 0.655473 0.300440 -0.657508
F3    F     F_    0.618737 0.651792 0.195657 -0.659848
F4    F     F_    0.792721 0.344540 0.800421 -0.657482
F5    F     F_    0.890637 0.154005 0.806228 -0.643158
F6    F     F_    0.708470 0.843718 0.200211 -0.664080
F7    F     F_    0.109397 0.846003 0.306214 -0.643131
F8    F     F_    0.291490 0.156296 0.700192 -0.664096
N25   N     N_3   0.379499 0.397631 0.644973 -0.590269
H49   H     H_    0.395612 0.412640 0.666242 0.309142
H50   H     H_    0.500969 0.382586 0.641479 0.246731
N26   N     N_3   0.240981 0.605637 0.350600 -0.592497
H51   H     H_    0.252528 0.590980 0.329038 0.308484
H52   H     H_    0.359258 0.621783 0.352784 0.243901
N27   N     N_3   0.620436 0.602363 0.144986 -0.590252
H53   H     H_    0.604409 0.587348 0.166253 0.309226
H54   H     H_    0.498951 0.617407 0.141506 0.246669
N28   N     N_3   0.759100 0.394386 0.850576 -0.592466
H55   H     H_    0.747641 0.409046 0.829014 0.308411
H56   H     H_    0.640776 0.378251 0.852748 0.244049
N29   N     N_3   0.888969 0.104237 0.856469 -0.591954
H57   H     H_    0.910731 0.089394 0.835252 0.307850
H58   H     H_    0.007169 0.119969 0.860516 0.248209
N30   N     N_3   0.752552 0.892665 0.149799 -0.591887
H59   H     H_    0.764245 0.907549 0.171228 0.303459
H60   H     H_    0.868572 0.875746 0.148167 0.259636
N31   N     N_3   0.111101 0.895783 0.356447 -0.591933
H61   H     H_    0.089380 0.910625 0.335227 0.307802
H62   H     H_    0.992871 0.880059 0.360491 0.248327
N32   N     N_3   0.247368 0.107367 0.649766 -0.591940
H63   H     H_    0.235605 0.092482 0.671191 0.303513
H64   H     H_    0.131391 0.124296 0.648127 0.259557
F9    F     F_    0.950343 0.509300 0.621353 -0.536776
F10   F     F_    0.873045 0.489562 0.380678 -0.537964
F11   F     F_    0.047428 0.490631 0.121370 -0.536698
F12   F     F_    0.128964 0.510389 0.880742 -0.538059
F13   F     F_    0.470387 0.990288 0.878737 -0.536342
F14   F     F_    0.378875 0.010196 0.119229 -0.538351
F15   F     F_    0.531439 0.009662 0.378738 -0.536400
F16   F     F_    0.619483 0.989780 0.619272 -0.538279
F17   F     F_    0.913268 0.556206 0.573653 -0.618957
F18   F     F_    0.891760 0.442539 0.428635 -0.620464
F19   F     F_    0.084462 0.443714 0.073677 -0.618852
F20   F     F_    0.110246 0.557409 0.928702 -0.620573
F21   F     F_    0.436783 0.943328 0.926445 -0.618300
F22   F     F_    0.395650 0.057203 0.071273 -0.621136
F23   F     F_    0.565036 0.056620 0.426451 -0.618369
F24   F     F_    0.602661 0.942767 0.571320 -0.621042

loop_
_geom_bond_atom_site_label_1
_geom_bond_atom_site_label_2
_ccdc_geom_bond_type
N15   H30   S    
C106  C113  A    
N11   H21   S    
C10   O22   S    
C70   C78   A    
C48   C56   A    
C21   C93   A    
O15   V4    S    
O16   V3    S    
C19   C91   A    
N28   H55   S    
C138  F10   S    
C32   N31   S    
N20   H40   S    
C47   N15   S    
N18   H35   S    
C106  C122  A    
C66   C90   A    
C87   C151  A    
C110  C126  A    
N31   H61   S    
C11   C75   A    
C43   N11   S    
C150  H14   S    
C25   N26   S    
C20   C92   A    
O13   V3    S    
N16   H32   S    
C118  C126  A    
C75   C83   A    
C69   C93   A    
C45   N13   S    
C53   C61   A    
C72   C80   A    
C6    C99   S    
N13   H25   S    
O10   V2    S    
C148  H12   S    
N14   H28   S    
O13   C5    A    
O6    V2    S    
C56   C64   A    
C11   N3    A    
C12   O24   S    
C144  F16   S    
C13   O25   S    
C15   O27   S    
C16   O28   S    
O1    C4    A    
O2    C3    A    
N23   H46   S    
C65   C89   A    
C29   C61   A    
C54   H6    S    
O7    C6    A    
C43   C51   A    
C18   O29   S    
C83   C147  A    
C81   C145  A    
N29   H58   S    
C108  C132  A    
C82   C146  A    
N32   H63   S    
C33   C97   A    
O10   C2    A    
C85   C149  A    
C108  C124  A    
N27   H54   S    
C37   C101  A    
C95   C144  A    
C33   F2    S    
N1    C57   S    
C130  C138  A    
C29   N30   S    
C13   C77   A    
C54   C62   A    
C42   C98   A    
C26   N25   S    
C86   N22   S    
C88   C152  A    
C110  C117  A    
O17   V3    S    
C24   C96   A    
O18   V4    S    
O12   V1    S    
O19   V1    S    
C29   C37   A    
C71   C95   A    
C51   H3    S    
C49   H1    S    
C1    C104  S    
O8    V1    S    
C65   C73   A    
C2    C103  S    
N31   H62   S    
C18   C90   A    
N21   H41   S    
C26   C34   A    
O1    V3    S    
N1    C17   A    
O2    V4    S    
N17   H33   S    
C38   F5    S    
C84   N20   S    
N4    C20   A    
N5    C21   A    
C39   C103  A    
C48   C104  A    
C40   C104  A    
N7    C23   A    
N8    C24   A    
C118  C149  A    
C11   O23   S    
C12   N4    A    
C13   N5    A    
C41   N9    S    
C147  H11   S    
C72   C96   A    
C139  F11   S    
C145  H9    S    
N10   H19   S    
C55   C63   A    
O8    C5    A    
C105  C129  A    
N2    C58   S    
C71   C128  A    
C113  C146  A    
O11   V2    S    
C45   C101  A    
N9    H17   S    
N4    C60   S    
C47   C55   A    
N30   H60   S    
C28   C60   A    
N27   H53   S    
C30   N29   S    
C48   N16   S    
C87   N23   S    
C116  C124  A    
C27   C35   A    
C12   C76   A    
C119  C127  A    
C120  C128  A    
C31   C63   A    
C4    C101  S    
C22   O33   S    
N11   H22   S    
N24   H47   S    
C8    C97   S    
C28   C36   A    
C134  C142  A    
C9    C73   A    
C17   O30   S    
C46   N14   S    
C119  C152  A    
O14   C6    A    
C32   C40   A    
C35   C99   A    
C15   C79   A    
N25   H50   S    
N18   H36   S    
C14   O26   S    
C70   C94   A    
C140  F12   S    
C73   C81   A    
N26   H51   S    
N12   H23   S    
C44   C52   A    
C51   C59   A    
C77   C85   A    
C20   O31   S    
C79   C87   A    
C132  F20   S    
C133  F21   S    
C52   H4    S    
C7    C98   S    
C53   H5    S    
C43   C99   A    
C90   C137  A    
C69   C77   A    
C41   C97   A    
C34   C98   A    
O11   C3    A    
C94   C141  A    
C38   C102  A    
C80   C88   A    
C34   F1    S    
C131  C139  A    
C9    N1    A    
C129  C137  A    
C23   O36   S    
C132  C140  A    
C133  C141  A    
C15   N7    A    
C108  C115  A    
N5    C61   S    
C16   N8    A    
N15   H29   S    
C136  C144  A    
C88   N24   S    
C115  C123  A    
C27   C59   A    
C67   C124  A    
C41   C49   A    
C149  H13   S    
O7    V2    S    
C89   C138  A    
C109  C133  A    
C131  F19   S    
C92   C139  A    
C31   C39   A    
C107  C131  A    
C93   C142  A    
C35   F4    S    
N19   H38   S    
C115  C148  A    
C65   C122  A    
C96   C143  A    
N2    C18   A    
N8    C64   S    
C69   C126  A    
C82   N18   S    
C32   C64   A    
N20   H39   S    
C81   N17   S    
N29   H57   S    
C116  C147  A    
C14   N6    A    
C151  H15   S    
C120  C151  A    
O4    C1    A    
C16   C80   A    
C66   C74   A    
C3    C102  S    
C106  C130  A    
C55   H7    S    
C46   C102  A    
C17   C89   A    
N16   H31   S    
C76   C84   A    
C130  F18   S    
N28   H56   S    
N6    C62   S    
O14   V4    S    
C21   O34   S    
C30   C62   A    
C19   O32   S    
N6    C22   A    
C39   F8    S    
C42   C50   A    
C105  C114  A    
C40   F7    S    
C9    O21   S    
C68   C76   A    
N13   H26   S    
C26   C58   A    
C86   C150  A    
N14   H27   S    
C137  F9    S    
O3    V4    S    
O4    V3    S    
C25   C57   A    
C14   C78   A    
C42   N10   S    
C24   O35   S    
C105  C121  A    
N22   H44   S    
C135  F23   S    
C5    C100  S    
C109  C125  A    
C56   H8    S    
C83   N19   S    
C30   C38   A    
C44   N12   S    
N10   H20   S    
C28   N27   S    
C84   C148  A    
C71   C79   A    
C117  C125  A    
C142  F14   S    
N7    C63   S    
C25   C33   A    
C111  C120  A    
O3    C2    A    
C112  C119  A    
C46   C54   A    
C114  C122  A    
C134  F22   S    
C117  C150  A    
O9    V1    S    
C91   C140  A    
O15   C7    A    
C152  H16   S    
C111  C127  A    
C112  C128  A    
O12   C4    A    
C45   C53   A    
C146  H10   S    
C27   N28   S    
O5    V1    S    
C36   C100  A    
N3    C59   S    
C10   N2    A    
C68   C92   A    
C114  C145  A    
C67   C91   A    
N21   H42   S    
N24   H48   S    
C49   C57   A    
N17   H34   S    
C31   N32   S    
C23   C95   A    
N22   H43   S    
N25   H49   S    
C141  F13   S    
C85   N21   S    
C110  C134  A    
C67   C75   A    
O9    C1    A    
N26   H52   S    
N12   H24   S    
C66   C121  A    
C36   F3    S    
N3    C19   A    
N23   H45   S    
C52   C60   A    
C70   C125  A    
C135  C143  A    
C109  C118  A    
N19   H37   S    
C143  F15   S    
C107  C116  A    
C10   C74   A    
C136  F24   S    
C111  C135  A    
N30   H59   S    
C22   C94   A    
O20   V2    S    
C113  C121  A    
C50   H2    S    
N32   H64   S    
O5    C8    A    
O6    C7    A    
C112  C136  A    
C129  F17   S    
N9    H18   S    
C74   C82   A    
C107  C123  A    
C72   C127  A    
C44   C100  A    
O16   C8    A    
C68   C123  A    
C37   F6    S    
C78   C86   A    
C47   C103  A    
C50   C58   A    
