data_mof_unit_68526.cif
_audit_creation_date              2012-12-10T19:48:33-0500
_audit_creation_method            fapswitch 2.2
_symmetry_space_group_name_H-M    P1
_symmetry_Int_Tables_number       1
_space_group_crystal_system       triclinic
_cell_length_a                    11.530439
_cell_length_b                    10.751252
_cell_length_c                    9.72634
_cell_angle_alpha                 88.340093
_cell_angle_beta                  89.503232
_cell_angle_gamma                 92.780774
_cell_volume                      1203.75538128

loop_
_atom_site_label
_atom_site_type_symbol
_atom_type_description
_atom_site_fract_x
_atom_site_fract_y
_atom_site_fract_z
_atom_type_partial_charge
Br1   Br    Br    0.135020 0.093427 0.938416 -0.271621
Br2   Br    Br    0.234000 0.069629 0.574064 -0.309752
Br3   Br    Br    0.638864 0.051891 0.782532 -0.282105
Br4   Br    Br    0.336050 0.915123 0.241291 -0.222009
Br5   Br    Br    0.847613 0.259852 0.198451 -0.334658
Br6   Br    Br    0.668486 0.718458 0.866758 -0.292009
Br7   Br    Br    0.365650 0.263823 0.137385 -0.424563
Br8   Br    Br    0.136157 0.613474 0.100165 -0.143253
Br9   Br    Br    0.858141 0.202312 0.614596 -0.318308
Br10  Br    Br    0.056308 0.008757 0.258967 -0.067145
Br11  Br    Br    0.842381 0.595263 0.115041 -0.272144
Br12  Br    Br    0.762855 0.911101 0.454453 -0.291879
C1    C     C_R   0.500362 0.260122 0.502313 0.921759
C2    C     C_3   0.388782 0.034637 0.519099 0.136816
C3    C     C_3   0.496069 0.874667 0.494615 -0.310322
C4    C     C_3   0.499008 0.122119 0.508749 -0.294596
C5    C     C_3   0.454028 0.947982 0.615589 0.320954
C6    C     C_3   0.541130 0.047367 0.386393 0.322885
C7    C     C_3   0.482664 0.606938 0.044292 0.334166
C8    C     C_3   0.515680 0.393018 0.954834 0.344617
C9    C     C_3   0.403109 0.531673 0.949193 0.426223
C10   C     C_3   0.594222 0.465836 0.052100 0.293989
C11   C     C_3   0.581318 0.575236 0.946303 0.161288
C12   C     C_R   0.497474 0.738738 0.498250 0.901729
C13   C     C_3   0.418031 0.422520 0.055758 0.177414
C14   C     C_R   0.263741 0.502371 0.500005 0.791841
C15   C     C_R   0.738643 0.499007 0.499584 0.812916
C16   C     C_R   0.126939 0.348473 0.038904 0.234170
C17   C     C_R   0.867249 0.257253 0.905893 0.342772
C18   C     C_R   0.118273 0.437166 0.142559 0.300909
C19   C     C_R   0.874471 0.307363 0.770417 0.132018
C20   C     C_R   0.095778 0.398439 0.279220 -0.230630
C21   C     C_R   0.893195 0.436627 0.748667 -0.124116
C22   C     C_R   0.092267 0.269021 0.314376 0.324755
C23   C     C_R   0.875598 0.495777 0.499205 -0.213195
C24   C     C_R   0.891870 0.517565 0.857422 0.441512
C25   C     C_R   0.096838 0.180779 0.211174 0.387002
C26   C     C_R   0.874882 0.469247 0.989223 0.236623
C27   C     C_R   0.113569 0.219172 0.073220 0.085309
C28   C     C_R   0.867815 0.337890 0.016029 0.135415
C29   C     C_R   0.948242 0.536785 0.386078 0.462634
C30   C     C_R   0.065211 0.520152 0.619974 0.372287
C31   C     C_R   0.131627 0.509973 0.498938 -0.255900
C32   C     C_R   0.943224 0.483869 0.620108 -0.027093
C33   C     C_R   0.063423 0.491697 0.381327 0.114980
C34   C     C_3   0.563721 0.034450 0.608326 0.241237
C35   C     C_3   0.430885 0.960643 0.395764 0.178054
C36   C     C_3   0.606248 0.960862 0.484862 0.146184
Cu1   Cu    Cu3+1 0.500030 0.499990 0.643150 1.104632
Cu2   Cu    Cu3+1 0.499970 0.500010 0.356850 1.088479
H1    H     H_    0.331403 0.662517 0.850407 0.378756
H2    H     H_    0.168749 0.639189 0.703083 0.371239
H3    H     H_    0.386937 0.961581 0.796119 0.399504
H4    H     H_    0.604888 0.028124 0.205828 0.381932
H5    H     H_    0.631479 0.335032 0.174443 0.403180
H6    H     H_    0.537202 0.758265 0.125971 0.367534
H7    H     H_    0.571259 0.227998 0.979448 0.384128
H8    H     H_    0.143536 0.322117 0.841798 0.366572
H9    H     H_    0.884351 0.085214 0.854032 0.410212
H10   H     H_    0.093067 0.284468 0.512610 0.339263
H11   H     H_    0.897850 0.671106 0.742282 0.361793
H12   H     H_    0.872379 0.694775 0.382646 0.362852
N1    N     N_3   0.500090 0.499970 0.858290 -0.283529
N2    N     N_3   0.499910 0.500030 0.141710 -0.287951
O1    O     O_R   0.500060 0.316850 0.620870 -0.520529
O2    O     O_3   0.674852 0.401916 0.120264 -0.668081
O3    O     O_3   0.461765 0.725074 0.090896 -0.600091
O4    O     O_3   0.538444 0.277005 0.902624 -0.613769
O5    O     O_3   0.148693 0.391267 0.906334 -0.604131
O6    O     O_3   0.860591 0.130728 0.935632 -0.582568
O7    O     O_3   0.065999 0.223905 0.444650 -0.588987
O8    O     O_3   0.912697 0.645230 0.838820 -0.559912
O9    O     O_3   0.948550 0.663303 0.356265 -0.608464
O10   O     O_3   0.113955 0.570267 0.735120 -0.574391
O11   O     O_3   0.406194 0.892095 0.736507 -0.627879
O12   O     O_R   0.499940 0.683150 0.379130 -0.564394
O13   O     O_3   0.588581 0.099610 0.263906 -0.622896
O14   O     O_R   0.500000 0.316860 0.379090 -0.539528
O15   O     O_R   0.500000 0.683140 0.620910 -0.530713
O16   O     O_R   0.319670 0.500010 0.620890 -0.540223
O17   O     O_R   0.680330 0.499990 0.379110 -0.518195
O18   O     O_R   0.319620 0.500010 0.379110 -0.546306
O19   O     O_R   0.680380 0.499990 0.620890 -0.565590
O20   O     O_3   0.305208 0.580158 0.890995 -0.569109

loop_
_geom_bond_atom_site_label_1
_geom_bond_atom_site_label_2
_ccdc_geom_bond_type
C26   C28   A    
Cu1   N1    S    
C22   C25   A    
Cu2   N2    S    
C20   C33   S    
C16   O5    S    
C3    C35   S    
Br12  C36   S    
C6    C35   S    
C1    O1    A    
Cu1   O1    S    
Br10  C25   S    
C7    C9    S    
H2    O10   S    
C8    C13   S    
H10   O7    S    
C21   C24   A    
C10   O2    S    
C19   C21   A    
H12   O9    S    
C7    O3    S    
H4    O13   S    
C11   N1    S    
C14   O18   A    
C2    C5    S    
H3    O11   S    
C30   C32   A    
C3    C36   S    
Br2   C2    S    
Cu2   O14   S    
C14   C31   S    
C34   C36   S    
C30   O10   S    
C15   O17   A    
C5    C34   S    
C4    C34   S    
Br9   C19   S    
C12   O12   A    
C16   C27   A    
C15   C23   S    
C10   N2    S    
C14   O16   A    
Cu1   O15   S    
C13   N2    S    
C20   C22   A    
Br11  C26   S    
C7    C11   S    
Cu2   O12   S    
C12   O15   A    
C9    O20   S    
C7    N2    S    
C23   C32   A    
C31   C33   A    
H11   O8    S    
C4    C6    S    
C3    C12   S    
C8    C10   S    
C2    C4    S    
C1    C4    S    
C30   C31   A    
H7    O4    S    
H5    O2    S    
Cu2   O18   S    
C17   O6    S    
C3    C5    S    
C9    C13   S    
C1    O14   A    
C21   C32   S    
C8    O4    S    
C6    C36   S    
H8    O5    S    
C2    C35   S    
H6    O3    S    
Br3   C34   S    
Br7   C13   S    
Cu1   O16   S    
Br8   C18   S    
Cu1   O19   S    
C8    N1    S    
C24   C26   A    
C16   C18   A    
C25   C27   A    
C18   C20   A    
C6    O13   S    
Br6   C11   S    
C22   O7    S    
C17   C28   A    
C15   O19   A    
C23   C29   A    
C9    N1    S    
Br1   C27   S    
H9    O6    S    
C29   O9    S    
C17   C19   A    
Cu1   Cu2   S    
Br5   C28   S    
C5    O11   S    
C29   C33   A    
C10   C11   S    
H1    O20   S    
C24   O8    S    
Cu2   O17   S    
Br4   C35   S    
