data_mof_unit_51207.cif
_audit_creation_date              2012-12-10T17:08:12-0500
_audit_creation_method            fapswitch 2.2
_symmetry_space_group_name_H-M    P1
_symmetry_Int_Tables_number       1
_space_group_crystal_system       triclinic
_cell_length_a                    23.396997
_cell_length_b                    11.06716
_cell_length_c                    9.868143
_cell_angle_alpha                 111.888776
_cell_angle_beta                  97.338238
_cell_angle_gamma                 91.476075
_cell_volume                      2344.12463126

loop_
_atom_site_label
_atom_site_type_symbol
_atom_type_description
_atom_site_fract_x
_atom_site_fract_y
_atom_site_fract_z
_atom_type_partial_charge
C1    C     C_R   0.496508 0.253810 0.439133 0.700928
C2    C     C_R   0.503525 0.746099 0.560729 0.696836
C3    C     C_R   0.233258 0.554177 0.407032 0.136218
C4    C     C_R   0.748378 0.362175 0.377963 0.152618
C5    C     C_R   0.294037 0.566186 0.420266 0.329052
C6    C     C_R   0.689841 0.369583 0.392706 0.404853
C7    C     C_R   0.327952 0.511037 0.508785 -0.310162
C8    C     C_R   0.670653 0.487379 0.488275 -0.316430
C9    C     C_R   0.300534 0.470807 0.606416 0.044731
C10   C     C_R   0.710873 0.595518 0.569982 0.071185
C11   C     C_R   0.240548 0.470192 0.599992 0.466183
C12   C     C_R   0.769641 0.587308 0.555978 0.491333
C13   C     C_R   0.205792 0.481281 0.476193 0.038970
C14   C     C_R   0.788472 0.469860 0.459435 0.048697
C15   C     C_2   0.501041 0.113403 0.402021 0.172996
C16   C     C_2   0.499011 0.886284 0.597177 0.179023
C17   C     C_2   0.486131 0.058837 0.495611 0.185591
C18   C     C_2   0.513749 0.940254 0.502806 0.170973
C19   C     C_2   0.507611 0.506435 0.081782 0.409916
C20   C     C_2   0.497031 0.484876 0.917676 0.392871
C21   C     C_R   0.390877 0.502371 0.502841 0.807636
C22   C     C_R   0.608771 0.499010 0.497569 0.802982
C23   C     C_R   0.871217 0.482104 0.339538 0.574144
C24   C     C_R   0.118795 0.362353 0.502944 0.559212
C25   C     C_R   0.881664 0.414647 0.543955 0.548986
C26   C     C_R   0.110335 0.439523 0.313192 0.685325
C27   C     C_R   0.939776 0.390140 0.528856 -0.149076
C28   C     C_R   0.049986 0.445373 0.310848 -0.090817
C29   C     C_R   0.964985 0.425020 0.424164 -0.093971
C30   C     C_R   0.024733 0.415142 0.417883 -0.110435
C31   C     C_R   0.930633 0.470812 0.326895 -0.061106
C32   C     C_R   0.059092 0.366797 0.512164 -0.129661
C33   C     C_R   0.973684 0.334617 0.617120 0.430316
C34   C     C_R   0.015130 0.480868 0.206025 0.385322
C35   C     C_R   0.032874 0.325867 0.611555 0.123836
C36   C     C_R   0.956274 0.502447 0.219786 0.088257
Cu1   Cu    Cu3+1 0.509980 0.521810 0.644910 1.001394
Cu2   Cu    Cu3+1 0.490020 0.478190 0.355090 1.030051
H1    H     H_    0.556578 0.625305 0.929067 0.169717
H2    H     H_    0.438194 0.390725 0.073241 0.179476
N1    N     N_R   0.848832 0.456553 0.448111 -0.468762
N2    N     N_R   0.144191 0.431766 0.433532 -0.439918
N3    N     N_2   0.475010 0.445410 0.137370 -0.277059
N4    N     N_2   0.524990 0.554590 0.862630 -0.273322
O1    O     O_R   0.505330 0.332340 0.577400 -0.512595
O2    O     O_R   0.494670 0.667660 0.422600 -0.534440
O3    O     O_R   0.488470 0.295500 0.332650 -0.577850
O4    O     O_R   0.511530 0.704500 0.667350 -0.578206
O5    O     O_R   0.426310 0.518390 0.622390 -0.549545
O6    O     O_R   0.573690 0.481610 0.377610 -0.499068
O7    O     O_R   0.409450 0.481550 0.377650 -0.546847
O8    O     O_R   0.590550 0.518450 0.622350 -0.575548
O9    O     O_2   0.835558 0.517008 0.244121 -0.488340
O10   O     O_2   0.150040 0.282645 0.552319 -0.498945
O11   O     O_2   0.857937 0.399361 0.654754 -0.488853
O12   O     O_2   0.133801 0.430375 0.192381 -0.451472
O13   O     O_3   0.950236 0.285152 0.708775 -0.665592
H3    H     H_    0.915843 0.226349 0.649358 0.353498
O14   O     O_3   0.039950 0.501759 0.096409 -0.674648
H4    H     H_    0.013786 0.456272 0.002125 0.358884
N5    N     N_3   0.065091 0.277650 0.712027 -0.488876
H5    H     H_    0.080587 0.188536 0.652249 0.271052
H6    H     H_    0.099284 0.346119 0.775437 0.279281
N6    N     N_3   0.923499 0.564495 0.133280 -0.466074
H7    H     H_    0.946860 0.584691 0.060053 0.244060
H8    H     H_    0.915023 0.656277 0.206686 0.244579
N7    N     N_3   0.200733 0.634328 0.345120 -0.500545
H9    H     H_    0.210797 0.615525 0.239206 0.303172
H10   H     H_    0.214006 0.732167 0.409925 0.232911
N8    N     N_3   0.766961 0.242016 0.281312 -0.480812
H11   H     H_    0.787003 0.260753 0.201609 0.251063
H12   H     H_    0.797401 0.208111 0.343063 0.228303
O15   O     O_3   0.318445 0.637205 0.349890 -0.705229
H13   H     H_    0.357074 0.676446 0.405267 0.328360
O16   O     O_3   0.653204 0.258638 0.313161 -0.666350
H14   H     H_    0.616744 0.264951 0.355166 0.310870
N9    N     N_3   0.332182 0.432997 0.716431 -0.468593
H15   H     H_    0.359335 0.512771 0.790959 0.268104
H16   H     H_    0.356386 0.355582 0.664267 0.252213
N10   N     N_3   0.692665 0.716584 0.665892 -0.481207
H17   H     H_    0.661371 0.749019 0.604583 0.204321
H18   H     H_    0.674035 0.699937 0.748763 0.246741
O17   O     O_3   0.218447 0.472827 0.724109 -0.638806
H19   H     H_    0.183671 0.522988 0.732133 0.316926
O18   O     O_3   0.807109 0.696088 0.638460 -0.660683
H20   H     H_    0.846814 0.679254 0.615905 0.334143
N11   N     N_3   0.558284 0.887368 0.412533 -0.511016
H21   H     H_    0.591095 0.962213 0.440776 0.248404
H22   H     H_    0.579158 0.815712 0.440319 0.205902
N12   N     N_3   0.440876 0.110285 0.583775 -0.507332
H23   H     H_    0.408405 0.034566 0.554540 0.236401
H24   H     H_    0.419873 0.181045 0.554536 0.201638
O19   O     O_3   0.475637 0.960288 0.721451 -0.709340
H25   H     H_    0.463007 0.902745 0.770368 0.342050
O20   O     O_3   0.523992 0.039349 0.277028 -0.705798
H26   H     H_    0.534978 0.096097 0.225585 0.353246
O21   O     O_3   0.457510 0.386755 0.821156 -0.707073
H27   H     H_    0.457786 0.313229 0.855135 0.324896
O22   O     O_3   0.552989 0.589623 0.176072 -0.673632
H28   H     H_    0.556186 0.667792 0.151272 0.313388

loop_
_geom_bond_atom_site_label_1
_geom_bond_atom_site_label_2
_ccdc_geom_bond_type
N11   H21   S    
O19   H25   S    
C27   C29   A    
C24   N2    A    
O15   H13   S    
O20   H26   S    
C21   O5    A    
O21   H27   S    
N12   H23   S    
C6    O16   S    
O18   H20   S    
C27   C33   A    
C16   O19   S    
Cu1   Cu2   S    
C12   O18   S    
C15   O20   S    
C24   O10   S    
C7    C9    A    
N5    H6    S    
H2    N3    S    
C20   O21   S    
O17   H19   S    
C8    C22   S    
N8    H11   S    
C1    C15   S    
C2    C16   S    
C3    C13   A    
N9    H15   S    
C22   O6    A    
C28   C34   A    
O14   H4    S    
C5    O15   S    
C4    N8    S    
C13   N2    S    
C20   N4    D    
C19   N3    D    
C23   O9    S    
N9    H16   S    
N7    H9    S    
C32   C35   A    
C4    C6    A    
C25   N1    A    
C5    C7    A    
Cu1   O8    S    
C19   O22   S    
C1    O3    A    
C6    C8    A    
Cu2   O7    S    
C11   O17   S    
C7    C21   S    
C2    O2    A    
N7    H10   S    
C23   C31   A    
O16   H14   S    
C24   C32   A    
C29   C30   A    
Cu1   O5    S    
N12   H24   S    
O22   H28   S    
C17   C18   S    
C35   N5    S    
C16   C18   D    
C9    N9    S    
Cu1   O4    S    
C9    C11   A    
Cu2   O3    S    
C10   C12   A    
C14   N1    S    
N10   H18   S    
C12   C14   A    
N11   H22   S    
C34   O14   S    
Cu1   O1    S    
C21   O7    A    
C26   N2    A    
C22   O8    A    
C15   C17   D    
C33   O13   S    
C3    N7    S    
C17   N12   S    
C25   O11   S    
N10   H17   S    
C3    C5    A    
C26   O12   S    
H1    N4    S    
Cu2   O6    S    
C25   C27   A    
C26   C28   A    
C18   N11   S    
C23   N1    A    
C2    O4    A    
N6    H7    S    
C19   C20   S    
C10   N10   S    
Cu2   N3    S    
C29   C31   A    
C30   C32   A    
C11   C13   A    
C1    O1    A    
O13   H3    S    
Cu1   N4    S    
C28   C30   A    
C33   C35   A    
C34   C36   A    
C4    C14   A    
N5    H5    S    
Cu2   O2    S    
C8    C10   A    
C31   C36   A    
N8    H12   S    
C36   N6    S    
N6    H8    S    
