data_mof_unit_9363.cif
_audit_creation_date              2013-03-05T16:21:59-0500
_audit_creation_method            fapswitch 2.2
_symmetry_space_group_name_H-M    P1
_symmetry_Int_Tables_number       1
_space_group_crystal_system       triclinic
_cell_length_a                    15.117742
_cell_length_b                    14.004719
_cell_length_c                    10.647605
_cell_angle_alpha                 90.012874
_cell_angle_beta                  93.100447
_cell_angle_gamma                 89.995704
_cell_volume                      2251.0082328

loop_
_atom_site_label
_atom_site_type_symbol
_atom_site_description
_atom_site_fract_x
_atom_site_fract_y
_atom_site_fract_z
_atom_type_partial_charge
O1    O     O_R   0.371460 0.581430 0.500010 -0.598161
O2    O     O_R   0.628540 0.418570 0.499990 -0.598839
O3    O     O_R   0.628540 0.581430 0.499990 -0.597479
O4    O     O_R   0.371460 0.418570 0.500010 -0.599097
C1    C     C_R   0.330062 0.499971 0.499257 0.855346
C2    C     C_R   0.669923 0.499961 0.500899 0.855243
O5    O     O_R   0.499990 0.581440 0.319660 -0.613452
O6    O     O_R   0.500010 0.418560 0.680340 -0.601792
O7    O     O_R   0.500010 0.581440 0.680340 -0.613622
O8    O     O_R   0.499990 0.418560 0.319660 -0.601697
C3    C     C_R   0.511695 0.499919 0.262894 0.816747
C4    C     C_R   0.488236 0.499948 0.737069 0.816024
Cu1   Cu    Cu3+1 0.500000 0.596430 0.500000 0.914177
Cu2   Cu    Cu3+1 0.500000 0.403570 0.500000 0.960250
C5    C     C_R   0.559609 0.673914 0.107120 -0.094535
C6    C     C_R   0.439023 0.325819 0.894108 -0.050357
C7    C     C_R   0.440537 0.674086 0.892942 -0.094958
C8    C     C_R   0.560294 0.325622 0.105517 -0.049890
C9    C     C_R   0.532353 0.761487 0.051015 -0.084514
C10   C     C_R   0.466830 0.237871 0.949418 -0.019161
C11   C     C_R   0.467915 0.761574 0.949213 -0.085050
C12   C     C_R   0.532285 0.237767 0.050110 -0.019184
C13   C     C_R   0.477863 0.587221 0.940356 0.048412
C14   C     C_R   0.522260 0.412302 0.059136 -0.030229
C15   C     C_R   0.522095 0.587153 0.059625 0.048389
C16   C     C_R   0.477220 0.412382 0.940675 -0.029906
C17   C     C_R   0.471422 0.499810 0.873486 -0.134717
C18   C     C_R   0.528349 0.499716 0.126414 -0.134702
C19   C     C_R   0.092507 0.575092 0.443010 0.502214
C20   C     C_R   0.902822 0.425664 0.439941 0.499470
C21   C     C_R   0.907468 0.573500 0.562083 0.502278
C22   C     C_R   0.097251 0.424269 0.558340 0.500498
C23   C     C_R   0.184953 0.576469 0.447311 -0.273975
C24   C     C_R   0.810598 0.424045 0.446145 -0.276959
C25   C     C_R   0.814957 0.575095 0.556950 -0.278523
C26   C     C_R   0.189390 0.422850 0.551784 -0.277415
H1    H     H_    0.218366 0.636287 0.406686 0.196837
H2    H     H_    0.773476 0.364484 0.406104 0.204845
H3    H     H_    0.781357 0.633973 0.599447 0.194635
H4    H     H_    0.226382 0.362336 0.589416 0.207551
C27   C     C_R   0.233494 0.499813 0.499471 -0.150973
C28   C     C_R   0.766482 0.499764 0.501279 -0.148383
C29   C     C_R   0.048557 0.499649 0.500886 -0.044837
C30   C     C_R   0.951419 0.499549 0.501078 -0.045363
C31   C     C_R   0.547267 0.107189 0.593009 -0.167504
C32   C     C_R   0.433913 0.892928 0.434129 -0.203108
C33   C     C_R   0.452715 0.107167 0.407003 -0.167794
C34   C     C_R   0.566081 0.892946 0.565855 -0.203573
H5    H     H_    0.583329 0.070388 0.668612 0.205796
H6    H     H_    0.379998 0.929707 0.384347 0.196909
H7    H     H_    0.416644 0.070344 0.331412 0.206040
H8    H     H_    0.619993 0.929736 0.615641 0.196779
C35   C     C_R   0.549707 0.208066 0.590654 0.215623
C36   C     C_R   0.436094 0.792058 0.429668 0.142980
C37   C     C_R   0.450267 0.208046 0.409369 0.215570
C38   C     C_R   0.563903 0.792080 0.570321 0.143546
N1    N     N_R   0.500000 0.258690 0.500000 -0.233088
N2    N     N_R   0.500000 0.741310 0.500000 -0.273005
C39   C     C_R   0.499995 0.054425 0.500000 0.042670
C40   C     C_R   0.499996 0.945708 0.499994 0.039925
C41   C     C_2   0.569561 0.146350 0.099876 0.582235
H9    H     H_    0.640702 0.137341 0.113435 0.099852
O9    O     O_2   0.520954 0.081454 0.129298 -0.498508
C42   C     C_2   0.426919 0.852763 0.904643 0.493532
H10   H     H_    0.416574 0.867270 0.804898 0.041947
O10   O     O_2   0.402770 0.911825 0.979901 -0.464889
C43   C     C_2   0.429403 0.146568 0.899478 0.582458
H11   H     H_    0.358243 0.137683 0.886024 0.099832
O11   O     O_2   0.477906 0.081646 0.869774 -0.499379
C44   C     C_2   0.573448 0.852583 0.095793 0.492297
H12   H     H_    0.583837 0.866968 0.195571 0.041849
O12   O     O_2   0.597621 0.911710 0.020674 -0.466044
C45   C     C_2   0.636053 0.672269 0.202229 0.417031
H13   H     H_    0.649979 0.732508 0.263950 0.060320
O13   O     O_2   0.685754 0.603547 0.210846 -0.571897
C46   C     C_2   0.364735 0.330366 0.796061 0.333365
H14   H     H_    0.324184 0.394243 0.787920 0.099384
O14   O     O_2   0.350402 0.265816 0.720634 -0.575547
C47   C     C_2   0.364146 0.672655 0.797743 0.418508
H15   H     H_    0.350398 0.732935 0.736054 0.059867
O15   O     O_2   0.314294 0.604069 0.789004 -0.570401
C48   C     C_2   0.634729 0.329963 0.203324 0.332181
H16   H     H_    0.675495 0.393683 0.211209 0.098641
O16   O     O_2   0.648947 0.265450 0.278812 -0.575761
O17   O     O_3   0.044832 0.649822 0.387895 -0.521531
C49   C     C_3   0.044680 0.639878 0.256111 -0.253498
H17   H     H_    0.017788 0.569244 0.224781 0.129424
H18   H     H_    0.112121 0.650680 0.221629 0.171231
H19   H     H_    0.000969 0.695635 0.212339 0.208091
O18   O     O_3   0.947063 0.352794 0.381299 -0.531697
C50   C     C_3   0.920309 0.349914 0.252264 -0.276548
H20   H     H_    0.920256 0.422114 0.208263 0.135031
H21   H     H_    0.854167 0.315916 0.237500 0.178203
H22   H     H_    0.968239 0.305355 0.203000 0.200037
O19   O     O_3   0.955408 0.646844 0.620306 -0.522080
C51   C     C_3   0.950588 0.637953 0.751684 -0.253826
H23   H     H_    0.972036 0.565834 0.785208 0.126036
H24   H     H_    0.882774 0.653949 0.781429 0.174663
H25   H     H_    0.996260 0.690801 0.797964 0.207192
O20   O     O_3   0.053436 0.349626 0.613606 -0.530821
C52   C     C_3   0.076104 0.348101 0.743893 -0.272348
H26   H     H_    0.067930 0.419535 0.787856 0.134748
H27   H     H_    0.144708 0.321352 0.763164 0.173736
H28   H     H_    0.030789 0.298086 0.789423 0.201532
C53   C     C_2   0.608937 0.255568 0.687778 0.385385
H29   H     H_    0.629862 0.328265 0.679429 0.126370
O21   O     O_2   0.637832 0.211982 0.780538 -0.568951
C54   C     C_2   0.368212 0.744829 0.344642 0.362717
H30   H     H_    0.374538 0.672357 0.314117 0.124060
O22   O     O_2   0.302736 0.788364 0.303961 -0.550102
C55   C     C_2   0.390977 0.255524 0.312308 0.385686
H31   H     H_    0.370214 0.328289 0.320530 0.126535
O23   O     O_2   0.361831 0.211841 0.219749 -0.568256
C56   C     C_2   0.631776 0.744878 0.655348 0.362979
H32   H     H_    0.625388 0.672452 0.685986 0.123281
O24   O     O_2   0.697305 0.788387 0.695904 -0.551067

loop_
_geom_bond_atom_site_label_1
_geom_bond_atom_site_label_2
_geom_bond_distance
_ccdc_geom_bond_type
C52   H26   1.114119 S    
C45   H13   1.082925 S    
C10   C43   1.484979 S    
C25   H3    1.080427 S    
O19   C51   1.410230 S    
C24   C28   1.398529 A    
C20   O18   1.386885 S    
O3    C2    1.300965 A    
C56   H32   1.071508 S    
O17   C49   1.409925 S    
C15   C18   1.416778 A    
C5    C9    1.415778 A    
C53   O21   1.221671 D    
C16   C17   1.418534 A    
C7    C13   1.422170 A    
C8    C14   1.420419 A    
C22   C26   1.398584 A    
C9    C11   1.417630 A    
C14   C16   1.400596 A    
C34   H8    1.078856 S    
C49   H18   1.112519 S    
C5    C15   1.422170 A    
C51   H25   1.109249 S    
C19   C23   1.395992 A    
C7    C47   1.494976 S    
C54   H30   1.071499 S    
C41   O9    1.220341 D    
C25   C28   1.397942 A    
O7    Cu1   1.931670 S    
C11   C42   1.486135 S    
C55   H31   1.071231 S    
C54   O22   1.221800 D    
C51   H24   1.112012 S    
C44   H12   1.084347 S    
C13   C17   1.416746 A    
C19   O17   1.383318 S    
O3    Cu1   1.954546 S    
C6    C10   1.419169 A    
C32   C40   1.400118 A    
C31   C35   1.413510 A    
C39   C40   1.522561 S    
C52   H27   1.111320 S    
C6    C46   1.492785 S    
Cu1   Cu2   2.700952 S    
C19   C29   1.407904 A    
C45   O13   1.221367 D    
C20   C30   1.407921 A    
C26   C27   1.398981 A    
O2    C2    1.300077 A    
C34   C40   1.400084 A    
C6    C16   1.420497 A    
C21   C30   1.407942 A    
C20   C24   1.399540 A    
C4    C17   1.488071 S    
C43   H11   1.084737 S    
C26   H4    1.080448 S    
C46   H14   1.085257 S    
O8    Cu2   1.931671 S    
C50   H20   1.114484 S    
C47   O15   1.221365 D    
C35   N1    1.385922 A    
C49   H17   1.113714 S    
C33   H7    1.078645 S    
Cu1   N2    2.029002 S    
C23   H1    1.080700 S    
C22   O20   1.385758 S    
C43   O11   1.220329 D    
C42   O10   1.221009 D    
O5    C3    1.308162 A    
C29   C30   1.468622 S    
C50   H21   1.110983 S    
C31   H5    1.078670 S    
O6    C4    1.306518 A    
C51   H23   1.113664 S    
C32   C36   1.413882 A    
C55   O23   1.221666 D    
C5    C45   1.494996 S    
C10   C12   1.419111 A    
C52   H28   1.109551 S    
C48   O16   1.220707 D    
C37   N1    1.385945 A    
O1    C1    1.301057 A    
O1    Cu1   1.954578 S    
C33   C37   1.413524 A    
C36   N2    1.386071 A    
C34   C38   1.413850 A    
Cu2   N1    2.029002 S    
C1    C27   1.460027 S    
C31   C39   1.400242 A    
O6    Cu2   1.931576 S    
C37   C55   1.487819 S    
C24   H2    1.080056 S    
C14   C18   1.418723 A    
C46   O14   1.220680 D    
O4    C1    1.300265 A    
C49   H19   1.109237 S    
C56   O24   1.221822 D    
C53   H29   1.071283 S    
C32   H6    1.078852 S    
C36   C54   1.486458 S    
C23   C27   1.398393 A    
C42   H10   1.084349 S    
C8    C12   1.419134 A    
C50   H22   1.109280 S    
O18   C50   1.411637 S    
C3    C18   1.488188 S    
C21   O19   1.384136 S    
O20   C52   1.410998 S    
C8    C48   1.492549 S    
C22   C29   1.407862 A    
C38   N2    1.386031 A    
C21   C25   1.396842 A    
C13   C15   1.402851 A    
O4    Cu2   1.954546 S    
C41   H9    1.084731 S    
O2    Cu2   1.954578 S    
O7    C4    1.308054 A    
C7    C11   1.415785 A    
O8    C3    1.306449 A    
C33   C39   1.400228 A    
C47   H15   1.082933 S    
C35   C53   1.487750 S    
O5    Cu1   1.931577 S    
C48   H16   1.085210 S    
C2    C28   1.459549 S    
C38   C56   1.486326 S    
C9    C44   1.486168 S    
C44   O12   1.221029 D    
C12   C41   1.485039 S    
