data_mof_unit_54501.cif
_audit_creation_date              2012-12-10T18:13:10-0500
_audit_creation_method            fapswitch 2.2
_symmetry_space_group_name_H-M    P1
_symmetry_Int_Tables_number       1
_space_group_crystal_system       triclinic
_cell_length_a                    10.985386
_cell_length_b                    9.61855
_cell_length_c                    19.338699
_cell_angle_alpha                 89.873504
_cell_angle_beta                  89.738814
_cell_angle_gamma                 90.400451
_cell_volume                      2043.31805809

loop_
_atom_site_label
_atom_site_type_symbol
_atom_type_description
_atom_site_fract_x
_atom_site_fract_y
_atom_site_fract_z
_atom_type_partial_charge
C1    C     C_R   0.258887 0.499335 0.500363 0.958178
C2    C     C_R   0.504035 0.499827 0.070181 0.428910
C3    C     C_R   0.501735 0.625547 0.816833 -0.133887
C4    C     C_R   0.505590 0.373683 0.817052 -0.131186
C5    C     C_R   0.501862 0.625594 0.744820 -0.160782
C6    C     C_R   0.505632 0.373740 0.745014 -0.128450
C7    C     C_R   0.503808 0.499705 0.708240 0.009869
C8    C     C_R   0.503648 0.499599 0.853691 0.054014
C9    C     C_3   0.061981 0.611672 0.557100 0.605675
C10   C     C_3   0.056651 0.339262 0.521967 0.613653
C11   C     C_3   0.924049 0.576822 0.566543 -0.400668
C12   C     C_3   0.915747 0.350304 0.518818 -0.462431
C13   C     C_3   0.071780 0.540942 0.420837 0.584694
C14   C     C_3   0.118324 0.498231 0.499328 -0.490720
C15   C     C_3   0.875660 0.496343 0.502784 -0.136632
C16   C     C_R   0.501123 0.500107 0.367883 0.848751
C17   C     C_3   0.928169 0.535124 0.427835 -0.416129
C18   C     C_3   0.625052 0.083976 0.509684 -0.197742
C19   C     C_3   0.625182 0.917906 0.504583 -0.207862
C20   C     C_3   0.429416 0.080184 0.559779 -0.126476
C21   C     C_3   0.436965 0.915898 0.562427 -0.181723
C22   C     C_3   0.458046 0.082372 0.435094 -0.165748
C23   C     C_3   0.442290 0.919006 0.439099 -0.146746
C24   C     C_R   0.738795 0.499886 0.501043 0.815398
C25   C     C_R   0.502494 0.499884 0.632159 0.849870
C26   C     C_R   0.501764 0.626059 0.254980 -0.106412
C27   C     C_R   0.506250 0.374204 0.255333 -0.175284
C28   C     C_R   0.501981 0.625939 0.182955 -0.131548
C29   C     C_R   0.506496 0.374096 0.183311 -0.148789
C30   C     C_R   0.504218 0.499955 0.146389 0.044398
C31   C     C_R   0.503606 0.500189 0.291836 -0.003823
C32   C     C_R   0.503680 0.499637 0.929901 0.426169
Cu1   Cu    Cu3+1 0.499860 0.642410 0.500030 0.985937
Cu2   Cu    Cu3+1 0.499860 0.357590 0.500030 0.988672
H1    H     H_    0.886254 0.632170 0.408930 0.234960
H2    H     H_    0.891251 0.457014 0.391349 0.190048
H3    H     H_    0.664537 0.116733 0.560066 0.157914
H4    H     H_    0.673351 0.874953 0.550248 0.151150
H5    H     H_    0.687397 0.126444 0.469260 0.155765
H6    H     H_    0.677107 0.886405 0.457707 0.164018
H7    H     H_    0.462294 0.122216 0.609845 0.141750
H8    H     H_    0.483642 0.884468 0.610881 0.135012
H9    H     H_    0.375923 0.133912 0.416240 0.236908
H10   H     H_    0.344075 0.895020 0.439063 0.244532
H11   H     H_    0.525251 0.106469 0.393337 0.118368
H12   H     H_    0.481364 0.873197 0.391397 0.150358
H13   H     H_    0.334081 0.109386 0.556767 0.256740
H14   H     H_    0.345758 0.871206 0.566025 0.255981
H15   H     H_    0.500082 0.724370 0.843512 0.158946
H16   H     H_    0.507012 0.274837 0.843926 0.158668
H17   H     H_    0.500057 0.724403 0.717937 0.140042
H18   H     H_    0.506957 0.274991 0.718261 0.145371
H19   H     H_    0.907956 0.517401 0.614686 0.204390
H20   H     H_    0.872659 0.310386 0.567378 0.209006
H21   H     H_    0.862746 0.665108 0.579003 0.190531
H22   H     H_    0.871788 0.285379 0.478275 0.204453
N1    N     N_R   0.505935 0.378410 0.034586 -0.224609
N2    N     N_R   0.501918 0.621139 0.034259 -0.223334
N3    N     N_R   0.505766 0.378315 0.965822 -0.224504
N4    N     N_R   0.501752 0.621044 0.965499 -0.224486
N5    N     N_3   0.500250 0.143650 0.501520 -0.156213
N6    N     N_3   0.500250 0.856350 0.501520 -0.160956
O1    O     O_R   0.317570 0.620260 0.500040 -0.527563
O2    O     O_R   0.317570 0.379740 0.500040 -0.506667
O3    O     O_R   0.499870 0.620300 0.400170 -0.582418
O4    O     O_R   0.499870 0.379700 0.400170 -0.596207
O5    O     O_R   0.682190 0.620260 0.500020 -0.597329
O6    O     O_R   0.682190 0.379740 0.500020 -0.618039
O7    O     O_R   0.499890 0.620220 0.599880 -0.595445
O8    O     O_R   0.499890 0.379780 0.599880 -0.584179
H23   H     H_    0.499439 0.724849 0.281649 0.151283
H24   H     H_    0.507448 0.275433 0.282293 0.154600
H25   H     H_    0.500147 0.724717 0.156034 0.161068
H26   H     H_    0.508205 0.275230 0.156676 0.165943
S1    S     S_3+6 0.045569 0.790888 0.535954 0.119637
O9    O     O_2   0.011073 0.865127 0.601473 -0.209404
O10   O     O_2   0.161894 0.852106 0.509429 -0.196008
O11   O     O_3   0.926467 0.815966 0.482890 -0.512638
H27   H     H_    0.864883 0.865256 0.510515 0.351674
S2    S     S_3+6 0.070153 0.177323 0.472413 0.102508
O12   O     O_2   0.195291 0.120775 0.471332 -0.255084
O13   O     O_2   0.990993 0.075026 0.509666 -0.218237
O14   O     O_3   0.011853 0.175039 0.392306 -0.466454
H28   H     H_    0.935773 0.119146 0.394048 0.355102
S3    S     S_3+6 0.144108 0.627938 0.641125 0.084116
O15   O     O_2   0.054933 0.617465 0.700220 -0.235710
O16   O     O_2   0.242769 0.524513 0.651003 -0.273033
O17   O     O_3   0.214281 0.782653 0.650683 -0.511730
H29   H     H_    0.249604 0.780745 0.697719 0.359156
S4    S     S_3+6 0.098160 0.279775 0.610650 0.058033
O18   O     O_2   0.233366 0.279902 0.619972 -0.293328
O19   O     O_2   0.039467 0.362108 0.666883 -0.262978
O20   O     O_3   0.052674 0.117703 0.628999 -0.415254
H30   H     H_    0.091485 0.094653 0.673709 0.388397
S5    S     S_3+6 0.115393 0.707066 0.375163 0.095725
O21   O     O_2   0.251812 0.714385 0.371972 -0.301486
O22   O     O_2   0.068528 0.692026 0.302415 -0.226434
O23   O     O_3   0.067955 0.867928 0.393244 -0.391031
H31   H     H_    0.115181 0.929708 0.361853 0.395152
S6    S     S_3+6 0.133751 0.423916 0.351263 0.083581
O24   O     O_2   0.214649 0.311778 0.377514 -0.266618
O25   O     O_2   0.031215 0.365135 0.308856 -0.255002
O26   O     O_3   0.225317 0.502912 0.292643 -0.452223
H32   H     H_    0.234594 0.435399 0.254383 0.372569

loop_
_geom_bond_atom_site_label_1
_geom_bond_atom_site_label_2
_ccdc_geom_bond_type
O20   H30   S    
C27   C29   A    
S5    O21   D    
C4    C8    A    
Cu2   O4    S    
C20   H7    S    
C3    H15   S    
C2    N1    A    
Cu1   O3    S    
S3    O15   D    
C16   C31   S    
C13   S5    S    
C18   H3    S    
Cu2   O2    S    
N1    N3    A    
C19   N6    S    
N2    N4    A    
C18   C19   S    
C20   N5    S    
C18   H5    S    
C24   O5    A    
C9    S3    S    
C11   C15   S    
C23   N6    S    
C22   H9    S    
Cu1   N6    S    
C17   H2    S    
Cu2   O8    S    
C11   H19   S    
Cu1   O7    S    
C21   H14   S    
C26   C31   A    
C23   H12   S    
C13   C14   S    
C26   H23   S    
S2    O14   S    
C28   H25   S    
C1    O1    A    
S6    O25   D    
S3    O16   D    
S5    O23   S    
C27   C31   A    
C8    C32   S    
C4    C6    A    
C3    C8    A    
C10   C14   S    
Cu2   O6    S    
C5    C7    A    
C9    C14   S    
C10   S2    S    
O11   H27   S    
C29   H26   S    
S6    O26   S    
C23   H10   S    
C4    H16   S    
S1    O9    D    
C29   C30   A    
C19   H4    S    
C9    C11   S    
S4    O19   D    
O14   H28   S    
C12   C15   S    
Cu1   O1    S    
C2    N2    A    
Cu1   Cu2   S    
O17   H29   S    
S1    O10   D    
C21   N6    S    
C12   H22   S    
C10   C12   S    
S2    O13   D    
C15   C24   S    
C16   O4    A    
C32   N4    A    
C1    O2    A    
C11   H21   S    
Cu1   O5    S    
S4    O20   S    
S3    O17   S    
C15   C17   S    
S2    O12   D    
C3    C5    A    
S5    O22   D    
C18   N5    S    
C6    C7    A    
C1    C14   S    
C17   H1    S    
C26   C28   A    
C7    C25   S    
C13   C17   S    
C2    C30   S    
C13   S6    S    
C28   C30   A    
C22   N5    S    
S4    O18   D    
S6    O24   D    
C16   O3    A    
Cu2   N5    S    
S1    O11   S    
C20   H13   S    
C19   H6    S    
C24   O6    A    
C21   H8    S    
C22   H11   S    
C25   O7    A    
C20   C21   S    
C10   S4    S    
O23   H31   S    
O26   H32   S    
C22   C23   S    
C5    H17   S    
C25   O8    A    
C9    S1    S    
C32   N3    A    
C6    H18   S    
C12   H20   S    
C27   H24   S    
