data_mof_unit_31198.cif
_audit_creation_date              2012-12-11T14:19:37-0500
_audit_creation_method            fapswitch 2.2
_symmetry_space_group_name_H-M    P1
_symmetry_Int_Tables_number       1
_space_group_crystal_system       triclinic
_cell_length_a                    19.373951
_cell_length_b                    7.236349
_cell_length_c                    17.759622
_cell_angle_alpha                 90.038713
_cell_angle_beta                  107.713641
_cell_angle_gamma                 89.951834
_cell_volume                      2371.79318869

loop_
_atom_site_label
_atom_site_type_symbol
_atom_type_description
_atom_site_fract_x
_atom_site_fract_y
_atom_site_fract_z
_atom_type_partial_charge
O1    O     O_R   0.414820 0.494320 0.416790 -0.539290
O2    O     O_R   0.585180 0.994320 0.583210 -0.538996
O3    O     O_R   0.560270 0.819500 0.430140 -0.544184
O4    O     O_R   0.439730 0.319500 0.569860 -0.543423
C1    C     C_R   0.581278 0.655352 0.414751 0.711788
C2    C     C_R   0.418470 0.155589 0.584944 0.711359
O5    O     O_R   0.413840 0.823740 0.407440 -0.539741
O6    O     O_R   0.586160 0.323740 0.592560 -0.539860
O7    O     O_R   0.437710 0.998590 0.560350 -0.539621
O8    O     O_R   0.562290 0.498590 0.439650 -0.539729
C3    C     C_R   0.386879 0.654716 0.386163 0.745441
C4    C     C_R   0.613126 0.154686 0.613836 0.744941
O9    O     O_3   0.508000 0.662290 0.550200 -0.380350
O10   O     O_3   0.492000 0.162290 0.449800 -0.380155
V1    V     V_3+5 0.498520 0.935380 0.490690 1.390630
V2    V     V_3+5 0.501480 0.435380 0.509310 1.391021
C5    C     C_2   0.796883 0.272890 0.770041 0.108380
C6    C     C_2   0.203231 0.773249 0.229782 0.107256
C7    C     C_2   0.819358 0.121499 0.817467 -0.347961
C8    C     C_2   0.180661 0.621540 0.182522 -0.348380
H1    H     H_    0.783834 0.002744 0.810591 0.125376
H2    H     H_    0.216121 0.502488 0.189529 0.126113
C9    C     C_2   0.721166 0.284105 0.714442 -0.149701
C10   C     C_2   0.278942 0.784212 0.285399 -0.149116
C11   C     C_2   0.683841 0.137869 0.676324 -0.341460
C12   C     C_2   0.316167 0.637986 0.323675 -0.341280
H3    H     H_    0.696741 0.419808 0.701239 0.141236
H4    H     H_    0.303454 0.919778 0.298480 0.141161
H5    H     H_    0.707814 0.000988 0.686947 0.137305
H6    H     H_    0.292125 0.501243 0.313168 0.137040
C13   C     C_R   0.323304 0.300140 0.635248 -0.219130
C14   C     C_R   0.673953 0.490246 0.366521 -0.219030
C15   C     C_R   0.368478 0.148367 0.633762 -0.079012
C16   C     C_R   0.630668 0.647407 0.365208 -0.080187
C17   C     C_R   0.365217 0.990219 0.678650 -0.220696
C18   C     C_R   0.635837 0.798923 0.317443 -0.220502
C19   C     C_R   0.318350 0.984068 0.725392 0.090170
C20   C     C_R   0.683157 0.794157 0.271336 0.088859
C21   C     C_R   0.272891 0.136341 0.726011 0.055663
C22   C     C_R   0.726877 0.636938 0.273688 0.055881
C23   C     C_R   0.275093 0.294405 0.680357 0.089488
C24   C     C_R   0.722394 0.484707 0.321642 0.089834
C25   C     C_R   0.316277 0.828541 0.771804 -0.190541
C26   C     C_R   0.687560 0.944033 0.222890 -0.186923
C27   C     C_R   0.269146 0.822980 0.817846 -0.187731
C28   C     C_R   0.735320 0.939053 0.177599 -0.190670
C29   C     C_R   0.223113 0.972669 0.818188 0.087448
C30   C     C_R   0.779511 0.784068 0.179927 0.088106
C31   C     C_R   0.225179 0.130578 0.772405 0.055714
C32   C     C_R   0.775152 0.631963 0.227986 0.055907
C33   C     C_R   0.179706 0.282813 0.773035 0.090662
C34   C     C_R   0.818874 0.474764 0.230303 0.088648
C35   C     C_R   0.181664 0.438173 0.726472 -0.191669
C36   C     C_R   0.814596 0.325076 0.278914 -0.187659
C37   C     C_R   0.228901 0.443873 0.680527 -0.188487
C38   C     C_R   0.766753 0.329950 0.324141 -0.191185
C39   C     C_R   0.175308 0.967368 0.863742 -0.216395
C40   C     C_R   0.827541 0.778116 0.134617 -0.218052
C41   C     C_R   0.130259 0.119256 0.865466 -0.075583
C42   C     C_R   0.870652 0.620768 0.135614 -0.078138
C43   C     C_R   0.133065 0.276908 0.820067 -0.221980
C44   C     C_R   0.865939 0.469719 0.183866 -0.219836
H7    H     H_    0.324886 0.422020 0.600330 0.125158
H8    H     H_    0.670894 0.373297 0.403500 0.126556
H9    H     H_    0.399945 0.872948 0.678149 0.129406
H10   H     H_    0.602612 0.920470 0.315630 0.130531
H11   H     H_    0.350987 0.710731 0.772324 0.134641
H12   H     H_    0.654189 0.065589 0.220200 0.135483
H13   H     H_    0.268524 0.701056 0.853024 0.135552
H14   H     H_    0.737821 0.056842 0.140870 0.133798
H15   H     H_    0.174038 0.845703 0.898894 0.128498
H16   H     H_    0.830308 0.894938 0.097457 0.130012
H17   H     H_    0.098286 0.394112 0.820517 0.128300
H18   H     H_    0.899200 0.348220 0.185708 0.131195
H19   H     H_    0.146898 0.555900 0.725893 0.133383
H20   H     H_    0.848016 0.203591 0.281651 0.134094
H21   H     H_    0.229543 0.565816 0.645368 0.134666
H22   H     H_    0.764241 0.212155 0.360861 0.132745
O11   O     O_R   0.937810 0.773680 0.060480 -0.537990
O12   O     O_R   0.062190 0.273680 0.939520 -0.537151
O13   O     O_R   0.086190 0.439740 0.092580 -0.541499
O14   O     O_R   0.913810 0.939740 0.907420 -0.541641
C45   C     C_R   0.111783 0.609572 0.115960 0.719444
C46   C     C_R   0.888222 0.109568 0.884037 0.719021
O15   O     O_R   0.939760 0.444210 0.069890 -0.541427
O16   O     O_R   0.060240 0.944210 0.930110 -0.541222
O17   O     O_R   0.914790 0.269640 0.916760 -0.538034
O18   O     O_R   0.085210 0.769640 0.083240 -0.538546
C47   C     C_R   0.919444 0.612621 0.085350 0.696889
C48   C     C_R   0.080820 0.112356 0.914965 0.696330
O19   O     O_3   0.992050 0.601530 0.949880 -0.379341
O20   O     O_3   0.007950 0.101530 0.050120 -0.379388
V3    V     V_3+5 0.001480 0.328340 0.009300 1.376935
V4    V     V_3+5 0.998520 0.828340 0.990700 1.376390
C49   C     C_3   0.847184 0.438165 0.774502 -0.286638
C50   C     C_3   0.826616 0.564007 0.701147 -0.359280
C51   C     C_3   0.886433 0.703983 0.704494 -0.750998
H23   H     H_    0.869440 0.795177 0.651797 0.217606
H24   H     H_    0.896949 0.790933 0.758320 0.238049
H25   H     H_    0.937207 0.631968 0.704928 0.222754
H26   H     H_    0.817243 0.479142 0.646745 0.207065
H27   H     H_    0.776471 0.642400 0.697828 0.185346
H28   H     H_    0.848500 0.523070 0.827102 0.187121
H29   H     H_    0.902656 0.384978 0.781328 0.177757
C52   C     C_3   0.153027 0.939046 0.225157 -0.286304
C53   C     C_3   0.173897 0.066170 0.298174 -0.357518
C54   C     C_3   0.114102 0.206465 0.294867 -0.754343
H30   H     H_    0.103081 0.292133 0.240666 0.237774
H31   H     H_    0.063519 0.134785 0.295213 0.223167
H32   H     H_    0.131414 0.298877 0.347190 0.217984
H33   H     H_    0.183607 0.982291 0.352857 0.207359
H34   H     H_    0.223932 0.144303 0.300930 0.184995
H35   H     H_    0.151522 0.022990 0.172284 0.187054
H36   H     H_    0.097596 0.886303 0.218721 0.179493

loop_
_geom_bond_atom_site_label_1
_geom_bond_atom_site_label_2
_ccdc_geom_bond_type
O4    V2    S    
O14   V4    S    
C50   H27   S    
C49   C50   S    
O1    C3    A    
C46   O17   A    
O2    C4    A    
C2    O7    A    
C51   H23   S    
C21   C23   A    
C53   H34   S    
C42   C47   S    
O5    C3    A    
C5    C9    S    
C6    C10   S    
C52   H35   S    
C17   C19   A    
C10   C12   D    
C37   H21   S    
C18   H10   S    
C39   C41   A    
C53   C54   S    
C17   H9    S    
C40   C42   A    
C38   H22   S    
C42   C44   A    
C27   C29   A    
C23   C37   A    
O16   V4    S    
C24   C38   A    
O15   V3    S    
C26   C28   A    
C31   C33   A    
C33   C43   A    
C32   C34   A    
C54   H30   S    
C13   C15   A    
C5    C49   S    
C9    H3    S    
C16   C18   A    
C34   C36   A    
O5    V1    S    
C45   O18   A    
O6    V2    S    
C50   H26   S    
C1    C16   S    
C54   H31   S    
C35   H19   S    
O13   C45   A    
C49   H28   S    
C28   C30   A    
C53   H33   S    
C35   C37   A    
C11   H5    S    
C36   C38   A    
C41   C43   A    
O11   C47   A    
C27   H13   S    
C13   H7    S    
C52   H36   S    
C14   H8    S    
O11   V4    S    
C29   C31   A    
O16   C48   A    
O15   C47   A    
C5    C7    D    
C3    C12   S    
C43   H17   S    
C33   C35   A    
C41   C48   S    
C14   C16   A    
C19   C25   A    
C20   C26   A    
C29   C39   A    
O13   V3    S    
O6    C4    A    
C50   C51   S    
O1    V2    S    
C39   H15   S    
O2    V1    S    
C25   C27   A    
C36   H20   S    
O4    C2    A    
C21   C31   A    
C8    H2    S    
C12   H6    S    
O14   C46   A    
C54   H32   S    
C26   H12   S    
C7    C46   S    
C51   H25   S    
O3    V1    S    
C49   H29   S    
C51   H24   S    
C13   C23   A    
C7    H1    S    
C10   H4    S    
C22   C24   A    
O3    C1    A    
O9    V2    S    
C30   C40   A    
C52   C53   S    
C2    C15   S    
C4    C11   S    
C18   C20   A    
O7    V1    S    
C6    C52   S    
C1    O8    A    
C19   C21   A    
O8    V2    S    
O19   V4    S    
C20   C22   A    
C40   H16   S    
C22   C32   A    
O17   V3    S    
C30   C32   A    
O20   V3    S    
C15   C17   A    
C6    C8    D    
C9    C11   D    
O12   C48   A    
C28   H14   S    
C25   H11   S    
C8    C45   S    
O18   V4    S    
C14   C24   A    
O10   V1    S    
C44   H18   S    
C34   C44   A    
O12   V3    S    
