data_mof_unit_45595.cif
_audit_creation_date              2012-12-10T17:18:56-0500
_audit_creation_method            fapswitch 2.2
_symmetry_space_group_name_H-M    P1
_symmetry_Int_Tables_number       1
_space_group_crystal_system       triclinic
_cell_length_a                    9.66401
_cell_length_b                    10.768352
_cell_length_c                    13.412461
_cell_angle_alpha                 92.38357
_cell_angle_beta                  73.327145
_cell_angle_gamma                 89.989154
_cell_volume                      1335.82955895

loop_
_atom_site_label
_atom_site_type_symbol
_atom_type_description
_atom_site_fract_x
_atom_site_fract_y
_atom_site_fract_z
_atom_type_partial_charge
C1    C     C_R   0.498541 0.737194 0.503621 0.801107
C2    C     C_R   0.433479 0.550330 0.980200 0.015176
C3    C     C_R   0.476996 0.563779 0.871294 -0.021975
C4    C     C_R   0.541573 0.535034 0.031381 0.063879
C5    C     C_R   0.688747 0.537826 0.972748 0.087297
C6    C     C_R   0.726416 0.579148 0.871405 -0.321232
C7    C     C_R   0.618484 0.604757 0.825302 0.502575
C8    C     C_R   0.508731 0.514629 0.137951 -0.224959
C9    C     C_R   0.762423 0.491253 0.125221 -0.204540
C10   C     C_R   0.376012 0.543742 0.813884 -0.099043
C11   C     C_R   0.287658 0.879070 0.669877 -0.200520
C12   C     C_R   0.422512 0.514243 0.699557 0.797957
C13   C     C_R   0.186432 0.948008 0.747463 -0.146407
C14   C     C_R   0.186308 0.077174 0.747434 -0.133707
C15   C     C_R   0.287477 0.138215 0.669849 -0.171258
C16   C     C_R   0.389883 0.070229 0.589371 0.098038
C17   C     C_R   0.389926 0.938849 0.589407 0.092580
C18   C     C_R   0.495873 0.871429 0.510862 -0.103257
C19   C     C_R   0.603090 0.932592 0.437429 -0.199644
C20   C     C_R   0.603034 0.060679 0.437331 -0.207343
C21   C     C_R   0.495836 0.129550 0.510739 -0.088182
C22   C     C_R   0.909815 0.330186 0.366187 -0.151920
C23   C     C_R   0.498644 0.263107 0.503399 0.764483
C24   C     C_R   0.007396 0.246539 0.301020 -0.215916
C25   C     C_R   0.150047 0.246233 0.301040 -0.199945
C26   C     C_R   0.196202 0.329680 0.366122 -0.146210
C27   C     C_R   0.100157 0.414914 0.435589 0.207932
C28   C     C_R   0.950816 0.414753 0.435881 0.205207
C29   C     C_R   0.905747 0.587273 0.553921 -0.039146
C30   C     C_R   0.051632 0.585243 0.556520 -0.081572
C31   C     C_R   0.577094 0.497646 0.300224 0.767950
C32   C     C_R   0.796404 0.507131 0.018235 -0.174316
C33   C     C_R   0.618146 0.500218 0.186197 -0.048108
C34   C     C_R   0.228221 0.549132 0.868380 -0.211355
C35   C     C_R   0.184628 0.563718 0.976777 -0.155877
C36   C     C_R   0.284623 0.556610 0.032586 -0.147863
Cu1   Cu    Cu3+1 0.359340 0.500010 0.500010 0.924834
Cu2   Cu    Cu3+1 0.640660 0.499990 0.499990 0.961496
H1    H     H_    0.848264 0.473553 0.160085 0.150387
H2    H     H_    0.286609 0.779199 0.675308 0.139184
H3    H     H_    0.108994 0.900991 0.808647 0.134745
H4    H     H_    0.108689 0.130424 0.808594 0.135747
H5    H     H_    0.286011 0.238628 0.675132 0.156110
H6    H     H_    0.685193 0.106330 0.378035 0.137398
H7    H     H_    0.838236 0.664031 0.592334 0.204220
H8    H     H_    0.804729 0.326959 0.356438 0.191288
H9    H     H_    0.972336 0.182992 0.248656 0.144989
H10   H     H_    0.226444 0.182315 0.248776 0.151167
H11   H     H_    0.308934 0.325161 0.356739 0.197163
H12   H     H_    0.837831 0.599388 0.830924 0.151842
H13   H     H_    0.087751 0.655896 0.602753 0.138699
H14   H     H_    0.905915 0.495993 0.969660 0.127663
H15   H     H_    0.398342 0.511562 0.185332 0.153968
H16   H     H_    0.146587 0.544083 0.827460 0.148632
H17   H     H_    0.242008 0.561527 0.116228 0.126544
H18   H     H_    0.073164 0.578373 0.019670 0.135483
H19   H     H_    0.685335 0.880647 0.378252 0.151493
N1    N     N_R   0.852480 0.498790 0.499000 -0.201276
N2    N     N_R   0.148360 0.498710 0.498970 -0.198337
O1    O     O_R   0.381190 0.680360 0.500010 -0.582366
O2    O     O_R   0.618760 0.680340 0.500000 -0.561746
O3    O     O_R   0.323240 0.499990 0.650990 -0.602376
O4    O     O_R   0.560820 0.499960 0.650980 -0.521977
O5    O     O_R   0.381240 0.319660 0.500000 -0.599073
O6    O     O_R   0.618810 0.319640 0.499990 -0.590291
O7    O     O_R   0.439180 0.500040 0.349020 -0.600451
O8    O     O_R   0.676760 0.500010 0.349010 -0.601547
O9    O     O_3   0.649397 0.680294 0.741407 -0.591431
C37   C     C_3   0.591998 0.800296 0.775218 -0.359704
H20   H     H_    0.623613 0.861734 0.708211 0.198429
H21   H     H_    0.636360 0.840621 0.837279 0.167864
H22   H     H_    0.471944 0.799760 0.802736 0.171343

loop_
_geom_bond_atom_site_label_1
_geom_bond_atom_site_label_2
_ccdc_geom_bond_type
C8    H15   S    
C35   H18   S    
C37   H22   S    
C2    C4    A    
C30   H13   S    
C31   C33   S    
C24   C25   A    
C34   H16   S    
C16   C21   A    
C28   N1    A    
C31   O7    A    
C29   C30   A    
C12   O3    A    
C35   C36   A    
Cu2   O6    S    
C4    C8    A    
C14   H4    S    
Cu2   O2    S    
C30   N2    A    
C23   O6    A    
C13   H3    S    
C2    C3    A    
C25   C26   A    
C15   H5    S    
C10   C34   A    
C3    C10   A    
C22   C28   A    
C13   C14   A    
C6    H12   S    
C31   O8    A    
C4    C5    A    
C11   C13   A    
C25   H10   S    
C1    C18   S    
Cu1   N2    S    
C10   C12   S    
C9    C33   A    
C19   H19   S    
C5    C6    A    
C23   O5    A    
C20   H6    S    
Cu1   Cu2   S    
C17   C18   A    
C6    C7    A    
C3    C7    A    
C37   H20   S    
C21   C23   S    
Cu1   O7    S    
C26   C27   A    
C11   H2    S    
C22   C24   A    
C26   H11   S    
Cu1   O1    S    
C37   H21   S    
Cu2   N1    S    
C15   C16   A    
Cu2   O8    S    
C9    H1    S    
Cu1   O5    S    
C18   C19   A    
C29   N1    A    
C20   C21   A    
C34   C35   A    
C1    O1    A    
C2    C36   A    
C27   C28   A    
C36   H17   S    
C12   O4    A    
Cu1   O3    S    
C14   C15   A    
C32   H14   S    
C27   N2    A    
C8    C33   A    
C9    C32   A    
C22   H8    S    
C7    O9    S    
Cu2   O4    S    
C24   H9    S    
O9    C37   S    
C5    C32   A    
C11   C17   A    
C19   C20   A    
C29   H7    S    
C16   C17   A    
C1    O2    A    
