data_mof_unit_65144.cif
_audit_creation_date              2012-12-10T19:56:34-0500
_audit_creation_method            fapswitch 2.2
_symmetry_space_group_name_H-M    P1
_symmetry_Int_Tables_number       1
_space_group_crystal_system       triclinic
_cell_length_a                    15.006897
_cell_length_b                    14.146479
_cell_length_c                    23.369238
_cell_angle_alpha                 90.014839
_cell_angle_beta                  90.041541
_cell_angle_gamma                 89.936025
_cell_volume                      4961.16205328

loop_
_atom_site_label
_atom_site_type_symbol
_atom_type_description
_atom_site_fract_x
_atom_site_fract_y
_atom_site_fract_z
_atom_type_partial_charge
C1    C     C_R   0.327739 0.500022 0.499785 0.888567
C2    C     C_R   0.457785 0.433861 0.706327 0.142979
C3    C     C_R   0.462250 0.439981 0.234485 -0.152599
C4    C     C_R   0.465657 0.437629 0.765567 -0.160363
C5    C     C_R   0.517746 0.506788 0.208730 0.226747
C6    C     C_R   0.518218 0.507044 0.791393 0.228494
C7    C     C_R   0.093497 0.579252 0.517284 -0.160323
C8    C     C_R   0.906532 0.419895 0.516645 -0.158272
C9    C     C_R   0.905366 0.578969 0.476993 -0.161344
C10   C     C_R   0.094761 0.420989 0.476400 -0.157133
C11   C     C_R   0.185464 0.579467 0.518113 -0.175925
C12   C     C_R   0.672280 0.499947 0.499845 0.865229
C13   C     C_R   0.814552 0.419857 0.517546 -0.177124
C14   C     C_R   0.813414 0.579376 0.478504 -0.180178
C15   C     C_R   0.186729 0.420746 0.477841 -0.156259
C16   C     C_R   0.232015 0.500026 0.498675 -0.028034
C17   C     C_R   0.768044 0.499798 0.498758 -0.027108
C18   C     C_R   0.048140 0.500053 0.496390 0.106489
C19   C     C_R   0.951936 0.499440 0.496357 0.110461
C20   C     C_R   0.498983 0.499995 0.389312 0.920474
C21   C     C_R   0.499132 0.499990 0.610717 0.919024
C22   C     C_R   0.427868 0.105202 0.477431 -0.252516
C23   C     C_R   0.566226 0.571059 0.241917 0.229194
C24   C     C_R   0.541869 0.894742 0.544039 -0.257396
C25   C     C_R   0.571971 0.105076 0.522845 -0.258103
C26   C     C_R   0.458102 0.894884 0.456080 -0.259490
C27   C     C_R   0.429331 0.204528 0.477710 0.067695
C28   C     C_R   0.541299 0.795401 0.543085 0.032282
C29   C     C_R   0.570520 0.204419 0.522515 0.046554
C30   C     C_R   0.458704 0.795542 0.456950 0.027999
C31   C     C_R   0.499943 0.053325 0.500115 0.132182
C32   C     C_R   0.499969 0.946626 0.500082 0.130381
C33   C     C_R   0.583877 0.457687 0.880279 0.544232
C34   C     C_R   0.563771 0.573670 0.758275 0.230317
C35   C     C_R   0.461922 0.566999 0.119753 0.544135
C36   C     C_R   0.462166 0.567130 0.880319 0.545875
C37   C     C_R   0.583443 0.457319 0.119923 0.545753
C38   C     C_R   0.462286 0.570088 0.940016 -0.023385
C39   C     C_R   0.586350 0.457954 0.060175 -0.024160
C40   C     C_R   0.524749 0.514513 0.970013 -0.015464
C41   C     C_R   0.524657 0.514442 0.030130 -0.015415
C42   C     C_R   0.586569 0.458141 0.940035 -0.023596
C43   C     C_R   0.462148 0.570002 0.060057 -0.022915
C44   C     C_R   0.401080 0.626122 0.970228 -0.139018
C45   C     C_R   0.558752 0.567921 0.301061 -0.275822
C46   C     C_R   0.648414 0.402994 0.029936 -0.138619
C47   C     C_R   0.401024 0.626095 0.029777 -0.139336
C48   C     C_R   0.648533 0.403100 0.970345 -0.139103
C49   C     C_R   0.556155 0.570413 0.699138 -0.275905
C50   C     C_R   0.503492 0.500794 0.327262 -0.124236
C51   C     C_R   0.503717 0.500782 0.672822 -0.128975
C52   C     C_R   0.454454 0.436455 0.293724 0.143428
H1    H     H_    0.352694 0.669566 0.948008 0.198160
H2    H     H_    0.592014 0.621804 0.673652 0.176070
H3    H     H_    0.424063 0.391805 0.208110 0.171218
H4    H     H_    0.429784 0.387505 0.791902 0.170172
H5    H     H_    0.057798 0.640142 0.533622 0.141462
H6    H     H_    0.942200 0.358618 0.532485 0.141122
H7    H     H_    0.940112 0.640286 0.460526 0.141639
H8    H     H_    0.060051 0.359954 0.459474 0.142510
H9    H     H_    0.220032 0.640866 0.534684 0.163110
H10   H     H_    0.779960 0.358176 0.533655 0.150023
H11   H     H_    0.777908 0.641178 0.463260 0.161375
H12   H     H_    0.696575 0.359289 0.052170 0.198042
H13   H     H_    0.222311 0.359348 0.462090 0.162180
H14   H     H_    0.369930 0.069606 0.460275 0.144244
H15   H     H_    0.573883 0.930343 0.579492 0.148998
H16   H     H_    0.629852 0.069369 0.540087 0.140615
H17   H     H_    0.426078 0.930601 0.420655 0.150356
H18   H     H_    0.373505 0.243301 0.460200 0.141980
H19   H     H_    0.573777 0.756479 0.577058 0.133154
H20   H     H_    0.626185 0.243130 0.540224 0.125323
H21   H     H_    0.426236 0.756733 0.422951 0.141406
H22   H     H_    0.352596 0.669519 0.051943 0.198015
H23   H     H_    0.696780 0.359471 0.948166 0.197800
H24   H     H_    0.596804 0.617431 0.326652 0.182178
I1    I     I_    0.650457 0.673785 0.204357 -0.271813
I2    I     I_    0.644116 0.679883 0.795910 -0.278223
I3    I     I_    0.362085 0.337994 0.328210 -0.363981
I4    I     I_    0.370099 0.330346 0.671974 -0.307335
N1    N     N_R   0.522131 0.511339 0.852095 -0.348775
N2    N     N_R   0.521710 0.511031 0.148036 -0.349141
N3    N     N_R   0.500000 0.252470 0.500000 -0.095044
N4    N     N_R   0.500000 0.747530 0.500000 -0.100778
O1    O     O_R   0.369060 0.579480 0.500000 -0.624330
O2    O     O_2   0.402367 0.619012 0.149493 -0.533911
O3    O     O_2   0.402501 0.618968 0.850518 -0.532259
O4    O     O_2   0.641271 0.403384 0.149832 -0.531531
O5    O     O_R   0.630940 0.420520 0.500000 -0.632545
O6    O     O_R   0.630940 0.579480 0.500000 -0.627193
O7    O     O_R   0.369060 0.420520 0.500000 -0.620054
O8    O     O_R   0.499970 0.579500 0.416160 -0.630389
O9    O     O_R   0.500030 0.420500 0.583840 -0.590567
O10   O     O_R   0.500030 0.579500 0.583840 -0.627874
O11   O     O_R   0.499970 0.420500 0.416160 -0.588859
O12   O     O_2   0.641930 0.403990 0.850432 -0.534379
Zn1   Zn    Zn3+2 0.500000 0.606140 0.500000 0.957300
Zn2   Zn    Zn3+2 0.500000 0.393860 0.500000 0.990153

loop_
_geom_bond_atom_site_label_1
_geom_bond_atom_site_label_2
_ccdc_geom_bond_type
C25   C31   A    
C26   C32   A    
C8    C13   A    
C23   C45   A    
C28   N4    A    
C37   O4    S    
C2    C4    A    
C14   C17   A    
O11   Zn2   S    
C39   C41   A    
C7    C11   A    
C20   O8    A    
C45   H24   S    
N4    Zn1   S    
C12   O6    A    
C29   N3    A    
C10   C15   A    
C35   O2    S    
C21   O10   A    
C49   H2    S    
C15   H13   S    
C18   C19   S    
C22   H14   S    
C20   C50   S    
C24   H15   S    
C8    H6    S    
C3    H3    S    
C44   H1    S    
C9    C19   A    
C13   H10   S    
C49   C51   A    
N3    Zn2   S    
C12   C17   S    
C50   C52   A    
C52   I3    S    
C35   C43   A    
O6    Zn1   S    
C44   C47   A    
C29   H20   S    
C40   C42   A    
C1    O7    A    
C6    N1    S    
C4    H4    S    
C1    O1    A    
C41   C43   A    
C48   H23   S    
C25   H16   S    
C35   N2    A    
O8    Zn1   S    
C36   O3    S    
C25   C29   A    
C46   C48   A    
C8    C19   A    
C22   C31   A    
C12   O5    A    
C2    I4    S    
C4    C6    A    
C30   H21   S    
O10   Zn1   S    
C11   H9    S    
C6    C34   A    
C46   H12   S    
C9    H7    S    
C10   H8    S    
C9    C14   A    
C24   C32   A    
C38   C44   A    
C11   C16   A    
C31   C32   S    
C5    C23   A    
C36   N1    A    
C7    C18   A    
C1    C16   S    
C42   C48   A    
C23   I1    S    
C27   H18   S    
C39   C46   A    
C40   C41   A    
C20   O11   A    
C26   C30   A    
C22   C27   A    
C37   N2    A    
C28   H19   S    
C33   C42   A    
C33   O12   S    
C21   C51   S    
C34   C49   A    
C24   C28   A    
C47   H22   S    
C43   C47   A    
C3    C5    A    
C3    C52   A    
C13   C17   A    
O5    Zn2   S    
C27   N3    A    
C37   C39   A    
C34   I2    S    
C38   C40   A    
C5    N2    S    
C21   O9    A    
C45   C50   A    
C10   C18   A    
C14   H11   S    
C36   C38   A    
O7    Zn2   S    
C30   N4    A    
O1    Zn1   S    
C2    C51   A    
C26   H17   S    
C33   N1    A    
O9    Zn2   S    
C7    H5    S    
C15   C16   A    
