data_mof_unit_38542.cif
_audit_creation_date              2012-12-10T17:00:44-0500
_audit_creation_method            fapswitch 2.2
_symmetry_space_group_name_H-M    P1
_symmetry_Int_Tables_number       1
_space_group_crystal_system       triclinic
_cell_length_a                    10.823742
_cell_length_b                    10.709617
_cell_length_c                    10.025977
_cell_angle_alpha                 89.865502
_cell_angle_beta                  104.079826
_cell_angle_gamma                 90.255103
_cell_volume                      1127.2654892

loop_
_atom_site_label
_atom_site_type_symbol
_atom_type_description
_atom_site_fract_x
_atom_site_fract_y
_atom_site_fract_z
_atom_type_partial_charge
C1    C     C_R   0.502302 0.262631 0.500483 0.985723
C2    C     C_2   0.122742 0.515323 0.410007 -0.377272
C3    C     C_2   0.067894 0.537865 0.512714 -0.153561
C4    C     C_2   0.877256 0.515751 0.589979 -0.371549
C5    C     C_2   0.932315 0.537711 0.487124 -0.163534
C6    C     C_2   0.547119 0.935911 0.400822 0.423006
C7    C     C_3   0.427323 0.916964 0.181242 0.173179
C8    C     C_3   0.422646 0.861829 0.040601 -0.860236
C9    C     C_3   0.760615 0.146593 0.407563 0.143894
C10   C     C_3   0.831504 0.220057 0.319209 -0.796431
C11   C     C_3   0.697241 0.726148 0.926717 0.110977
C12   C     C_2   0.536241 0.867815 0.509961 -0.553400
C13   C     C_3   0.801781 0.782968 0.868017 -0.825302
C14   C     C_2   0.567922 0.069457 0.418913 0.377395
C15   C     C_2   0.505970 0.130363 0.499851 -0.548246
C16   C     C_2   0.593385 0.545569 0.948719 0.475028
C17   C     C_2   0.597438 0.533558 0.100137 -0.236187
C18   C     C_R   0.259170 0.503118 0.442550 0.928734
C19   C     C_R   0.507490 0.737419 0.501677 0.975721
C20   C     C_R   0.740827 0.503155 0.557439 0.927255
H1    H     H_    0.877673 0.547408 0.381151 0.185815
H2    H     H_    0.418947 0.020242 0.169219 0.155763
H3    H     H_    0.344426 0.880198 0.217064 0.121004
H4    H     H_    0.432316 0.758768 0.048064 0.251562
H5    H     H_    0.330398 0.884980 0.968316 0.205066
H6    H     H_    0.501119 0.901610 0.000108 0.244472
H7    H     H_    0.807287 0.053930 0.431484 0.132046
H8    H     H_    0.768181 0.199386 0.504965 0.117283
H9    H     H_    0.785989 0.312470 0.292340 0.267964
H10   H     H_    0.932051 0.234701 0.376476 0.202116
H11   H     H_    0.829755 0.167992 0.223092 0.250066
H12   H     H_    0.428435 0.454313 0.879886 0.109660
H13   H     H_    0.715276 0.752476 0.037185 0.148796
H14   H     H_    0.604766 0.766248 0.869048 0.151048
H15   H     H_    0.785093 0.759516 0.757149 0.257770
H16   H     H_    0.801972 0.886113 0.879190 0.202774
H17   H     H_    0.896052 0.746215 0.923780 0.250607
H18   H     H_    0.686306 0.556846 0.172668 0.178676
H19   H     H_    0.414746 0.488517 0.079904 0.148077
H20   H     H_    0.122715 0.548418 0.618567 0.187494
H21   H     H_    0.932361 0.505900 0.695698 0.162862
H22   H     H_    0.067425 0.504545 0.304474 0.155346
H23   H     H_    0.552071 0.908967 0.611750 0.131811
H24   H     H_    0.450767 0.083084 0.561968 0.128532
N1    N     N_2   0.501330 0.501330 0.852460 -0.220474
N2    N     N_2   0.501370 0.501360 0.148130 -0.200850
O1    O     O_R   0.499980 0.319060 0.613030 -0.623256
O2    O     O_3   0.632322 0.131948 0.334877 -0.566247
O3    O     O_3   0.698368 0.595309 0.911886 -0.575770
O4    O     O_R   0.500020 0.319100 0.386910 -0.553487
O5    O     O_R   0.317800 0.500000 0.570840 -0.623405
O6    O     O_R   0.317840 0.500040 0.344720 -0.624946
O7    O     O_R   0.499980 0.680900 0.613090 -0.623320
O8    O     O_R   0.500020 0.680940 0.386970 -0.553280
O9    O     O_R   0.682160 0.499960 0.655280 -0.556178
O10   O     O_R   0.682200 0.500000 0.429160 -0.625486
O11   O     O_3   0.542849 0.882590 0.273746 -0.565041
Zn1   Zn    Zn3+2 0.499970 0.499970 0.650990 0.962739
Zn2   Zn    Zn3+2 0.500030 0.500030 0.349010 0.967195

loop_
_geom_bond_atom_site_label_1
_geom_bond_atom_site_label_2
_ccdc_geom_bond_type
C16   N1    D    
C18   O5    A    
O7    Zn1   S    
C1    C15   S    
O6    Zn2   S    
N2    Zn2   S    
C2    C18   S    
C7    H2    S    
C8    H6    S    
H12   N1    S    
C10   H10   S    
C13   H17   S    
C1    O4    A    
C6    O11   S    
O10   Zn2   S    
C20   O10   A    
C19   O7    A    
C2    C3    D    
C9    H8    S    
C18   O6    A    
C7    C8    S    
O5    Zn1   S    
C17   N2    D    
O1    Zn1   S    
C8    H5    S    
C11   C13   S    
C10   H9    S    
C16   C17   S    
C2    H22   S    
H19   N2    S    
C7    H3    S    
O4    Zn2   S    
C19   O8    A    
C8    H4    S    
C12   C19   S    
C3    H20   S    
C13   H15   S    
C12   H23   S    
O8    Zn2   S    
C20   O9    A    
C6    C12   D    
C15   H24   S    
N1    Zn1   S    
C6    C14   S    
C4    H21   S    
C11   O3    S    
C4    C20   S    
C11   H13   S    
C5    H1    S    
C16   O3    S    
C9    H7    S    
C9    O2    S    
C9    C10   S    
O9    Zn1   S    
C17   H18   S    
C14   C15   D    
C1    O1    A    
C14   O2    S    
C10   H11   S    
C7    O11   S    
C11   H14   S    
C13   H16   S    
C4    C5    D    
C3    C5    S    
