data_mof_unit_66921.cif
_audit_creation_date              2013-03-05T15:57:27-0500
_audit_creation_method            fapswitch 2.2
_symmetry_space_group_name_H-M    P1
_symmetry_Int_Tables_number       1
_space_group_crystal_system       triclinic
_cell_length_a                    17.130651
_cell_length_b                    18.4263
_cell_length_c                    8.346589
_cell_angle_alpha                 90.0
_cell_angle_beta                  101.538487
_cell_angle_gamma                 89.931621
_cell_volume                      2581.3920234

loop_
_atom_site_label
_atom_site_type_symbol
_atom_site_description
_atom_site_fract_x
_atom_site_fract_y
_atom_site_fract_z
_atom_type_partial_charge
P1    P     P_3+3 0.834140 0.419320 0.003900 0.458339
P2    P     P_3+3 0.834140 0.580680 0.503900 0.458922
P3    P     P_3+3 0.334140 0.919320 0.003900 0.455715
P4    P     P_3+3 0.334140 0.080680 0.503900 0.460122
O1    O     O_2   0.841960 0.394640 0.833410 -0.370905
O2    O     O_2   0.841960 0.605360 0.333410 -0.376783
O3    O     O_2   0.341960 0.894640 0.833410 -0.361884
O4    O     O_2   0.341960 0.105360 0.333410 -0.389276
O5    O     O_3   0.907950 0.463080 0.102990 -0.402733
O6    O     O_3   0.907950 0.536920 0.602990 -0.400402
O7    O     O_3   0.407950 0.963080 0.102990 -0.408693
O8    O     O_3   0.407950 0.036920 0.602990 -0.386681
O9    O     O_3   0.972780 0.329600 0.629720 -0.348401
O10   O     O_3   0.972780 0.670400 0.129720 -0.379871
O11   O     O_3   0.472780 0.829600 0.629720 -0.346272
O12   O     O_3   0.472780 0.170400 0.129720 -0.380335
O13   O     O_2   0.846138 0.268145 0.705631 -0.413041
O14   O     O_2   0.844583 0.732326 0.203348 -0.400068
O15   O     O_2   0.345750 0.767770 0.703353 -0.414564
O16   O     O_2   0.344796 0.232839 0.203159 -0.395776
O17   O     O_3   0.749419 0.474660 0.960984 -0.555784
O18   O     O_3   0.751047 0.523271 0.462392 -0.551278
O19   O     O_3   0.249770 0.975149 0.959832 -0.555074
O20   O     O_3   0.251925 0.022326 0.470310 -0.555523
O21   O     O_3   0.955080 0.181315 0.636174 -0.492660
O22   O     O_3   0.946969 0.822323 0.120475 -0.504053
O23   O     O_3   0.455257 0.681087 0.635667 -0.496012
O24   O     O_3   0.447252 0.322841 0.119733 -0.502910
H1    H     H_    0.019170 0.215012 0.457744 -0.000267
H2    H     H_    0.063201 0.789645 0.205841 0.141050
H3    H     H_    0.521398 0.716265 0.461904 -0.000989
H4    H     H_    0.562188 0.292219 0.221918 0.144648
C1    C     C_3   0.072329 0.121705 0.583626 -0.060439
C2    C     C_3   0.059831 0.892038 0.079272 -0.099807
C3    C     C_3   0.574958 0.623542 0.590091 -0.062784
C4    C     C_3   0.562303 0.390897 0.082751 -0.111611
H5    H     H_    0.612441 0.655774 0.688857 0.142291
H6    H     H_    0.628270 0.387356 0.103610 0.105954
H7    H     H_    0.112088 0.154042 0.678836 0.139713
H8    H     H_    0.125052 0.888421 0.085438 0.108166
P5    P     P_3+3 0.165830 0.418670 0.685610 0.461741
P6    P     P_3+3 0.165830 0.581330 0.185610 0.459098
P7    P     P_3+3 0.665830 0.918670 0.685610 0.461263
P8    P     P_3+3 0.665830 0.081330 0.185610 0.458418
P9    P     P_3+3 0.098965 0.261572 0.109249 0.454739
P10   P     P_3+3 0.097258 0.739723 0.609000 0.446998
P11   P     P_3+3 0.598424 0.761162 0.108917 0.452570
P12   P     P_3+3 0.597531 0.239383 0.609343 0.437156
O25   O     O_2   0.157990 0.394030 0.856030 -0.358833
O26   O     O_2   0.157990 0.605970 0.356030 -0.384416
O27   O     O_2   0.657990 0.894030 0.856030 -0.360707
O28   O     O_2   0.657990 0.105970 0.356030 -0.381722
O29   O     O_3   0.027110 0.329490 0.059550 -0.389108
O30   O     O_3   0.027110 0.670510 0.559550 -0.392273
O31   O     O_3   0.527110 0.829490 0.059550 -0.391309
O32   O     O_3   0.527110 0.170510 0.559550 -0.389455
O33   O     O_2   0.156041 0.268808 0.988350 -0.377697
O34   O     O_2   0.152077 0.736437 0.482676 -0.394665
O35   O     O_2   0.654622 0.767322 0.985939 -0.379779
O36   O     O_2   0.652136 0.235675 0.482721 -0.405252
O37   O     O_3   0.250757 0.473456 0.730624 -0.563786
O38   O     O_3   0.249087 0.524233 0.220882 -0.564607
O39   O     O_3   0.750658 0.973619 0.730166 -0.564827
O40   O     O_3   0.749284 0.024502 0.221324 -0.566202
O41   O     O_3   0.052480 0.177538 0.062122 -0.513396
O42   O     O_3   0.045913 0.822245 0.570931 -0.492386
O43   O     O_3   0.550439 0.677548 0.064481 -0.513889
O44   O     O_3   0.546383 0.321982 0.570937 -0.496762
C5    C     C_3   0.970834 0.185617 0.061440 0.475263
C6    C     C_3   0.966685 0.810697 0.587942 0.461159
C7    C     C_3   0.468838 0.687637 0.061655 0.479378
C8    C     C_3   0.468069 0.311278 0.594678 0.452303
H9    H     H_    0.941948 0.216749 0.952000 0.174628
H10   H     H_    0.933720 0.781189 0.479134 0.150087
H11   H     H_    0.441676 0.720095 0.953004 0.174354
H12   H     H_    0.433490 0.280204 0.490040 0.145634
H13   H     H_    0.960489 0.213725 0.172970 -0.002488
H14   H     H_    0.963863 0.779528 0.700670 0.021400
H15   H     H_    0.458943 0.715294 0.173946 -0.003399
H16   H     H_    0.467360 0.282071 0.710948 0.021846
C9    C     C_3   0.931950 0.111481 0.054871 -0.901281
C10   C     C_3   0.925255 0.882796 0.599862 -0.873240
C11   C     C_3   0.426908 0.614867 0.050561 -0.885132
C12   C     C_3   0.426957 0.383825 0.603296 -0.866128
H17   H     H_    0.361609 0.623306 0.015852 0.202354
H18   H     H_    0.361688 0.376118 0.585133 0.202629
H19   H     H_    0.866147 0.117640 0.029611 0.207377
H20   H     H_    0.859972 0.874843 0.579696 0.202475
H21   H     H_    0.950741 0.077526 0.959531 0.307041
H22   H     H_    0.938950 0.921133 0.507291 0.317410
H23   H     H_    0.447864 0.579583 0.960068 0.308994
H24   H     H_    0.440222 0.420880 0.507911 0.315537
C13   C     C_3   0.229713 0.456201 0.276311 0.353709
C14   C     C_3   0.231510 0.546493 0.748965 0.376615
C15   C     C_3   0.730167 0.956322 0.276297 0.353916
C16   C     C_3   0.731242 0.046417 0.751497 0.375386
H25   H     H_    0.233498 0.458953 0.409860 0.089623
H26   H     H_    0.240257 0.558858 0.881171 0.084175
H27   H     H_    0.734999 0.958616 0.410210 0.091195
H28   H     H_    0.740087 0.057777 0.884181 0.084436
H29   H     H_    0.169873 0.436660 0.215050 0.126781
H30   H     H_    0.170142 0.562299 0.689047 0.131197
H31   H     H_    0.670027 0.936995 0.216457 0.126539
H32   H     H_    0.669816 0.062278 0.692138 0.130994
C17   C     C_3   0.290298 0.401706 0.240099 -0.824722
C18   C     C_3   0.288250 0.591901 0.673286 -0.873505
C19   C     C_3   0.790162 0.902004 0.236975 -0.830453
C20   C     C_3   0.787758 0.092842 0.677491 -0.870116
H33   H     H_    0.351167 0.424598 0.271516 0.289553
H34   H     H_    0.350181 0.584167 0.739087 0.278337
H35   H     H_    0.851273 0.924331 0.269449 0.289181
H36   H     H_    0.849586 0.085660 0.744627 0.276337
H37   H     H_    0.287480 0.351125 0.310211 0.216323
H38   H     H_    0.271429 0.649820 0.674953 0.248293
H39   H     H_    0.786795 0.850686 0.304182 0.218735
H40   H     H_    0.770242 0.150634 0.679659 0.247257
H41   H     H_    0.277635 0.389080 0.108226 0.268211
H42   H     H_    0.286257 0.573694 0.546362 0.264985
H43   H     H_    0.777344 0.890961 0.104405 0.267991
H44   H     H_    0.786463 0.075052 0.550370 0.265362
Ba1   Ba    Ba6+2 0.000000 0.447380 0.844850 1.548272
Ba2   Ba    Ba6+2 1.000000 0.552620 0.344850 1.540465
Ba3   Ba    Ba6+2 0.500000 0.947380 0.844850 1.550474
Ba4   Ba    Ba6+2 0.500000 0.052620 0.344850 1.541150
C21   C     C_3   0.768948 0.547017 0.936019 0.374189
C22   C     C_3   0.772994 0.451966 0.431870 0.381223
C23   C     C_3   0.270040 0.047181 0.933075 0.376357
C24   C     C_3   0.269641 0.957695 0.396579 0.404765
H45   H     H_    0.759325 0.557307 0.802757 0.086187
H46   H     H_    0.765513 0.444391 0.298145 0.071171
H47   H     H_    0.261723 0.056391 0.799672 0.100586
H48   H     H_    0.250444 0.963737 0.262624 0.097228
H49   H     H_    0.830674 0.562557 0.993703 0.123414
H50   H     H_    0.834746 0.437153 0.491122 0.122440
H51   H     H_    0.331522 0.062675 0.992596 0.121836
H52   H     H_    0.333858 0.943062 0.426295 0.095629
C25   C     C_3   0.713349 0.594813 0.009650 -0.793073
C26   C     C_3   0.718149 0.400209 0.497661 -0.765466
C27   C     C_3   0.213945 0.096313 0.002149 -0.812735
C28   C     C_3   0.222633 0.895921 0.453275 -0.795211
H53   H     H_    0.652108 0.592021 0.937374 0.292332
H54   H     H_    0.660394 0.395401 0.412036 0.275753
H55   H     H_    0.152957 0.092792 0.929084 0.295470
H56   H     H_    0.167120 0.915960 0.487588 0.322418
H57   H     H_    0.734169 0.651639 0.013961 0.232131
H58   H     H_    0.745102 0.345485 0.513495 0.226375
H59   H     H_    0.234686 0.153067 0.002925 0.235797
H60   H     H_    0.207326 0.854744 0.355099 0.204703
H61   H     H_    0.711504 0.575463 0.134436 0.270326
H62   H     H_    0.707462 0.420182 0.617100 0.280351
H63   H     H_    0.211516 0.079012 0.127939 0.260015
H64   H     H_    0.258398 0.869484 0.562348 0.258656
O45   O     O_3   0.092100 0.536880 0.086720 -0.391734
O46   O     O_3   0.092100 0.463120 0.586720 -0.408315
O47   O     O_3   0.592100 0.036880 0.086720 -0.391958
O48   O     O_3   0.592100 0.963120 0.586720 -0.407121
P13   P     P_3+3 0.900453 0.737949 0.079672 0.445900
P14   P     P_3+3 0.901808 0.261461 0.581783 0.443176
P15   P     P_3+3 0.400828 0.238310 0.079698 0.448179
P16   P     P_3+3 0.402038 0.761246 0.580652 0.447604
C29   C     C_3   0.998179 0.165543 0.513221 0.313586
C30   C     C_3   0.026050 0.816687 0.097908 0.345827
C31   C     C_3   0.500594 0.666362 0.515967 0.317501
C32   C     C_3   0.527775 0.316380 0.107539 0.338682
H65   H     H_    0.959449 0.133474 0.416749 0.074820
H66   H     H_    0.030100 0.785575 0.985604 -0.022867
H67   H     H_    0.463797 0.633860 0.417722 0.076745
H68   H     H_    0.535343 0.282228 0.001842 -0.013415
H69   H     H_    0.609782 0.612124 0.494183 0.140223
H70   H     H_    0.540470 0.409514 0.955701 0.175690
H71   H     H_    0.104879 0.108622 0.484709 0.140826
H72   H     H_    0.032159 0.915438 0.959351 0.175879
H73   H     H_    0.439177 0.587267 0.170062 0.274258
H74   H     H_    0.447104 0.408910 0.724789 0.269452
H75   H     H_    0.949970 0.083578 0.173369 0.278599
H76   H     H_    0.944752 0.906463 0.722982 0.265765
C33   C     C_R   0.139857 0.676034 0.918810 -0.524596
C34   C     C_R   0.138086 0.323027 0.421625 -0.507452
C35   C     C_R   0.640041 0.175808 0.919257 -0.523646
C36   C     C_R   0.638272 0.823234 0.420898 -0.509904
C37   C     C_R   0.861699 0.323223 0.268268 -0.506494
C38   C     C_R   0.859011 0.674692 0.770014 -0.537421
C39   C     C_R   0.363090 0.822105 0.265975 -0.500530
C40   C     C_R   0.359722 0.175087 0.769868 -0.539767
C41   C     C_R   0.791168 0.212675 0.301618 -0.201405
C42   C     C_R   0.789495 0.786068 0.802332 -0.179548
C43   C     C_R   0.291163 0.712642 0.300766 -0.202679
C44   C     C_R   0.289836 0.286278 0.802430 -0.179952
C45   C     C_R   0.847284 0.265478 0.366070 0.169580
C46   C     C_R   0.844617 0.732497 0.867102 0.217164
C47   C     C_R   0.347920 0.764975 0.364649 0.188141
C48   C     C_R   0.345167 0.232842 0.867029 0.217013
C49   C     C_R   0.816676 0.333027 0.110389 0.274700
C50   C     C_R   0.815140 0.665912 0.611280 0.277837
C51   C     C_R   0.316867 0.832865 0.109534 0.257056
C52   C     C_R   0.315477 0.166004 0.611546 0.278779
C53   C     C_R   0.756733 0.280622 0.045650 -0.074875
C54   C     C_R   0.755471 0.718580 0.546322 -0.079200
C55   C     C_R   0.256487 0.780866 0.045022 -0.077898
C56   C     C_R   0.255537 0.218513 0.546853 -0.077305
C57   C     C_R   0.244115 0.719194 0.141831 -0.062472
C58   C     C_R   0.242803 0.279891 0.643892 -0.074558
C59   C     C_R   0.744247 0.219084 0.142545 -0.057388
C60   C     C_R   0.742659 0.779864 0.643536 -0.074263
C61   C     C_R   0.184061 0.666856 0.077362 0.278820
C62   C     C_R   0.183022 0.332495 0.579302 0.285379
C63   C     C_R   0.684196 0.166746 0.077835 0.277515
C64   C     C_R   0.683045 0.832584 0.578839 0.284645
C65   C     C_R   0.153881 0.734106 0.821623 0.213063
C66   C     C_R   0.153153 0.265725 0.323560 0.216429
C67   C     C_R   0.654221 0.233704 0.821998 0.214397
C68   C     C_R   0.653303 0.765891 0.322774 0.217100
C69   C     C_R   0.209164 0.787630 0.886262 -0.201204
C70   C     C_R   0.209199 0.212696 0.387458 -0.220908
C71   C     C_R   0.709673 0.287048 0.886751 -0.203556
C72   C     C_R   0.709345 0.712892 0.386734 -0.220444
H77   H     H_    0.284229 0.667589 0.377520 0.178615
H78   H     H_    0.284540 0.332491 0.877567 0.183107
H79   H     H_    0.784552 0.167412 0.378111 0.178307
H80   H     H_    0.784266 0.832268 0.877461 0.181459
H81   H     H_    0.715522 0.332864 0.810834 0.188517
H82   H     H_    0.716006 0.667671 0.310066 0.188280
H83   H     H_    0.214651 0.833763 0.810057 0.194498
H84   H     H_    0.215942 0.167542 0.310625 0.185989
H85   H     H_    0.095433 0.636142 0.868129 0.174057
H86   H     H_    0.093140 0.362641 0.371430 0.168778
H87   H     H_    0.595504 0.135998 0.868663 0.173615
H88   H     H_    0.593286 0.862823 0.370789 0.169046
H89   H     H_    0.906452 0.362856 0.318715 0.169511
H90   H     H_    0.903584 0.634849 0.820799 0.175024
H91   H     H_    0.409473 0.860509 0.314775 0.170428
H92   H     H_    0.404497 0.135388 0.820460 0.175175
Br1   Br    Br    0.044564 0.031521 0.676070 -0.514775
Br2   Br    Br    0.039251 0.957362 0.247282 -0.508163
Br3   Br    Br    0.547601 0.531635 0.675121 -0.511828
Br4   Br    Br    0.532522 0.462774 0.228972 -0.495814

loop_
_geom_bond_atom_site_label_1
_geom_bond_atom_site_label_2
_geom_bond_distance
_ccdc_geom_bond_type
C67   C71   1.399097 A    
P1    O17   1.750126 S    
O10   Ba2   2.795396 S    
C35   C67   1.391263 A    
C4    H70   1.105942 S    
C6    H14   1.111636 S    
O27   Ba3   2.862287 S    
C5    H13   1.109952 S    
C20   H44   1.106497 S    
P3    O19   1.751068 S    
O7    Ba4   2.831359 S    
O26   Ba2   2.864503 S    
P5    O37   1.749771 S    
P4    O4    1.525163 D    
O6    Ba1   2.829164 S    
C54   C72   1.410240 A    
C28   H60   1.109241 S    
C7    H15   1.109154 S    
P7    O39   1.750001 S    
Ba3   Ba4   4.601827 S    
C70   H84   1.070642 S    
Ba3   O47   2.831333 S    
C26   H62   1.111587 S    
P8    O40   1.747882 S    
P9    O33   1.545017 D    
C1    H7    1.111256 S    
O11   Ba3   2.796260 S    
C16   H28   1.107339 S    
C18   H38   1.105932 S    
C29   H65   1.106773 S    
P1    O1    1.525067 D    
O15   P16   1.545267 D    
O32   Ba4   2.795575 S    
C25   H57   1.104833 S    
C3    H5    1.110749 S    
C12   H18   1.107190 S    
P10   O42   1.752652 S    
P3    O3    1.525067 D    
C24   H52   1.111089 S    
C43   H77   1.069750 S    
P4    O20   1.750422 S    
C10   H20   1.107063 S    
O18   C22   1.403465 S    
C14   H26   1.107220 S    
C15   H27   1.104954 S    
C33   C65   1.392594 A    
O1    Ba1   2.861120 S    
O41   C5    1.405241 S    
P4    Ba4   3.407055 S    
O22   P13   1.749985 S    
P4    C52   1.869502 S    
P5    Ba1   3.409296 S    
P5    C62   1.870520 S    
C36   C68   1.391851 A    
P13   C46   1.842339 S    
C25   H53   1.101861 S    
O23   C31   1.408854 S    
C30   H66   1.112667 S    
C37   C45   1.393112 A    
C38   H90   1.082071 S    
C14   C18   1.513737 S    
O20   C24   1.401056 S    
C60   C64   1.433590 A    
O21   C29   1.409009 S    
C15   H31   1.110280 S    
O16   P15   1.545742 D    
C6    H10   1.111246 S    
C39   C51   1.399034 A    
C40   C48   1.390184 A    
C5    H9    1.107615 S    
C38   C50   1.395805 A    
P4    O8    1.584980 S    
C37   C49   1.398941 A    
C21   H49   1.108579 S    
C28   H64   1.103461 S    
C51   C55   1.434374 A    
C53   C71   1.412421 A    
C8    H12   1.111459 S    
P6    O38   1.748195 S    
O28   Ba4   2.864503 S    
C9    H21   1.109198 S    
P8    O28   1.524385 D    
C33   H85   1.082106 S    
O30   Ba2   2.795575 S    
P9    O29   1.745138 S    
P11   C68   1.845652 S    
P10   O34   1.547003 D    
O12   P15   1.746383 S    
Ba2   O46   2.829139 S    
C17   H41   1.103314 S    
P2    O2    1.525163 D    
C27   H55   1.101324 S    
C12   H74   1.105180 S    
C24   H48   1.106095 S    
C22   H50   1.108215 S    
C19   H43   1.103128 S    
C34   C66   1.391146 A    
P3    Ba3   3.408084 S    
C26   H58   1.105408 S    
P12   O36   1.546610 D    
C7    C11   1.515981 S    
Ba3   O48   2.928516 S    
P2    Ba2   3.407055 S    
C1    H71   1.111093 S    
H3    C31   1.114129 S    
C7    H11   1.107759 S    
Ba1   O46   2.928516 S    
O10   P13   1.745895 S    
C9    H75   1.102431 S    
C68   C72   1.397520 A    
C32   H68   1.112062 S    
P6    O45   1.591481 S    
P1    O5    1.586515 S    
C40   H92   1.082049 S    
C26   H54   1.102194 S    
P14   C45   1.856520 S    
C37   H89   1.081919 S    
C52   C56   1.434531 A    
O37   C14   1.400878 S    
O4    Ba4   2.858925 S    
C21   C25   1.514165 S    
O23   P16   1.747277 S    
C66   C70   1.397824 A    
C42   H80   1.071547 S    
O39   C16   1.401530 S    
C36   H88   1.081975 S    
O24   P15   1.751246 S    
P3    C51   1.873016 S    
C20   H36   1.102534 S    
P2    C50   1.868479 S    
C3    C31   1.520025 S    
C42   C46   1.397093 A    
C31   H67   1.105689 S    
C4    C32   1.526080 S    
P2    O18   1.752573 S    
H1    C29   1.114458 S    
C27   H63   1.105983 S    
O9    Ba1   2.796260 S    
C19   H35   1.107324 S    
C39   H91   1.081616 S    
C56   C70   1.410432 A    
C33   C61   1.397179 A    
P12   C67   1.847880 S    
O44   C8    1.408884 S    
O25   Ba1   2.862287 S    
P10   O30   1.745316 S    
O5    Ba2   2.831359 S    
C42   C60   1.410073 A    
P11   O43   1.751594 S    
P6    Ba2   3.410348 S    
C9    H19   1.110249 S    
P12   O44   1.752551 S    
C12   H24   1.106534 S    
O13   P14   1.545082 D    
C19   H39   1.106905 S    
Ba1   Ba2   4.601827 S    
C8    C12   1.518610 S    
C15   C19   1.515983 S    
P6    O26   1.524385 D    
C5    C9    1.516703 S    
C27   H59   1.104474 S    
C56   C58   1.432743 A    
C25   H61   1.107300 S    
C10   H76   1.104897 S    
C34   C62   1.396448 A    
P5    O25   1.524480 D    
Ba4   O48   2.829139 S    
C54   C60   1.432607 A    
C3    H69   1.109817 S    
Ba2   O45   2.928144 S    
C2    H8    1.110048 S    
O38   C13   1.399303 S    
C3    Br3   1.930343 S    
H2    C30   1.111202 S    
P7    Ba3   3.409296 S    
C13   H29   1.110455 S    
P7    O48   1.589929 S    
P2    O6    1.584980 S    
O31   Ba3   2.794714 S    
C13   H25   1.104708 S    
O9    P14   1.738871 S    
O40   C15   1.399007 S    
C1    Br1   1.931773 S    
P6    C61   1.873890 S    
O24   C32   1.408213 S    
P11   O31   1.744230 S    
P5    O46   1.589929 S    
C18   H34   1.101829 S    
C17   H37   1.106742 S    
P12   O32   1.744028 S    
C16   H32   1.108534 S    
C17   H33   1.107069 S    
C22   C26   1.517351 S    
C57   C61   1.434872 A    
C41   H79   1.070161 S    
P1    Ba1   3.408084 S    
C11   H17   1.108760 S    
P7    C64   1.871195 S    
C55   C69   1.413732 A    
P8    O47   1.591481 S    
C43   C47   1.397986 A    
P15   C48   1.842094 S    
C28   H56   1.109434 S    
P16   C47   1.856290 S    
C23   H51   1.108603 S    
C2    C30   1.524721 S    
C39   C47   1.392941 A    
C41   C45   1.398401 A    
C44   H78   1.072019 S    
C35   C63   1.396806 A    
C4    Br4   1.936843 S    
P10   C65   1.847200 S    
C11   H23   1.109045 S    
C43   C57   1.412790 A    
O19   C23   1.401519 S    
O2    Ba2   2.858925 S    
P9    C66   1.844757 S    
C10   H22   1.106326 S    
C44   C48   1.397126 A    
C41   C59   1.412684 A    
C23   H47   1.106971 S    
C11   H73   1.101610 S    
O12   Ba4   2.795396 S    
Ba1   O45   2.831333 S    
O11   P16   1.740046 S    
C13   C17   1.516519 S    
O14   P13   1.545249 D    
C40   C52   1.395826 A    
C2    H72   1.105526 S    
P9    O41   1.750462 S    
C69   H83   1.077079 S    
C20   H40   1.107142 S    
C50   C54   1.434061 A    
O8    Ba3   2.829164 S    
C59   C63   1.435302 A    
P7    O27   1.524480 D    
C49   C53   1.435004 A    
H4    C32   1.109656 S    
C44   C58   1.409864 A    
O22   C30   1.408268 S    
C53   C59   1.433668 A    
O43   C7    1.405481 S    
P8    C63   1.870770 S    
C35   H87   1.082104 S    
C6    C10   1.518086 S    
C65   C69   1.399461 A    
C34   H86   1.082020 S    
C72   H82   1.070426 S    
P3    O7    1.586515 S    
C4    H6    1.110269 S    
P11   O35   1.545589 D    
C21   H45   1.107642 S    
C1    C29   1.519953 S    
O42   C6    1.409007 S    
C14   H30   1.108623 S    
C8    H16   1.111887 S    
C58   C62   1.433776 A    
Ba4   O47   2.928144 S    
P8    Ba4   3.410348 S    
O21   P14   1.746688 S    
C55   C57   1.434672 A    
C22   H46   1.106573 S    
P1    C49   1.874917 S    
C16   C20   1.513885 S    
O29   Ba1   2.794714 S    
C38   C46   1.389709 A    
C36   C64   1.397003 A    
O17   C21   1.400674 S    
C23   C27   1.514917 S    
C18   H42   1.105238 S    
C71   H81   1.072310 S    
O3    Ba3   2.861120 S    
C24   C28   1.524042 S    
C2    Br2   1.932964 S    
