data_mof_unit_14753.cif
_audit_creation_date              2012-12-11T16:17:45-0500
_audit_creation_method            fapswitch 2.2
_symmetry_space_group_name_H-M    P1
_symmetry_Int_Tables_number       1
_space_group_crystal_system       triclinic
_cell_length_a                    6.931749
_cell_length_b                    28.792674
_cell_length_c                    32.070851
_cell_angle_alpha                 101.097882
_cell_angle_beta                  89.610845
_cell_angle_gamma                 90.447124
_cell_volume                      6280.83637035

loop_
_atom_site_label
_atom_site_type_symbol
_atom_type_description
_atom_site_fract_x
_atom_site_fract_y
_atom_site_fract_z
_atom_type_partial_charge
O1    O     O_R   0.494350 0.453160 0.452490 -0.539912
O2    O     O_R   0.820990 0.455850 0.538220 -0.545540
O3    O     O_R   0.994300 0.546840 0.547510 -0.540869
C1    C     C_R   0.651401 0.445770 0.551723 0.717590
O4    O     O_R   0.823860 0.447580 0.452250 -0.517782
O5    O     O_R   0.997190 0.538510 0.460920 -0.539639
C2    C     C_R   0.655076 0.434196 0.436702 0.716353
O6    O     O_R   0.491450 0.461490 0.539080 -0.538975
O7    O     O_3   0.661790 0.529840 0.502950 -0.364281
V1    V     V_3+5 0.935470 0.494460 0.499450 1.440830
O8    O     O_R   0.327090 0.544150 0.461780 -0.518481
C3    C     C_R   0.158956 0.554807 0.448573 0.730655
O9    O     O_R   0.324210 0.552420 0.547750 -0.545026
C4    C     C_R   0.154981 0.565218 0.563672 0.690509
V2    V     V_3+5 0.435840 0.505540 0.500550 1.440150
O10   O     O_3   0.159650 0.470160 0.497050 -0.362453
C5    C     C_R   0.968711 0.610102 0.625831 -0.182294
H1    H     H_    0.845774 0.587381 0.615645 0.118481
C6    C     C_R   0.952310 0.645177 0.662967 0.221165
C7    C     C_R   0.111770 0.675308 0.676825 0.002315
C8    C     C_R   0.285201 0.668049 0.653313 -0.172656
C9    C     C_R   0.300578 0.632405 0.616880 -0.173079
H2    H     H_    0.436418 0.628078 0.599732 0.134474
C10   C     C_R   0.142013 0.603221 0.602467 -0.078507
N1    N     N_R   0.263660 0.733582 0.734975 -0.270003
N2    N     N_R   0.253949 0.768006 0.769368 -0.275359
C11   C     C_R   0.080736 0.784725 0.785710 0.504825
N3    N     N_R   0.917945 0.765622 0.765864 -0.273916
N4    N     N_R   0.927791 0.731267 0.731497 -0.228393
C12   C     C_R   0.100616 0.714157 0.715333 0.524313
C13   C     C_R   0.889266 0.839090 0.841925 -0.123834
H3    H     H_    0.756383 0.824016 0.827549 0.139402
C14   C     C_R   0.878108 0.874969 0.878268 -0.154108
C15   C     C_R   0.046493 0.895804 0.898154 -0.051748
C16   C     C_R   0.226302 0.879584 0.880667 -0.152376
C17   C     C_R   0.237423 0.843674 0.844383 -0.127502
C18   C     C_R   0.069102 0.822936 0.824419 0.023149
C19   C     C_R   0.054057 0.658263 0.284461 0.577547
N5    N     N_R   0.103652 0.677426 0.325645 -0.551791
C20   C     C_R   0.139667 0.725138 0.337632 0.572417
C21   C     C_R   0.129651 0.755177 0.307802 -0.029215
C22   C     C_R   0.078192 0.735935 0.265592 -0.016660
C23   C     C_R   0.038520 0.687161 0.253794 -0.031916
C24   C     C_R   0.169727 0.803928 0.319186 -0.138334
C25   C     C_R   0.160137 0.833041 0.289028 -0.139921
C26   C     C_R   0.109129 0.814207 0.246764 -0.031517
C27   C     C_R   0.067002 0.765513 0.235073 -0.014771
C28   C     C_R   0.014261 0.746304 0.192904 -0.030627
C29   C     C_R   0.973075 0.697626 0.181585 -0.140613
C30   C     C_R   0.985683 0.668404 0.211606 -0.137594
C31   C     C_R   0.100407 0.842766 0.215721 0.571848
N6    N     N_R   0.050479 0.823495 0.174689 -0.554478
C32   C     C_R   0.005355 0.776319 0.163049 0.567972
O11   O     O_2   0.022237 0.611267 0.272960 -0.518668
O12   O     O_2   0.183368 0.743667 0.378400 -0.522693
H4    H     H_    0.209660 0.819748 0.351410 0.173625
H5    H     H_    0.193058 0.870349 0.298956 0.174007
O13   O     O_2   0.142807 0.889332 0.226395 -0.517343
O14   O     O_2   0.952765 0.758465 0.122688 -0.518974
C33   C     C_R   0.206024 0.854253 0.115360 0.174415
C34   C     C_R   0.201386 0.883623 0.084763 0.173130
C35   C     C_R   0.039806 0.912845 0.082410 -0.100557
C36   C     C_R   0.884132 0.911361 0.110488 -0.256500
H6    H     H_    0.759864 0.933748 0.109804 0.141737
C37   C     C_R   0.888037 0.881876 0.140386 -0.094692
C38   C     C_R   0.047943 0.853236 0.143173 0.315714
C39   C     C_R   0.292513 0.644593 0.378502 -0.119746
H7    H     H_    0.414777 0.665643 0.371706 0.129290
C40   C     C_R   0.309027 0.615703 0.409193 0.167182
C41   C     C_R   0.149584 0.587383 0.417416 -0.078074
C42   C     C_R   0.976676 0.590137 0.395147 -0.247972
C43   C     C_R   0.961339 0.619720 0.365491 -0.099522
H8    H     H_    0.825705 0.621346 0.349288 0.141659
C44   C     C_R   0.119208 0.647031 0.356657 0.340603
C45   C     C_R   0.543062 0.225687 0.839555 0.595271
N7    N     N_R   0.560096 0.177625 0.826284 -0.550475
C46   C     C_R   0.580054 0.158140 0.783978 0.612276
C47   C     C_R   0.579909 0.186976 0.753218 -0.022412
C48   C     C_R   0.575408 0.236565 0.766469 -0.062194
C49   C     C_R   0.561853 0.256660 0.810225 -0.048131
C50   C     C_R   0.584914 0.167296 0.709554 -0.133995
C51   C     C_R   0.583769 0.196341 0.679346 -0.139061
C52   C     C_R   0.584692 0.245830 0.692043 -0.014810
C53   C     C_R   0.583987 0.265968 0.735722 -0.018710
C54   C     C_R   0.591518 0.315410 0.748588 -0.073997
C55   C     C_R   0.583728 0.335323 0.792075 -0.176689
C56   C     C_R   0.566450 0.306763 0.822953 0.212435
C57   C     C_R   0.586284 0.275783 0.662081 0.548857
N8    N     N_R   0.603659 0.323923 0.675036 -0.557043
C58   C     C_R   0.608060 0.343894 0.717517 0.628852
O15   O     O_2   0.505083 0.243182 0.880851 -0.497532
O16   O     O_2   0.600161 0.110905 0.771647 -0.521471
O17   O     O_2   0.569120 0.256896 0.620385 -0.527007
O18   O     O_2   0.628601 0.391188 0.729725 -0.503057
C59   C     C_R   0.464717 0.385842 0.640188 0.240026
C60   C     C_R   0.476437 0.414869 0.609596 -0.222005
H9    H     H_    0.360089 0.439123 0.607224 0.134540
C61   C     C_R   0.639189 0.413996 0.583136 -0.142481
C62   C     C_R   0.790458 0.383084 0.587310 -0.184908
H10   H     H_    0.917272 0.381785 0.567184 0.155901
C63   C     C_R   0.778801 0.352747 0.616624 0.189398
C64   C     C_R   0.615508 0.354068 0.643643 0.314983
C65   C     C_R   0.401011 0.114853 0.857746 0.232163
C66   C     C_R   0.396851 0.085082 0.887647 -0.249663
C67   C     C_R   0.547825 0.085552 0.916632 -0.133115
C68   C     C_R   0.705099 0.116248 0.915214 -0.171469
H11   H     H_    0.823370 0.116960 0.937257 0.155840
C69   C     C_R   0.708859 0.147356 0.886418 0.162214
C70   C     C_R   0.555528 0.146945 0.857280 0.344031
C71   C     C_R   0.473165 0.387958 0.374680 -0.201564
C72   C     C_R   0.458423 0.352212 0.338404 -0.140910
C73   C     C_R   0.615410 0.322626 0.324577 -0.012506
C74   C     C_R   0.786593 0.329221 0.348324 -0.159504
H12   H     H_    0.908361 0.306280 0.338494 0.141528
C75   C     C_R   0.802461 0.364502 0.385295 0.204610
C76   C     C_R   0.644488 0.394979 0.398589 -0.069963
N9    N     N_R   0.763876 0.261577 0.269266 -0.275707
N10   N     N_R   0.754312 0.226955 0.235214 -0.294693
C77   C     C_R   0.583346 0.213364 0.216131 0.528701
N11   N     N_R   0.421805 0.237014 0.232262 -0.268976
N12   N     N_R   0.431188 0.271886 0.266363 -0.277601
C78   C     C_R   0.602634 0.284696 0.285817 0.532157
C79   C     C_R   0.417702 0.171411 0.150011 -0.148677
H13   H     H_    0.305404 0.197860 0.155656 0.155824
C80   C     C_R   0.405666 0.135747 0.113616 -0.175270
H14   H     H_    0.284763 0.135816 0.092405 0.141664
C81   C     C_R   0.549159 0.101095 0.104062 -0.157111
C82   C     C_R   0.703481 0.101867 0.133232 0.219998
C83   C     C_R   0.715700 0.137738 0.169783 0.222348
C84   C     C_R   0.573498 0.173744 0.178270 -0.088262
O19   O     O_R   0.699050 0.038480 0.960880 -0.539989
O20   O     O_R   0.366680 0.052470 0.047720 -0.538633
O21   O     O_R   0.193410 0.961530 0.039110 -0.513767
C85   C     C_R   0.535805 0.064333 0.064289 0.706387
O22   O     O_R   0.369510 0.044100 0.961740 -0.539007
O23   O     O_R   0.196260 0.953110 0.952520 -0.538277
C86   C     C_R   0.538834 0.054052 0.948186 0.728442
O24   O     O_R   0.696210 0.046900 0.047470 -0.545795
O25   O     O_3   0.528780 0.970170 0.997070 -0.357558
V3    V     V_3+5 0.255080 0.005530 0.000540 1.434482
O26   O     O_R   0.866350 0.947520 0.952280 -0.541762
C87   C     C_R   0.035476 0.934522 0.936479 0.693723
O27   O     O_R   0.863520 0.955880 0.038260 -0.547697
C88   C     C_R   0.031900 0.945319 0.051399 0.754318
V4    V     V_3+5 0.754720 0.994440 0.999470 1.410468
O28   O     O_3   0.030880 0.029830 0.002930 -0.373507
H15   H     H_    0.932109 0.681866 0.149413 0.173392
H16   H     H_    0.953893 0.631047 0.201607 0.174217
N13   N     N_3   0.373226 0.825983 0.118039 -0.661681
H17   H     H_    0.427459 0.834792 0.148914 0.238130
H18   H     H_    0.331420 0.790394 0.112409 0.264921
N14   N     N_3   0.358511 0.882784 0.055309 -0.632963
H19   H     H_    0.373385 0.848162 0.038314 0.251337
H20   H     H_    0.484873 0.892108 0.072559 0.248192
H21   H     H_    0.766591 0.881534 0.161743 0.143013
N15   N     N_3   0.485756 0.615930 0.432414 -0.647148
H22   H     H_    0.457644 0.632464 0.463820 0.230333
H23   H     H_    0.590468 0.636687 0.420966 0.223658
H24   H     H_    0.852062 0.569078 0.400465 0.170152
N16   N     N_3   0.775605 0.649211 0.687073 -0.634237
H25   H     H_    0.803485 0.637802 0.715469 0.244045
H26   H     H_    0.670195 0.626303 0.671341 0.221375
H27   H     H_    0.587176 0.129305 0.698532 0.171324
H28   H     H_    0.585345 0.179861 0.646008 0.171536
H29   H     H_    0.590320 0.373420 0.802287 0.170657
N17   N     N_3   0.560815 0.328808 0.867142 -0.579734
H30   H     H_    0.697426 0.324955 0.879628 0.247098
H31   H     H_    0.536609 0.365167 0.870710 0.227580
N18   N     N_3   0.302689 0.389335 0.668745 -0.604665
H32   H     H_    0.242927 0.355570 0.666100 0.240084
H33   H     H_    0.195749 0.410735 0.659645 0.236144
N19   N     N_3   0.935569 0.321106 0.618532 -0.663972
H34   H     H_    0.958902 0.318630 0.650169 0.227638
H35   H     H_    0.895490 0.287557 0.602112 0.278743
N20   N     N_3   0.249149 0.111974 0.827315 -0.629244
H36   H     H_    0.117952 0.114360 0.843701 0.240701
H37   H     H_    0.253598 0.078262 0.808095 0.253990
H38   H     H_    0.409799 0.690363 0.662905 0.177446
H39   H     H_    0.276061 0.060960 0.887704 0.137736
N21   N     N_3   0.870708 0.178790 0.887174 -0.651896
H40   H     H_    0.916139 0.178607 0.856007 0.237986
H41   H     H_    0.826162 0.213047 0.900332 0.276360
H42   H     H_    0.349713 0.410541 0.383803 0.159644
H43   H     H_    0.324243 0.348118 0.320935 0.150138
N22   N     N_3   0.977264 0.368594 0.409648 -0.651061
H44   H     H_    0.946001 0.357291 0.438056 0.224708
H45   H     H_    0.082636 0.345698 0.394091 0.222805
N23   N     N_3   0.848357 0.065763 0.127489 -0.615643
H46   H     H_    0.781719 0.032458 0.122234 0.219608
H47   H     H_    0.936124 0.069176 0.101624 0.238931
N24   N     N_3   0.872959 0.135572 0.198207 -0.606605
H48   H     H_    0.966955 0.163969 0.197575 0.257808
H49   H     H_    0.818967 0.136822 0.228915 0.252146
H50   H     H_    0.737117 0.886475 0.890670 0.119364
H51   H     H_    0.359296 0.894694 0.894972 0.121451
H52   H     H_    0.378441 0.832267 0.831941 0.133532

loop_
_geom_bond_atom_site_label_1
_geom_bond_atom_site_label_2
_ccdc_geom_bond_type
C36   C37   A    
C46   O16   S    
C63   C64   A    
C1    C61   S    
N8    C64   S    
N18   H33   S    
C21   C22   A    
C59   C60   A    
C81   C85   S    
O23   V3    S    
C82   C83   A    
N24   H49   S    
V4    O28   S    
C32   O14   S    
N13   H17   S    
C79   H13   S    
N20   H37   S    
C7    C12   S    
C46   C47   A    
N6    C32   A    
C73   C78   S    
C25   H5    S    
N2    C11   A    
N4    C12   A    
C68   C69   A    
C52   C53   A    
C6    N16   S    
N3    N4    A    
C83   C84   A    
C49   C56   A    
N13   H18   S    
O5    C3    A    
C19   N5    A    
C75   N22   S    
C79   C80   A    
C56   N17   S    
C68   H11   S    
O24   V4    S    
O27   C88   A    
C61   C62   A    
C77   C84   S    
C69   C70   A    
C29   H15   S    
C63   N19   S    
N23   H47   S    
C15   C16   A    
N18   H32   S    
N5    C44   S    
C4    C10   S    
C1    O6    A    
N10   C77   A    
C73   C74   A    
O23   C87   A    
C82   N23   S    
C71   C72   A    
O8    V2    S    
C15   C87   S    
C6    C7    A    
N21   H41   S    
N7    C70   S    
O21   C88   A    
C60   C61   A    
C13   C14   A    
C41   C42   A    
O1    V2    S    
O9    C4    A    
C45   C49   A    
C34   C35   A    
C59   C64   A    
C16   H51   S    
C22   C27   A    
C52   C57   A    
C33   C38   A    
O22   C86   A    
C8    C9    A    
N17   H31   S    
C50   H27   S    
C28   C32   A    
C55   H29   S    
C66   C67   A    
N19   H35   S    
C58   O18   S    
C9    H2    S    
O22   V3    S    
C54   C58   A    
C45   O15   S    
C5    C10   A    
C36   H6    S    
C31   N6    A    
C40   N15   S    
C27   C28   A    
N7    C46   A    
C43   C44   A    
V3    O28   S    
N5    C20   A    
O4    C2    A    
C55   C56   A    
N1    N2    A    
C54   C55   A    
C26   C31   A    
C50   C51   A    
C19   C23   A    
C39   H7    S    
C13   C18   A    
N23   H46   S    
C39   C40   A    
C16   C17   A    
N16   H26   S    
C2    C76   S    
O2    C1    A    
N9    C78   A    
C17   H52   S    
C85   O24   A    
C35   C36   A    
O19   C86   A    
C24   H4    S    
C13   H3    S    
C19   O11   S    
C77   N11   A    
C20   O12   S    
C60   H9    S    
C7    C8    A    
C65   N20   S    
C5    H1    S    
C31   O13   S    
C26   C27   A    
C53   C54   A    
C59   N18   S    
N12   C78   A    
O3    C4    A    
C8    H38   S    
O20   C85   A    
C20   C21   A    
C62   C63   A    
N14   H20   S    
C71   H42   S    
C29   C30   A    
O6    V2    S    
O9    V2    S    
C79   C84   A    
C48   C53   A    
C80   H14   S    
C21   C24   A    
C9    C10   A    
C22   C23   A    
N19   H34   S    
O2    V1    S    
C71   C76   A    
C11   N3    A    
N6    C38   S    
N21   H40   S    
C69   N21   S    
C80   C81   A    
C74   H12   S    
O7    V1    S    
C30   H16   S    
N1    C12   A    
O27   V4    S    
C3    C41   S    
C57   O17   S    
O25   V4    S    
C45   N7    A    
C72   C73   A    
O1    C2    A    
C24   C25   A    
C35   C88   S    
C43   H8    S    
O5    V1    S    
O25   V3    S    
C23   C30   A    
C81   C82   A    
O26   V4    S    
O20   V3    S    
C42   H24   S    
C67   C68   A    
C62   H10   S    
C65   C70   A    
N16   H25   S    
N15   H23   S    
O7    V2    S    
O4    V1    S    
C37   H21   S    
N20   H36   S    
V1    O10   S    
O26   C87   A    
C14   H50   S    
C47   C48   A    
C47   C50   A    
N22   H44   S    
N17   H30   S    
C51   H28   S    
C11   C18   S    
C28   C29   A    
C83   N24   S    
C72   H43   S    
C5    C6    A    
C14   C15   A    
O19   V4    S    
C39   C44   A    
C33   N13   S    
C37   C38   A    
C40   C41   A    
N24   H48   S    
C34   N14   S    
N22   H45   S    
C67   C86   S    
C48   C49   A    
C66   H39   S    
C25   C26   A    
C42   C43   A    
N15   H22   S    
C57   N8    A    
O21   V3    S    
C17   C18   A    
C51   C52   A    
C65   C66   A    
O3    V1    S    
N11   N12   A    
C33   C34   A    
N14   H19   S    
C75   C76   A    
N8    C58   A    
N9    N10   A    
V2    O10   S    
O8    C3    A    
C74   C75   A    
