data_mof_unit_66197.cif
_audit_creation_date              2012-12-10T19:09:05-0500
_audit_creation_method            fapswitch 2.2
_symmetry_space_group_name_H-M    P1
_symmetry_Int_Tables_number       1
_space_group_crystal_system       triclinic
_cell_length_a                    30.277491
_cell_length_b                    30.277475
_cell_length_c                    18.241147
_cell_angle_alpha                 89.999873
_cell_angle_beta                  90.00034
_cell_angle_gamma                 90.0
_cell_volume                      16722.1333015

loop_
_atom_site_label
_atom_site_type_symbol
_atom_type_description
_atom_site_fract_x
_atom_site_fract_y
_atom_site_fract_z
_atom_type_partial_charge
C1    C     C_R   0.226102 0.000000 0.500001 0.111235
C2    C     C_R   0.987705 0.203207 0.563401 -0.176592
C3    C     C_R   0.038144 0.657300 0.520791 -0.189757
C4    C     C_R   0.657299 0.961868 0.479138 -0.189752
C5    C     C_R   0.961910 0.342706 0.521057 -0.189766
C6    C     C_R   0.342703 0.038117 0.479056 -0.189757
C7    C     C_R   0.961856 0.657300 0.479210 -0.189756
C8    C     C_R   0.842703 0.461884 0.020945 -0.189757
C9    C     C_R   0.538099 0.842705 0.978975 -0.189761
C10   C     C_R   0.157297 0.538115 0.020951 -0.189756
C11   C     C_R   0.538065 0.157291 0.021196 -0.189770
C12   C     C_R   0.157297 0.461885 0.979048 -0.189756
C13   C     C_R   0.796796 0.987596 0.436646 -0.176577
C14   C     C_R   0.461901 0.842705 0.021024 -0.189761
C15   C     C_R   0.842703 0.538116 0.979056 -0.189756
C16   C     C_R   0.461935 0.157291 0.978804 -0.189769
C17   C     C_R   0.365758 0.000000 0.500000 -0.026662
C18   C     C_R   1.000000 0.365760 0.500000 -0.026636
C19   C     C_R   0.634243 1.000000 0.499999 -0.026696
C20   C     C_R   1.000000 0.634244 0.500000 -0.026729
C21   C     C_R   0.865758 0.500000 0.000000 -0.026663
C22   C     C_R   0.500000 0.865759 1.000000 -0.026640
C23   C     C_R   0.134242 0.500000 1.000000 -0.026660
C24   C     C_R   0.987576 0.796797 0.436665 -0.176571
C25   C     C_R   0.500000 0.134238 0.000000 -0.026578
C26   C     C_R   0.274018 0.000000 0.500001 0.110216
C27   C     C_R   1.000000 0.274021 0.499999 0.110199
C28   C     C_R   0.725983 0.000000 0.499999 0.110225
C29   C     C_R   1.000000 0.725984 0.500000 0.110211
C30   C     C_R   0.774019 0.500000 0.000001 0.110210
C31   C     C_R   0.500000 0.774021 1.000000 0.110206
C32   C     C_R   0.225981 0.500000 0.999999 0.110212
C33   C     C_R   0.500000 0.225975 1.000000 0.110186
C34   C     C_R   0.796797 0.012403 0.563351 -0.176577
C35   C     C_R   0.012295 0.203207 0.436598 -0.176594
C36   C     C_R   0.203206 0.987659 0.563386 -0.176586
C37   C     C_R   0.012424 0.796797 0.563336 -0.176571
C38   C     C_R   0.703206 0.512337 0.936615 -0.176585
C39   C     C_R   0.487702 0.703207 0.063406 -0.176598
C40   C     C_R   0.296794 0.487664 0.936613 -0.176586
C41   C     C_R   1.000000 0.226103 0.499999 0.111238
C42   C     C_R   0.487814 0.296788 0.936530 -0.176619
C43   C     C_R   0.296794 0.512337 0.063385 -0.176586
C44   C     C_R   0.512298 0.703208 0.936594 -0.176597
C45   C     C_R   0.703206 0.487664 0.063387 -0.176585
C46   C     C_R   0.512186 0.296788 0.063470 -0.176618
C47   C     C_R   0.157417 0.012074 0.436439 -0.192947
C48   C     C_R   0.987970 0.157418 0.563577 -0.192965
C49   C     C_R   0.842585 0.987864 0.436469 -0.192963
C50   C     C_R   0.987844 0.842586 0.436486 -0.192975
C51   C     C_R   0.842585 0.012136 0.563529 -0.192945
C52   C     C_R   0.773900 0.000000 0.499999 0.111233
C53   C     C_R   0.012029 0.157419 0.436423 -0.192956
C54   C     C_R   0.157417 0.987926 0.563562 -0.192965
C55   C     C_R   0.012156 0.842585 0.563514 -0.192967
C56   C     C_R   0.657417 0.512069 0.936438 -0.192961
C57   C     C_R   0.487968 0.657419 0.063581 -0.192957
C58   C     C_R   0.342583 0.487931 0.936436 -0.192944
C59   C     C_R   0.488080 0.342577 0.936356 -0.192945
C60   C     C_R   0.342583 0.512069 0.063562 -0.192960
C61   C     C_R   0.512032 0.657419 0.936418 -0.192957
C62   C     C_R   0.657417 0.487931 0.063564 -0.192946
C63   C     C_R   1.000000 0.773901 0.500000 0.111206
C64   C     C_R   0.511920 0.342577 0.063644 -0.192946
C65   C     C_R   0.134372 0.000000 0.500001 -0.031953
C66   C     C_R   1.000000 0.134373 0.500000 -0.031999
C67   C     C_R   0.865629 1.000000 0.499999 -0.031914
C68   C     C_R   1.000000 0.865629 0.500000 -0.031918
C69   C     C_R   0.634372 0.500000 0.000001 -0.031965
C70   C     C_R   0.500000 0.634374 1.000000 -0.031987
C71   C     C_R   0.365628 0.500000 0.999999 -0.031964
C72   C     C_R   0.500000 0.365623 0.000000 -0.032050
C73   C     C_R   0.413716 0.000000 0.500000 0.860899
C74   C     C_R   0.726102 0.500000 0.000001 0.111231
C75   C     C_R   0.000000 0.413717 0.500000 0.860882
C76   C     C_R   0.586284 0.000000 0.500000 0.860911
C77   C     C_R   0.000000 0.586284 0.500000 0.860921
C78   C     C_R   0.913717 0.500000 0.000000 0.860896
C79   C     C_R   0.500000 0.913717 1.000000 0.860886
C80   C     C_R   0.086283 0.500000 0.000000 0.860895
C81   C     C_R   0.500000 0.086282 0.000000 0.860859
C82   C     C_R   0.500000 0.000000 0.358973 0.936031
C83   C     C_R   1.000000 0.500000 0.358973 0.936028
C84   C     C_R   0.500000 1.000000 0.641027 0.936032
C85   C     C_R   0.500000 0.726103 1.000000 0.111247
C86   C     C_R   0.000000 0.500000 0.641027 0.936028
C87   C     C_R   0.000000 0.500000 0.858973 0.936022
C88   C     C_R   0.500000 1.000000 0.858973 0.936001
C89   C     C_R   1.000000 0.500000 0.141027 0.936022
C90   C     C_R   0.500000 0.000000 0.141027 0.936001
C91   C     C_R   1.000000 0.913572 0.500000 0.874175
C92   C     C_R   0.086429 1.000000 0.500000 0.874188
C93   C     C_R   1.000000 0.086429 0.500000 0.874203
C94   C     C_R   0.913572 1.000000 0.500000 0.874175
C95   C     C_R   0.500000 0.413570 0.000000 0.874233
C96   C     C_R   0.273898 0.500000 0.999999 0.111234
C97   C     C_R   0.586429 0.500000 0.000000 0.874217
C98   C     C_R   0.500000 0.586429 1.000000 0.874211
C99   C     C_R   0.413571 0.500000 1.000000 0.874217
C100  C     C_1   0.500000 0.000000 0.282427 -0.193467
C101  C     C_1   1.000000 0.500000 0.282427 -0.193461
C102  C     C_1   0.500000 1.000000 0.717573 -0.193467
C103  C     C_1   0.000000 0.500000 0.717573 -0.193461
C104  C     C_1   0.000000 0.500000 0.782427 -0.193460
C105  C     C_1   0.500000 1.000000 0.782427 -0.193461
C106  C     C_1   1.000000 0.500000 0.217573 -0.193460
C107  C     C_R   0.500000 0.273892 1.000000 0.111270
C108  C     C_1   0.500000 0.000000 0.217573 -0.193461
C109  C     C_R   0.296914 0.961995 0.521386 -0.177755
C110  C     C_R   0.037978 0.296917 0.478501 -0.177740
C111  C     C_R   0.703088 0.038021 0.521299 -0.177761
C112  C     C_R   0.038034 0.703089 0.521229 -0.177766
C113  C     C_R   0.703088 0.961979 0.478699 -0.177763
C114  C     C_R   0.962021 0.296917 0.521498 -0.177742
C115  C     C_R   0.296914 0.038006 0.478616 -0.177753
C116  C     C_R   0.961966 0.703089 0.478771 -0.177767
C117  C     C_R   0.796914 0.461995 0.021386 -0.177752
C118  C     C_R   0.203206 0.012341 0.436616 -0.176587
C119  C     C_R   0.537988 0.796916 0.978535 -0.177748
C120  C     C_R   0.203086 0.538004 0.021391 -0.177754
C121  C     C_R   0.537953 0.203080 0.021638 -0.177729
C122  C     C_R   0.203086 0.461996 0.978607 -0.177751
C123  C     C_R   0.462012 0.796916 0.021465 -0.177748
C124  C     C_R   0.796914 0.538005 0.978616 -0.177753
C125  C     C_R   0.462047 0.203080 0.978361 -0.177730
C126  C     C_R   0.342703 0.961884 0.520946 -0.189756
C127  C     C_R   0.038090 0.342706 0.478942 -0.189765
C128  C     C_R   0.657299 0.038132 0.520860 -0.189754
H1    H     H_    0.360013 0.932215 0.537550 0.155315
H2    H     H_    0.567753 0.860016 0.962308 0.155303
H3    H     H_    0.139987 0.567782 0.037561 0.155316
H4    H     H_    0.567691 0.139978 0.037999 0.155256
H5    H     H_    0.139987 0.432218 0.962438 0.155316
H6    H     H_    0.432247 0.860016 0.037691 0.155303
H7    H     H_    0.860013 0.567785 0.962452 0.155318
H8    H     H_    0.432309 0.139978 0.962001 0.155256
H9    H     H_    0.279322 0.932407 0.537626 0.133769
H10   H     H_    0.067546 0.279325 0.462173 0.133770
H11   H     H_    0.720681 0.067622 0.537471 0.133769
H12   H     H_    0.067737 0.360017 0.462249 0.155297
H13   H     H_    0.067644 0.720682 0.537345 0.133779
H14   H     H_    0.720680 0.932378 0.462526 0.133766
H15   H     H_    0.932454 0.279325 0.537826 0.133769
H16   H     H_    0.279321 0.067594 0.462377 0.133773
H17   H     H_    0.932356 0.720682 0.462655 0.133778
H18   H     H_    0.779321 0.432407 0.037625 0.133777
H19   H     H_    0.567562 0.779324 0.962232 0.133772
H20   H     H_    0.220678 0.567591 0.037635 0.133773
H21   H     H_    0.567500 0.220672 0.038078 0.133777
H22   H     H_    0.220678 0.432410 0.962363 0.133775
H23   H     H_    0.639990 0.067814 0.537397 0.155340
H24   H     H_    0.432437 0.779324 0.037767 0.133772
H25   H     H_    0.779321 0.567593 0.962377 0.133774
H26   H     H_    0.432500 0.220673 0.961922 0.133777
H27   H     H_    0.220798 0.021699 0.387276 0.133467
H28   H     H_    0.978383 0.220799 0.612755 0.133461
H29   H     H_    0.779204 0.978189 0.387331 0.133459
H30   H     H_    0.978152 0.779205 0.387363 0.133474
H31   H     H_    0.779204 0.021811 0.612666 0.133461
H32   H     H_    0.021616 0.220799 0.387244 0.133462
H33   H     H_    0.220798 0.978301 0.612726 0.133464
H34   H     H_    0.067836 0.639992 0.537271 0.155368
H35   H     H_    0.021847 0.779204 0.612637 0.133475
H36   H     H_    0.720798 0.521691 0.887274 0.133464
H37   H     H_    0.478377 0.720799 0.112763 0.133462
H38   H     H_    0.279202 0.478309 0.887271 0.133466
H39   H     H_    0.478579 0.279196 0.887124 0.133460
H40   H     H_    0.279202 0.521691 0.112727 0.133463
H41   H     H_    0.521622 0.720800 0.887237 0.133461
H42   H     H_    0.720798 0.478310 0.112729 0.133468
H43   H     H_    0.521421 0.279195 0.112875 0.133459
H44   H     H_    0.140094 0.021638 0.386965 0.152611
H45   H     H_    0.639989 0.932186 0.462601 0.155340
H46   H     H_    0.978442 0.140097 0.613065 0.152643
H47   H     H_    0.859909 0.978251 0.387021 0.152572
H48   H     H_    0.978215 0.859909 0.387052 0.152581
H49   H     H_    0.859909 0.021749 0.612978 0.152579
H50   H     H_    0.021558 0.140097 0.386935 0.152646
H51   H     H_    0.140094 0.978362 0.613036 0.152604
H52   H     H_    0.021785 0.859909 0.612949 0.152584
H53   H     H_    0.640094 0.521630 0.886962 0.152609
H54   H     H_    0.478437 0.640097 0.113073 0.152636
H55   H     H_    0.359905 0.478370 0.886961 0.152615
H56   H     H_    0.932263 0.360018 0.537751 0.155297
H57   H     H_    0.478639 0.359897 0.886812 0.152685
H58   H     H_    0.359906 0.521630 0.113038 0.152609
H59   H     H_    0.521563 0.640097 0.886926 0.152635
H60   H     H_    0.640095 0.478371 0.113039 0.152615
H61   H     H_    0.521361 0.359896 0.113188 0.152685
H62   H     H_    0.360013 0.067785 0.462451 0.155315
H63   H     H_    0.932164 0.639992 0.462729 0.155368
H64   H     H_    0.860013 0.432216 0.037549 0.155318
O1    O     O_R   0.434530 0.036970 0.500000 -0.626869
O2    O     O_R   0.463030 0.934530 0.000000 -0.626857
O3    O     O_R   0.065470 0.463030 0.000000 -0.626866
O4    O     O_R   0.536970 0.065470 0.000000 -0.626835
O5    O     O_R   0.065470 0.536970 0.000000 -0.626864
O6    O     O_R   0.536970 0.934530 0.000000 -0.626856
O7    O     O_R   0.934530 0.463030 0.000000 -0.626867
O8    O     O_R   0.463030 0.065470 0.000000 -0.626836
O9    O     O_R   0.500010 0.036970 0.392670 -0.618769
O10   O     O_R   0.963030 0.500010 0.392670 -0.618751
O11   O     O_R   0.499990 0.963030 0.392670 -0.618757
O12   O     O_R   0.963030 0.434530 0.500000 -0.626853
O13   O     O_R   0.036970 0.499990 0.392670 -0.618775
O14   O     O_R   0.499990 0.036970 0.607330 -0.618761
O15   O     O_R   0.036970 0.500010 0.607330 -0.618751
O16   O     O_R   0.500010 0.963030 0.607330 -0.618765
O17   O     O_R   0.963030 0.499990 0.607330 -0.618775
O18   O     O_R   0.000010 0.536970 0.892670 -0.618758
O19   O     O_R   0.463030 0.000010 0.892670 -0.618776
O20   O     O_R   0.999990 0.463030 0.892670 -0.618765
O21   O     O_R   0.536970 0.999990 0.892670 -0.618757
O22   O     O_R   0.999990 0.536970 0.107330 -0.618759
O23   O     O_R   0.565470 0.963030 0.500000 -0.626876
O24   O     O_R   0.536970 0.000010 0.107330 -0.618773
O25   O     O_R   0.000010 0.463030 0.107330 -0.618764
O26   O     O_R   0.463030 0.999990 0.107330 -0.618759
O27   O     O_R   0.999990 0.934550 0.439420 -0.625609
O28   O     O_R   0.065450 0.999990 0.439420 -0.625606
O29   O     O_R   0.000010 0.065450 0.439420 -0.625626
O30   O     O_R   0.934550 0.000010 0.439420 -0.625609
O31   O     O_R   0.000010 0.934550 0.560580 -0.625602
O32   O     O_R   0.934550 0.999990 0.560580 -0.625594
O33   O     O_R   0.999990 0.065450 0.560580 -0.625633
O34   O     O_R   0.036970 0.565470 0.500000 -0.626886
O35   O     O_R   0.065450 0.000010 0.560580 -0.625621
O36   O     O_R   0.499990 0.434550 0.939420 -0.625648
O37   O     O_R   0.565450 0.499990 0.939420 -0.625619
O38   O     O_R   0.500010 0.565450 0.939420 -0.625629
O39   O     O_R   0.434550 0.500010 0.939420 -0.625606
O40   O     O_R   0.500010 0.434550 0.060580 -0.625648
O41   O     O_R   0.434550 0.499990 0.060580 -0.625619
O42   O     O_R   0.499990 0.565450 0.060580 -0.625629
O43   O     O_R   0.565450 0.500010 0.060580 -0.625606
O44   O     O_R   0.565470 0.036970 0.500000 -0.626879
O45   O     O_R   0.036970 0.434530 0.500000 -0.626854
O46   O     O_R   0.434530 0.963030 0.500000 -0.626866
O47   O     O_R   0.963030 0.565470 0.500000 -0.626886
O48   O     O_R   0.934530 0.536970 0.000000 -0.626865
Zn1   Zn    Zn3+2 0.500000 0.049360 0.500000 0.953870
Zn2   Zn    Zn3+2 0.000000 0.000000 0.580910 0.943813
Zn3   Zn    Zn3+2 0.500000 0.500000 0.919090 0.943775
Zn4   Zn    Zn3+2 0.500000 0.500000 0.080910 0.943775
Zn5   Zn    Zn3+2 0.950640 0.500000 0.500000 0.953888
Zn6   Zn    Zn3+2 0.500000 0.950640 0.500000 0.953880
Zn7   Zn    Zn3+2 0.049360 0.500000 0.500000 0.953888
Zn8   Zn    Zn3+2 0.000000 0.549360 0.000000 0.953903
Zn9   Zn    Zn3+2 0.450640 0.000000 0.000000 0.953909
Zn10  Zn    Zn3+2 0.000000 0.450640 0.000000 0.953888
Zn11  Zn    Zn3+2 0.549360 0.000000 0.000000 0.953916
Zn12  Zn    Zn3+2 1.000000 0.000000 0.419090 0.943813

loop_
_geom_bond_atom_site_label_1
_geom_bond_atom_site_label_2
_ccdc_geom_bond_type
C61   C70   A    
O44   Zn1   S    
C65   C92   S    
C94   O32   A    
C29   C63   S    
C18   C75   S    
C31   C85   S    
C73   O1    A    
C5    C114  A    
C35   C53   A    
C84   C102  S    
C87   O20   A    
C45   C62   A    
C29   C112  A    
C81   O8    A    
C33   C107  S    
C86   O17   A    
O18   Zn8   S    
C11   H4    S    
O35   Zn2   S    
C90   O24   A    
C47   H44   S    
C111  H11   S    
O34   Zn7   S    
C54   C65   A    
C43   H40   S    
C54   H51   S    
O36   Zn3   S    
C12   C23   A    
C34   C51   A    
C79   O2    A    
C20   C77   S    
C122  H22   S    
C50   H48   S    
C19   C76   S    
C89   O25   A    
C32   C120  A    
C22   C79   S    
C127  H12   S    
O10   Zn5   S    
C82   O11   A    
C30   C74   S    
C24   H30   S    
C17   C126  A    
C15   H7    S    
C56   H53   S    
C11   C25   A    
C2    C41   A    
C119  H19   S    
C39   C57   A    
C99   O41   A    
C19   C128  A    
C35   H32   S    
C68   C91   S    
O9    Zn1   S    
C113  H14   S    
O45   Zn7   S    
C102  C105  T    
C109  H9    S    
C55   H52   S    
C92   O28   A    
C84   O16   A    
C95   O36   A    
C91   O31   A    
O38   Zn3   S    
O41   Zn4   S    
C3    H34   S    
C98   O38   A    
C4    C19   A    
O6    Zn11  S    
C47   C118  A    
C97   O37   A    
C92   O35   A    
C88   O19   A    
C89   C106  S    
C67   C94   S    
C2    H28   S    
C70   C98   S    
C93   O33   A    
C59   H57   S    
C23   C80   S    
C45   H42   S    
C83   C101  S    
C42   C107  A    
C5    H56   S    
C40   H38   S    
O12   Zn5   S    
C58   H55   S    
C115  H16   S    
C59   C72   A    
C37   H35   S    
C34   H31   S    
C112  H13   S    
C38   H36   S    
C77   O34   A    
C45   C74   A    
C79   O6    A    
C124  H25   S    
C53   H50   S    
C33   C121  A    
C72   C95   S    
C7    H63   S    
C11   C121  A    
C82   C100  S    
C40   C96   A    
C83   O10   A    
C118  H27   S    
C86   C103  S    
C13   H29   S    
C57   H54   S    
C37   C63   A    
C103  C104  T    
C8    C117  A    
C64   H61   S    
C48   H46   S    
C7    C20   A    
C28   C111  A    
C24   C50   A    
C6    C115  A    
C44   C61   A    
C100  C108  T    
C40   C58   A    
C88   O21   A    
C62   H60   S    
C46   H43   S    
C32   C122  A    
C4    C113  A    
C110  H10   S    
C101  C106  T    
C36   C54   A    
C95   O40   A    
C27   C110  A    
C15   C124  A    
C17   C73   S    
C55   C68   A    
C9    C22   A    
C5    C18   A    
C14   H6    S    
C60   C71   A    
C2    C48   A    
O33   Zn2   S    
C9    H2    S    
C71   C99   S    
C1    C26   S    
C62   C69   A    
C46   C64   A    
O3    Zn10  S    
O22   Zn8   S    
C7    C116  A    
C39   H37   S    
O39   Zn3   S    
C27   C114  A    
C8    C21   A    
C109  C126  A    
C78   O48   A    
C18   C127  A    
C13   C52   A    
C27   C41   S    
O7    Zn10  S    
C98   O42   A    
O29   Zn12  S    
C3    C112  A    
C128  H23   S    
C46   C107  A    
O46   Zn6   S    
C33   C125  A    
C43   C96   A    
O2    Zn9   S    
C38   C56   A    
C3    C20   A    
C76   O44   A    
C51   C67   A    
O19   Zn9   S    
C21   C78   S    
C53   C66   A    
C26   C109  A    
C31   C119  A    
C43   C60   A    
C66   C93   S    
C13   C49   A    
C16   C125  A    
C32   C96   S    
C29   C116  A    
C30   C124  A    
C120  H20   S    
C24   C63   A    
O27   Zn12  S    
O28   Zn12  S    
O8    Zn9   S    
C36   H33   S    
C57   C70   A    
O26   Zn9   S    
C75   O45   A    
O14   Zn1   S    
O25   Zn10  S    
C39   C85   A    
O20   Zn10  S    
C44   C85   A    
C6    C17   A    
O17   Zn5   S    
C69   C97   S    
C49   H47   S    
C6    H62   S    
C4    H45   S    
C125  H26   S    
C94   O30   A    
C38   C74   A    
C26   C115  A    
C16   C25   A    
C80   O3    A    
C123  H24   S    
C60   H58   S    
C14   C123  A    
C49   C67   A    
O40   Zn4   S    
O1    Zn1   S    
C10   H3    S    
O13   Zn7   S    
C25   C81   S    
O15   Zn7   S    
C42   C59   A    
C82   O9    A    
C99   O39   A    
C75   O12   A    
C30   C117  A    
C10   C23   A    
C9    C119  A    
C110  C127  A    
O5    Zn8   S    
C34   C52   A    
C126  H1    S    
O47   Zn5   S    
C44   H41   S    
C114  H15   S    
C14   C22   A    
C86   O15   A    
C90   C108  S    
C73   O46   A    
C83   O13   A    
C81   O4    A    
C88   C105  S    
C28   C52   S    
C76   O23   A    
O32   Zn2   S    
C116  H17   S    
O11   Zn6   S    
C8    H64   S    
O24   Zn11  S    
O37   Zn3   S    
C80   O5    A    
O4    Zn11  S    
C87   O18   A    
C121  H21   S    
O21   Zn11  S    
C1    C118  A    
C64   C72   A    
C91   O27   A    
C35   C41   A    
O16   Zn6   S    
O43   Zn4   S    
C90   O26   A    
C10   C120  A    
C28   C113  A    
C31   C123  A    
C87   C104  S    
C37   C55   A    
C61   H59   S    
C84   O14   A    
C42   H39   S    
C15   C21   A    
C12   C122  A    
O23   Zn6   S    
C56   C69   A    
C78   O7    A    
O42   Zn4   S    
C111  C128  A    
O48   Zn8   S    
C58   C71   A    
C117  H18   S    
C93   O29   A    
O31   Zn2   S    
C48   C66   A    
C51   H49   S    
C50   C68   A    
C47   C65   A    
C12   H5    S    
C77   O47   A    
C1    C36   A    
O30   Zn12  S    
C89   O22   A    
C97   O43   A    
C16   H8    S    
