data_mof_unit_30771.cif
_audit_creation_date              2012-12-10T19:16:25-0500
_audit_creation_method            fapswitch 2.2
_symmetry_space_group_name_H-M    P1
_symmetry_Int_Tables_number       1
_space_group_crystal_system       triclinic
_cell_length_a                    10.710778
_cell_length_b                    9.724404
_cell_length_c                    27.550116
_cell_angle_alpha                 90.913904
_cell_angle_beta                  90.19144
_cell_angle_gamma                 89.382609
_cell_volume                      2868.96201066

loop_
_atom_site_label
_atom_site_type_symbol
_atom_type_description
_atom_site_fract_x
_atom_site_fract_y
_atom_site_fract_z
_atom_type_partial_charge
C1    C     C_R   0.257876 0.500873 0.500286 0.846465
C2    C     C_R   0.444629 0.558190 0.271842 -0.196177
C3    C     C_R   0.525690 0.458102 0.252247 0.251871
C4    C     C_R   0.545584 0.398525 0.101167 -0.049436
C5    C     C_R   0.441662 0.351418 0.126989 -0.020413
C6    C     C_R   0.345849 0.283269 0.102202 -0.131795
C7    C     C_R   0.643148 0.464795 0.126248 -0.012369
C8    C     C_R   0.506572 0.493543 0.352907 -0.075543
C9    C     C_R   0.504713 0.498362 0.648046 -0.161974
C10   C     C_R   0.458775 0.299236 0.973938 0.046679
C11   C     C_R   0.639806 0.452062 0.973677 0.052729
C12   C     C_R   0.498659 0.498977 0.405871 0.964349
C13   C     C_R   0.546577 0.378204 0.948288 0.075113
C14   C     C_R   0.375951 0.214963 0.947262 -0.190566
C15   C     C_R   0.372462 0.217944 0.896908 -0.102752
C16   C     C_R   0.449587 0.306981 0.871619 -0.022778
C17   C     C_R   0.537842 0.387464 0.897148 -0.047727
C18   C     C_R   0.614700 0.479470 0.871760 -0.105153
C19   C     C_R   0.593411 0.494317 0.821575 0.536009
C20   C     C_R   0.439970 0.318057 0.821181 0.542169
C21   C     C_R   0.400045 0.496169 0.726401 -0.092400
C22   C     C_R   0.401446 0.536584 0.677764 -0.087542
C23   C     C_R   0.742645 0.499370 0.498563 0.909176
C24   C     C_R   0.608675 0.432740 0.669558 -0.064749
C25   C     C_R   0.603213 0.390020 0.717446 -0.119962
C26   C     C_R   0.500328 0.423252 0.746051 0.240698
C27   C     C_R   0.453619 0.312123 0.025192 0.052217
C28   C     C_R   0.550993 0.381587 0.050198 0.049856
C29   C     C_R   0.652782 0.436593 0.024496 0.042172
C30   C     C_R   0.351731 0.263350 0.052198 -0.198618
C31   C     C_R   0.751113 0.500768 0.101329 -0.224694
C32   C     C_R   0.710929 0.547650 0.948281 -0.174860
C33   C     C_R   0.703882 0.558314 0.897996 -0.024346
C34   C     C_R   0.498392 0.500928 0.594387 0.895388
C35   C     C_R   0.760307 0.479082 0.051267 -0.035418
C36   C     C_3   0.067401 0.648451 0.514304 -0.182776
C37   C     C_3   0.072601 0.388099 0.535670 -0.190276
C38   C     C_3   0.925376 0.642961 0.515286 -0.435769
C39   C     C_3   0.928796 0.387649 0.533674 -0.346398
C40   C     C_3   0.074851 0.465580 0.448920 -0.402468
C41   C     C_3   0.121593 0.501961 0.501134 -0.010948
C42   C     C_3   0.879266 0.499053 0.498620 0.076722
C43   C     C_3   0.930914 0.467927 0.447244 -0.386889
C44   C     C_3   0.391782 0.080994 0.471420 -0.282596
C45   C     C_3   0.392029 0.919172 0.471287 -0.257687
C46   C     C_3   0.617820 0.079005 0.478109 -0.127151
C47   C     C_3   0.617514 0.915465 0.477710 -0.153684
C48   C     C_3   0.489957 0.083585 0.548922 -0.255727
C49   C     C_3   0.490447 0.921287 0.548900 -0.225990
C50   C     C_R   0.436244 0.373955 0.177257 0.568599
C51   C     C_R   0.633046 0.487008 0.176396 0.565200
C52   C     C_R   0.600338 0.376352 0.282853 0.008071
C53   C     C_R   0.591570 0.398127 0.332862 -0.304612
C54   C     C_R   0.431853 0.575802 0.322066 -0.018833
H1    H     H_    0.831340 0.539257 0.121227 0.188239
H2    H     H_    0.772441 0.617191 0.967541 0.166979
H3    H     H_    0.684671 0.343921 0.734429 0.184874
H4    H     H_    0.094198 0.719413 0.484708 0.199570
H5    H     H_    0.104296 0.286448 0.520742 0.153320
H6    H     H_    0.887169 0.668487 0.551839 0.185863
H7    H     H_    0.886734 0.403755 0.569513 0.229692
H8    H     H_    0.388340 0.619550 0.247392 0.141828
H9    H     H_    0.889186 0.723861 0.490702 0.229037
H10   H     H_    0.897880 0.284058 0.521007 0.187415
H11   H     H_    0.110926 0.540348 0.422434 0.232131
H12   H     H_    0.109938 0.361998 0.437309 0.192690
H13   H     H_    0.897668 0.547369 0.421446 0.220463
H14   H     H_    0.897609 0.367134 0.433579 0.242339
H15   H     H_    0.390369 0.118910 0.433675 0.146910
H16   H     H_    0.391539 0.878911 0.433446 0.172209
H17   H     H_    0.303023 0.119320 0.487841 0.181824
H18   H     H_    0.303239 0.883431 0.487205 0.216778
H19   H     H_    0.568642 0.121830 0.571694 0.171989
H20   H     H_    0.569369 0.883292 0.571555 0.174791
H21   H     H_    0.403072 0.123399 0.566468 0.184816
H22   H     H_    0.403984 0.885175 0.566445 0.251307
H23   H     H_    0.696464 0.111166 0.502251 0.156769
H24   H     H_    0.696635 0.882518 0.501375 0.154521
H25   H     H_    0.264886 0.246292 0.121294 0.194282
H26   H     H_    0.325087 0.529363 0.750331 0.194369
H27   H     H_    0.306357 0.152688 0.877937 0.199040
H28   H     H_    0.313726 0.144281 0.964467 0.152672
H29   H     H_    0.272188 0.214829 0.035355 0.157598
H30   H     H_    0.650412 0.338422 0.356677 0.213182
N1    N     N_R   0.531138 0.440771 0.200703 -0.338597
N2    N     N_R   0.511138 0.410726 0.797511 -0.351193
N3    N     N_3   0.499750 0.138610 0.498940 -0.083000
N4    N     N_3   0.499750 0.861390 0.498940 -0.095265
O1    O     O_R   0.314910 0.616040 0.499990 -0.588557
O2    O     O_R   0.314910 0.383960 0.499990 -0.653013
O3    O     O_R   0.500140 0.616020 0.428740 -0.591231
O4    O     O_R   0.500140 0.383980 0.428740 -0.645626
O5    O     O_R   0.685320 0.616040 0.499970 -0.610957
O6    O     O_R   0.685320 0.383960 0.499970 -0.624730
O7    O     O_R   0.500090 0.616050 0.571230 -0.562693
O8    O     O_R   0.500090 0.383950 0.571230 -0.648400
O9    O     O_2   0.337753 0.328591 0.202658 -0.546386
O10   O     O_2   0.359528 0.238178 0.795969 -0.521026
O11   O     O_2   0.724455 0.553183 0.200860 -0.548487
O12   O     O_2   0.650606 0.594141 0.796830 -0.506263
Zn1   Zn    Zn3+2 0.500150 0.654960 0.499980 0.995910
Zn2   Zn    Zn3+2 0.500150 0.345040 0.499980 0.928720
C55   C     C_2   0.335988 0.676151 0.339528 0.369224
H31   H     H_    0.300916 0.754266 0.315120 0.088833
O13   O     O_2   0.291096 0.670233 0.380042 -0.606972
C56   C     C_2   0.685536 0.266001 0.263895 0.946926
O14   O     O_2   0.772834 0.225596 0.288833 -0.585952
O15   O     O_R   0.665101 0.205480 0.218215 -0.808137
H32   H     H_    0.729392 0.131717 0.209786 0.357980
C57   C     C_2   0.732824 0.437983 0.647445 0.921970
O16   O     O_2   0.804586 0.339827 0.650460 -0.575368
O17   O     O_R   0.772795 0.562783 0.628833 -0.811986
H33   H     H_    0.866910 0.567761 0.626474 0.352765
C58   C     C_2   0.796795 0.648443 0.875158 1.020111
O18   O     O_2   0.865708 0.602541 0.843367 -0.544067
O19   O     O_R   0.810300 0.783745 0.892114 -0.799185
H34   H     H_    0.878173 0.834453 0.874390 0.359527
C59   C     C_2   0.887949 0.483105 0.030495 0.383857
H35   H     H_    0.959132 0.545549 0.047922 0.072030
O20   O     O_2   0.916786 0.411253 0.995452 -0.540205
C60   C     C_2   0.112920 0.711328 0.561226 0.444825
H36   H     H_    0.095469 0.660802 0.595039 0.103395
O21   O     O_2   0.162204 0.823901 0.561717 -0.565333
C61   C     C_2   0.127694 0.394566 0.586581 0.387716
H37   H     H_    0.228245 0.395720 0.591193 0.058408
O22   O     O_2   0.062606 0.395142 0.622848 -0.498161
C62   C     C_2   0.647087 0.137221 0.428970 0.478921
H38   H     H_    0.578609 0.135042 0.399949 0.042878
O23   O     O_2   0.751277 0.179663 0.420461 -0.596516
C63   C     C_2   0.644236 0.852395 0.427963 0.522568
H39   H     H_    0.579302 0.866542 0.398140 0.036230
O24   O     O_2   0.741146 0.788776 0.420229 -0.590458
C64   C     C_2   0.301684 0.632042 0.662043 0.890674
O25   O     O_2   0.323326 0.718067 0.631568 -0.611930
O26   O     O_R   0.186025 0.632357 0.685548 -0.753104
H40   H     H_    0.129933 0.711770 0.675679 0.359426

loop_
_geom_bond_atom_site_label_1
_geom_bond_atom_site_label_2
_ccdc_geom_bond_type
C10   C27   A    
C21   C26   A    
C1    O2    A    
O8    Zn2   S    
C3    N1    S    
C12   O3    A    
C48   H21   S    
C19   N2    A    
C51   N1    A    
C38   H9    S    
C58   O18   D    
O26   H40   S    
C15   H27   S    
O15   H32   S    
C39   H10   S    
C33   C58   S    
C23   C42   S    
C53   H30   S    
C28   C29   A    
C34   O8    A    
C38   C42   S    
C36   H4    S    
C5    C6    A    
C9    C22   A    
C56   O14   D    
C15   C16   A    
C37   C61   S    
O19   H34   S    
C44   H17   S    
C18   C19   A    
C30   H29   S    
C57   O16   D    
O2    Zn2   S    
C50   N1    A    
C59   H35   S    
C40   C43   S    
C43   H14   S    
C20   N2    A    
C44   N3    S    
C8    C12   S    
C52   C56   S    
C40   H12   S    
C21   C22   A    
C27   C30   A    
C49   N4    S    
C36   C41   S    
C25   H3    S    
O3    Zn1   S    
C4    C7    A    
O17   H33   S    
C4    C28   A    
N4    Zn1   S    
C39   C42   S    
C57   O17   S    
C51   O11   S    
C39   H7    S    
C49   H22   S    
C7    C31   A    
C22   C64   S    
C54   C55   S    
C45   N4    S    
C24   C57   S    
C24   C25   A    
C10   C14   A    
C8    C54   A    
C16   C17   A    
C26   N2    S    
C47   C63   S    
C25   C26   A    
C23   O5    A    
C63   O24   D    
C62   O23   D    
N3    Zn2   S    
C46   C62   S    
C63   H39   S    
C16   C20   A    
C17   C18   A    
C48   N3    S    
C44   H15   S    
C55   O13   D    
C34   O7    A    
O6    Zn2   S    
C60   H36   S    
C37   H5    S    
C38   H6    S    
C1    C41   S    
C48   C49   S    
C6    C30   A    
C11   C32   A    
C40   H11   S    
C2    C54   A    
C9    C34   S    
C31   C35   A    
C5    C50   A    
C42   C43   S    
C14   H28   S    
O5    Zn1   S    
C62   H38   S    
C55   H31   S    
C52   C53   A    
C61   O22   D    
C46   N3    S    
C46   C47   S    
C40   C41   S    
C50   O9    S    
C1    O1    A    
O1    Zn1   S    
C45   H16   S    
C14   C15   A    
C48   H19   S    
C12   O4    A    
C44   C45   S    
C4    C5    A    
C10   C13   A    
C8    C53   A    
C46   H23   S    
C58   O19   S    
C3    C52   A    
C9    C24   A    
O4    Zn2   S    
C29   C35   A    
C23   O6    A    
C13   C17   A    
C47   N4    S    
C36   C38   S    
C36   C60   S    
C7    C51   A    
C37   C39   S    
C32   C33   A    
C19   O12   S    
C11   C13   A    
C6    H25   S    
C64   O25   D    
C56   O15   S    
C21   H26   S    
C2    C3    A    
C37   C41   S    
C18   C33   A    
C59   O20   D    
C60   O21   D    
C2    H8    S    
C20   O10   S    
C11   C29   A    
C43   H13   S    
C27   C28   A    
C64   O26   S    
C49   H20   S    
C35   C59   S    
C47   H24   S    
C31   H1    S    
C32   H2    S    
O7    Zn1   S    
C61   H37   S    
C45   H18   S    
