data_mof_unit_60044.cif
_audit_creation_date              2012-12-10T20:26:44-0500
_audit_creation_method            fapswitch 2.2
_symmetry_space_group_name_H-M    P1
_symmetry_Int_Tables_number       1
_space_group_crystal_system       triclinic
_cell_length_a                    36.331391
_cell_length_b                    36.331692
_cell_length_c                    36.331724
_cell_angle_alpha                 89.999964
_cell_angle_beta                  89.999964
_cell_angle_gamma                 90.002865
_cell_volume                      47957.1819654

loop_
_atom_site_label
_atom_site_type_symbol
_atom_type_description
_atom_site_fract_x
_atom_site_fract_y
_atom_site_fract_z
_atom_type_partial_charge
C1    C     C_1   0.749995 0.421778 0.250008 -0.055633
C2    C     C_1   0.578222 0.750005 0.249992 -0.055678
C3    C     C_R   0.150912 0.249999 0.250000 0.508974
C4    C     C_R   0.250000 0.750000 0.849088 0.508981
C5    C     C_R   0.750000 0.250000 0.150912 0.508984
C6    C     C_R   0.150912 0.749999 0.250000 0.508982
C7    C     C_R   0.849088 0.250001 0.750000 0.508977
C8    C     C_R   0.750000 0.250000 0.849088 0.508979
C9    C     C_R   0.250000 0.750000 0.150912 0.508980
C10   C     C_R   0.849088 0.250001 0.250000 0.508970
C11   C     C_R   0.150912 0.749999 0.750000 0.508983
C12   C     C_R   0.250000 0.250000 0.150911 0.508989
C13   C     C_1   0.421778 0.749995 0.749992 -0.055668
C14   C     C_R   0.750000 0.750000 0.849089 0.508991
C15   C     C_R   0.150912 0.249999 0.750000 0.508975
C16   C     C_R   0.849088 0.750000 0.250000 0.508977
C17   C     C_R   0.749999 0.150912 0.750000 0.509000
C18   C     C_R   0.250001 0.849088 0.250000 0.508995
C19   C     C_R   0.750001 0.849088 0.250000 0.508996
C20   C     C_R   0.249999 0.150912 0.750000 0.509000
C21   C     C_R   0.250001 0.849088 0.750000 0.508995
C22   C     C_R   0.749999 0.150912 0.250000 0.509000
C23   C     C_R   0.249999 0.150912 0.250000 0.509000
C24   C     C_1   0.578222 0.250005 0.250008 -0.055691
C25   C     C_R   0.750000 0.849088 0.750000 0.508995
C26   C     C_R   0.250000 0.750000 0.650911 0.508994
C27   C     C_R   0.750000 0.250000 0.349089 0.508993
C28   C     C_R   0.349088 0.750000 0.250000 0.508982
C29   C     C_R   0.650912 0.249999 0.750000 0.508977
C30   C     C_R   0.750000 0.750000 0.349088 0.508984
C31   C     C_R   0.250000 0.250000 0.650912 0.508982
C32   C     C_R   0.650912 0.749999 0.750000 0.508984
C33   C     C_R   0.349088 0.250001 0.250000 0.508974
C34   C     C_R   0.250000 0.250000 0.349088 0.508981
C35   C     C_1   0.421778 0.749995 0.250008 -0.055671
C36   C     C_R   0.750000 0.750000 0.650912 0.508978
C37   C     C_R   0.349088 0.250000 0.750000 0.508975
C38   C     C_R   0.650912 0.749999 0.250000 0.508977
C39   C     C_R   0.750000 0.250000 0.650911 0.508988
C40   C     C_R   0.250000 0.750000 0.349089 0.508993
C41   C     C_R   0.650912 0.249999 0.250000 0.508970
C42   C     C_R   0.349088 0.750000 0.750000 0.508983
C43   C     C_R   0.749999 0.650912 0.250000 0.508996
C44   C     C_R   0.250001 0.349088 0.750000 0.508999
C45   C     C_R   0.750001 0.349088 0.750000 0.509001
C46   C     C_1   0.578222 0.250005 0.749992 -0.055680
C47   C     C_R   0.249999 0.650912 0.250000 0.508994
C48   C     C_R   0.250001 0.349088 0.250000 0.508999
C49   C     C_R   0.749999 0.650912 0.750000 0.508997
C50   C     C_R   0.249999 0.650912 0.750000 0.508994
C51   C     C_R   0.750000 0.349088 0.250000 0.509000
C52   C     C_R   0.725859 0.480745 0.226952 -0.104642
C53   C     C_R   0.273641 0.519255 0.773550 -0.104660
C54   C     C_R   0.773640 0.480749 0.726447 -0.104647
C55   C     C_R   0.226364 0.519251 0.273556 -0.104646
C56   C     C_R   0.273636 0.480749 0.773556 -0.104649
C57   C     C_1   0.421778 0.249995 0.249992 -0.055686
C58   C     C_R   0.725864 0.519251 0.226946 -0.104636
C59   C     C_R   0.226359 0.480745 0.273550 -0.104652
C60   C     C_R   0.773645 0.519255 0.726453 -0.104654
C61   C     C_R   0.726360 0.519251 0.773553 -0.104641
C62   C     C_R   0.273636 0.480749 0.226444 -0.104651
C63   C     C_R   0.774141 0.519255 0.273048 -0.104651
C64   C     C_R   0.226359 0.480745 0.726450 -0.104651
C65   C     C_R   0.273641 0.519255 0.226450 -0.104661
C66   C     C_R   0.726355 0.480745 0.773547 -0.104646
C67   C     C_R   0.226363 0.519251 0.726444 -0.104645
C68   C     C_1   0.578222 0.750005 0.750008 -0.055666
C69   C     C_R   0.774136 0.480749 0.273054 -0.104642
C70   C     C_R   0.480745 0.226423 0.726386 -0.104669
C71   C     C_R   0.519255 0.773509 0.273682 -0.104663
C72   C     C_R   0.480745 0.726442 0.773633 -0.104660
C73   C     C_R   0.519255 0.273537 0.226346 -0.104679
C74   C     C_R   0.480749 0.773504 0.273688 -0.104673
C75   C     C_R   0.519251 0.226428 0.726380 -0.104673
C76   C     C_R   0.480749 0.273532 0.226340 -0.104682
C77   C     C_R   0.519251 0.726446 0.773639 -0.104672
C78   C     C_R   0.519255 0.773558 0.726367 -0.104657
C79   C     C_1   0.250000 0.750000 0.421779 -0.055644
C80   C     C_R   0.480745 0.226463 0.273654 -0.104673
C81   C     C_R   0.519255 0.273577 0.773614 -0.104674
C82   C     C_R   0.480745 0.726491 0.226318 -0.104663
C83   C     C_R   0.519251 0.226468 0.273660 -0.104678
C84   C     C_R   0.480749 0.773553 0.726361 -0.104669
C85   C     C_R   0.519251 0.726495 0.226312 -0.104678
C86   C     C_R   0.480749 0.273572 0.773620 -0.104678
C87   C     C_R   0.225328 0.727510 0.480747 -0.104648
C88   C     C_R   0.774724 0.272433 0.519253 -0.104649
C89   C     C_R   0.726728 0.773919 0.480747 -0.104660
C90   C     C_1   0.750000 0.250000 0.578221 -0.055653
C91   C     C_R   0.274000 0.226808 0.519253 -0.104656
C92   C     C_R   0.774724 0.272434 0.480747 -0.104647
C93   C     C_R   0.225328 0.727510 0.519253 -0.104647
C94   C     C_R   0.274000 0.226808 0.480747 -0.104656
C95   C     C_R   0.726728 0.773919 0.519253 -0.104663
C96   C     C_R   0.773272 0.726081 0.519253 -0.104654
C97   C     C_R   0.226000 0.273192 0.480747 -0.104657
C98   C     C_R   0.274672 0.772490 0.519253 -0.104647
C99   C     C_R   0.725276 0.227566 0.480747 -0.104655
C100  C     C_R   0.226000 0.273192 0.519253 -0.104656
C101  C     C_1   0.750000 0.750000 0.421778 -0.055653
C102  C     C_R   0.773272 0.726081 0.480747 -0.104652
C103  C     C_R   0.725275 0.227566 0.519253 -0.104657
C104  C     C_R   0.274672 0.772490 0.480747 -0.104647
C105  C     C_R   0.226356 0.980745 0.226453 -0.104659
C106  C     C_R   0.773170 0.019255 0.774023 -0.104643
C107  C     C_R   0.773653 0.980749 0.226460 -0.104644
C108  C     C_R   0.226366 0.019251 0.773559 -0.104648
C109  C     C_R   0.773165 0.980749 0.774029 -0.104638
C110  C     C_R   0.226361 0.019251 0.226447 -0.104649
C111  C     C_R   0.226361 0.980745 0.773552 -0.104658
C112  C     C_1   0.250005 0.578222 0.749992 -0.055649
C113  C     C_1   0.250000 0.250000 0.578222 -0.055655
C114  C     C_R   0.773657 0.019255 0.226466 -0.104649
C115  C     C_R   0.980745 0.226484 0.226325 -0.104674
C116  C     C_R   0.019255 0.773568 0.773623 -0.104658
C117  C     C_R   0.980745 0.226432 0.773623 -0.104669
C118  C     C_R   0.019255 0.773525 0.226334 -0.104661
C119  C     C_R   0.980749 0.773563 0.773629 -0.104666
C120  C     C_R   0.019251 0.226489 0.226319 -0.104680
C121  C     C_R   0.980749 0.773520 0.226328 -0.104672
C122  C     C_R   0.019251 0.226437 0.773629 -0.104676
C123  C     C_R   0.225271 0.227571 0.980747 -0.104653
C124  C     C_1   0.750000 0.250000 0.421779 -0.055646
C125  C     C_R   0.774729 0.772429 0.019253 -0.104647
C126  C     C_R   0.226930 0.774107 0.980747 -0.104661
C127  C     C_R   0.774108 0.226930 0.019253 -0.104664
C128  C     C_R   0.774729 0.772429 0.980747 -0.104650
C129  C     C_R   0.225271 0.227571 0.019253 -0.104653
C130  C     C_R   0.774107 0.226930 0.980747 -0.104665
C131  C     C_R   0.226930 0.774107 0.019253 -0.104661
C132  C     C_R   0.726830 0.980745 0.725977 -0.104652
C133  C     C_R   0.273644 0.019255 0.273547 -0.104650
C134  C     C_R   0.273634 0.980749 0.726441 -0.104642
C135  C     C_1   0.250000 0.750000 0.578221 -0.055643
C136  C     C_R   0.726347 0.019251 0.273540 -0.104650
C137  C     C_R   0.273639 0.980749 0.273553 -0.104643
C138  C     C_R   0.726835 0.019251 0.725970 -0.104644
C139  C     C_R   0.726343 0.980745 0.273534 -0.104658
C140  C     C_R   0.273639 0.019255 0.726448 -0.104649
C141  C     C_R   0.980745 0.726432 0.726377 -0.104662
C142  C     C_R   0.019255 0.273516 0.273675 -0.104676
C143  C     C_R   0.980745 0.726475 0.273666 -0.104668
C144  C     C_R   0.019255 0.273568 0.726377 -0.104672
C145  C     C_R   0.980749 0.273511 0.273681 -0.104684
C146  C     C_1   0.250000 0.250000 0.421778 -0.055656
C147  C     C_R   0.019251 0.726437 0.726371 -0.104671
C148  C     C_R   0.980749 0.273563 0.726371 -0.104678
C149  C     C_R   0.019251 0.726480 0.273672 -0.104675
C150  C     C_R   0.725271 0.727571 0.980747 -0.104642
C151  C     C_R   0.274729 0.272429 0.019253 -0.104654
C152  C     C_R   0.725892 0.273069 0.980747 -0.104658
C153  C     C_R   0.273070 0.725893 0.019253 -0.104662
C154  C     C_R   0.274729 0.272429 0.980747 -0.104653
C155  C     C_R   0.725271 0.727571 0.019253 -0.104640
C156  C     C_R   0.273070 0.725892 0.980747 -0.104661
C157  C     C_1   0.750000 0.750000 0.578222 -0.055660
C158  C     C_R   0.725892 0.273070 0.019253 -0.104656
C159  C     C_R   0.749995 0.461407 0.250006 0.035684
C160  C     C_R   0.250005 0.538593 0.749994 0.035653
C161  C     C_R   0.749995 0.461407 0.749994 0.035654
C162  C     C_R   0.250005 0.538593 0.250006 0.035653
C163  C     C_R   0.249995 0.461407 0.750006 0.035654
C164  C     C_R   0.750004 0.538593 0.249994 0.035683
C165  C     C_R   0.249995 0.461407 0.249994 0.035654
C166  C     C_R   0.750005 0.538593 0.750006 0.035654
C167  C     C_R   0.461407 0.249995 0.750006 0.035654
C168  C     C_1   0.249995 0.921778 0.250008 -0.055648
C169  C     C_R   0.538593 0.750005 0.249994 0.035654
C170  C     C_R   0.461407 0.749995 0.749994 0.035654
C171  C     C_R   0.538593 0.250005 0.250006 0.035654
C172  C     C_R   0.461407 0.749995 0.250006 0.035655
C173  C     C_R   0.538593 0.250005 0.749994 0.035654
C174  C     C_R   0.461407 0.249995 0.249994 0.035654
C175  C     C_R   0.538593 0.750005 0.750006 0.035654
C176  C     C_R   0.250000 0.750000 0.461407 0.035715
C177  C     C_R   0.750000 0.250000 0.538593 0.035719
C178  C     C_R   0.750000 0.750000 0.461407 0.035668
C179  C     C_1   0.750005 0.078222 0.749992 -0.055634
C180  C     C_R   0.250000 0.250000 0.538593 0.035676
C181  C     C_R   0.750000 0.250000 0.461407 0.035720
C182  C     C_R   0.250000 0.750000 0.538593 0.035715
C183  C     C_R   0.250000 0.250000 0.461407 0.035676
C184  C     C_R   0.750000 0.750000 0.538593 0.035668
C185  C     C_R   0.249995 0.961407 0.250006 0.035653
C186  C     C_R   0.750005 0.038593 0.749994 0.035683
C187  C     C_R   0.749995 0.961407 0.249994 0.035653
C188  C     C_R   0.250005 0.038593 0.750006 0.035654
C189  C     C_R   0.749995 0.961407 0.750006 0.035683
C190  C     C_1   0.749995 0.921778 0.249992 -0.055647
C191  C     C_R   0.250005 0.038593 0.249994 0.035654
C192  C     C_R   0.249995 0.961407 0.749994 0.035653
C193  C     C_R   0.750005 0.038593 0.250006 0.035654
C194  C     C_R   0.961407 0.249995 0.250006 0.035654
C195  C     C_R   0.038593 0.750005 0.749994 0.035654
C196  C     C_R   0.961407 0.249995 0.749994 0.035654
C197  C     C_R   0.038593 0.750005 0.250006 0.035654
C198  C     C_R   0.961407 0.749995 0.750006 0.035655
C199  C     C_R   0.038593 0.250005 0.249994 0.035654
C200  C     C_R   0.961407 0.749995 0.249994 0.035654
C201  C     C_1   0.250005 0.078222 0.750008 -0.055640
C202  C     C_R   0.038593 0.250005 0.750006 0.035654
C203  C     C_R   0.250000 0.250000 0.961407 0.035720
C204  C     C_R   0.750000 0.750000 0.038593 0.035721
C205  C     C_R   0.250000 0.750000 0.961407 0.035648
C206  C     C_R   0.750000 0.250000 0.038593 0.035649
C207  C     C_R   0.750000 0.750000 0.961407 0.035720
C208  C     C_R   0.250000 0.250000 0.038593 0.035720
C209  C     C_R   0.750000 0.250000 0.961407 0.035648
C210  C     C_R   0.250000 0.750000 0.038593 0.035648
C211  C     C_1   0.749995 0.921778 0.750008 -0.055640
C212  C     C_1   0.749995 0.421778 0.749992 -0.055637
C213  C     C_1   0.250005 0.078222 0.249992 -0.055641
C214  C     C_1   0.249995 0.921778 0.749992 -0.055647
C215  C     C_1   0.750005 0.078222 0.250008 -0.055641
C216  C     C_1   0.921778 0.249995 0.250008 -0.055691
C217  C     C_1   0.078222 0.750005 0.749992 -0.055668
C218  C     C_1   0.921778 0.249995 0.749992 -0.055680
C219  C     C_1   0.078222 0.750005 0.250008 -0.055671
C220  C     C_1   0.921778 0.749995 0.750008 -0.055666
C221  C     C_1   0.078222 0.250005 0.249992 -0.055687
C222  C     C_1   0.921778 0.749995 0.249992 -0.055677
C223  C     C_1   0.250005 0.578222 0.250008 -0.055650
C224  C     C_1   0.078222 0.250005 0.750008 -0.055683
C225  C     C_1   0.250000 0.250000 0.921779 -0.055650
C226  C     C_1   0.750000 0.750000 0.078221 -0.055637
C227  C     C_1   0.250000 0.750000 0.921778 -0.055659
C228  C     C_1   0.750000 0.250000 0.078222 -0.055656
C229  C     C_1   0.750000 0.750000 0.921779 -0.055644
C230  C     C_1   0.250000 0.250000 0.078221 -0.055652
C231  C     C_1   0.750000 0.250000 0.921778 -0.055663
C232  C     C_1   0.250000 0.750000 0.078222 -0.055661
C233  C     C_1   0.750003 0.611414 0.249994 0.002774
C234  C     C_1   0.249995 0.421778 0.750008 -0.055642
C235  C     C_1   0.249997 0.388586 0.750006 0.002780
C236  C     C_1   0.750003 0.611414 0.750006 0.002779
C237  C     C_1   0.249997 0.388586 0.249994 0.002779
C238  C     C_1   0.250003 0.611414 0.749994 0.002772
C239  C     C_1   0.749997 0.388586 0.250006 0.002781
C240  C     C_1   0.250003 0.611414 0.250006 0.002770
C241  C     C_1   0.749997 0.388586 0.749994 0.002785
C242  C     C_1   0.611414 0.250003 0.749994 0.002740
C243  C     C_1   0.388586 0.749996 0.250006 0.002750
C244  C     C_1   0.611414 0.750003 0.750006 0.002756
C245  C     C_1   0.750005 0.578222 0.249992 -0.055638
C246  C     C_1   0.388586 0.249996 0.249994 0.002733
C247  C     C_1   0.611414 0.750003 0.249994 0.002742
C248  C     C_1   0.388586 0.249996 0.750006 0.002736
C249  C     C_1   0.611414 0.250003 0.250006 0.002726
C250  C     C_1   0.388586 0.749996 0.749994 0.002753
C251  C     C_1   0.250000 0.750000 0.611413 0.002754
C252  C     C_1   0.750000 0.250000 0.388587 0.002749
C253  C     C_1   0.750000 0.750000 0.611414 0.002756
C254  C     C_1   0.250000 0.250000 0.388586 0.002758
C255  C     C_1   0.750000 0.250000 0.611413 0.002740
C256  C     C_1   0.249995 0.421778 0.249992 -0.055644
C257  C     C_1   0.250000 0.750000 0.388587 0.002752
C258  C     C_1   0.250000 0.250000 0.611414 0.002760
C259  C     C_1   0.750000 0.750000 0.388586 0.002765
C260  C     C_1   0.250003 0.111414 0.249994 0.002782
C261  C     C_1   0.749996 0.888586 0.750006 0.002773
C262  C     C_1   0.750003 0.111414 0.250006 0.002782
C263  C     C_1   0.249997 0.888586 0.749994 0.002774
C264  C     C_1   0.750003 0.111414 0.749994 0.002780
C265  C     C_1   0.249997 0.888586 0.250006 0.002773
C266  C     C_1   0.250003 0.111414 0.750006 0.002783
C267  C     C_1   0.750005 0.578222 0.750008 -0.055643
C268  C     C_1   0.749996 0.888586 0.249994 0.002775
C269  C     C_1   0.111414 0.250003 0.249994 0.002732
C270  C     C_1   0.888586 0.749996 0.750006 0.002756
C271  C     C_1   0.111414 0.250003 0.750006 0.002736
C272  C     C_1   0.888586 0.749996 0.249994 0.002742
C273  C     C_1   0.111414 0.750003 0.749994 0.002753
C274  C     C_1   0.888586 0.249997 0.250006 0.002726
C275  C     C_1   0.111414 0.750003 0.250006 0.002750
C276  C     C_1   0.888586 0.249996 0.749994 0.002740
C277  C     C_1   0.250000 0.250000 0.111413 0.002742
C278  C     C_1   0.421778 0.249995 0.750008 -0.055683
C279  C     C_1   0.750000 0.750000 0.888587 0.002750
C280  C     C_1   0.250000 0.750000 0.111414 0.002761
C281  C     C_1   0.750000 0.250000 0.888586 0.002758
C282  C     C_1   0.750000 0.750000 0.111413 0.002759
C283  C     C_1   0.250000 0.250000 0.888587 0.002744
C284  C     C_1   0.750000 0.250000 0.111414 0.002767
C285  C     C_1   0.250000 0.750000 0.888586 0.002763
C286  C     C_R   0.750000 0.750000 0.150911 0.508997
C287  C     C_R   0.250000 0.250000 0.849089 0.508991
C288  C     C_R   0.849088 0.750000 0.750000 0.508984
H1    H     H_    0.707084 0.533916 0.209008 0.114443
H2    H     H_    0.292035 0.533924 0.208127 0.114433
H3    H     H_    0.792915 0.466084 0.290992 0.114434
H4    H     H_    0.207973 0.533916 0.708116 0.114458
H5    H     H_    0.292027 0.466084 0.208116 0.114449
H6    H     H_    0.707967 0.533916 0.791878 0.114463
H7    H     H_    0.207965 0.466076 0.708127 0.114449
H8    H     H_    0.792923 0.533924 0.290981 0.114420
H9    H     H_    0.533916 0.208087 0.708002 0.114417
H10   H     H_    0.466084 0.791792 0.292118 0.114416
H11   H     H_    0.533916 0.708120 0.792031 0.114418
H12   H     H_    0.292027 0.466084 0.791884 0.114450
H13   H     H_    0.466084 0.291842 0.207931 0.114404
H14   H     H_    0.533924 0.791800 0.292107 0.114432
H15   H     H_    0.466076 0.208079 0.708013 0.114421
H16   H     H_    0.533924 0.291850 0.207942 0.114407
H17   H     H_    0.466076 0.708112 0.792020 0.114436
H18   H     H_    0.466084 0.791879 0.707969 0.114420
H19   H     H_    0.533916 0.208158 0.292069 0.114408
H20   H     H_    0.466084 0.291913 0.791998 0.114408
H21   H     H_    0.533916 0.708208 0.207882 0.114409
H22   H     H_    0.466076 0.208150 0.292058 0.114418
H23   H     H_    0.792041 0.533924 0.708133 0.114440
H24   H     H_    0.533924 0.791887 0.707979 0.114441
H25   H     H_    0.466076 0.708200 0.207893 0.114432
H26   H     H_    0.533924 0.291921 0.791987 0.114417
H27   H     H_    0.206130 0.710012 0.533919 0.114398
H28   H     H_    0.793963 0.289888 0.466081 0.114395
H29   H     H_    0.708620 0.792529 0.533920 0.114417
H30   H     H_    0.292673 0.208764 0.466080 0.114420
H31   H     H_    0.793963 0.289888 0.533919 0.114391
H32   H     H_    0.206130 0.710012 0.466081 0.114398
H33   H     H_    0.292673 0.208764 0.533920 0.114420
H34   H     H_    0.207965 0.466076 0.291873 0.114448
H35   H     H_    0.708620 0.792529 0.466080 0.114421
H36   H     H_    0.791380 0.707471 0.466080 0.114434
H37   H     H_    0.207327 0.291236 0.533920 0.114419
H38   H     H_    0.293870 0.789988 0.466081 0.114398
H39   H     H_    0.706037 0.210112 0.533919 0.114380
H40   H     H_    0.207327 0.291236 0.466080 0.114418
H41   H     H_    0.791380 0.707471 0.533920 0.114430
H42   H     H_    0.706037 0.210112 0.466081 0.114383
H43   H     H_    0.293870 0.789987 0.533919 0.114399
H44   H     H_    0.207968 0.033916 0.208121 0.114451
H45   H     H_    0.292035 0.533924 0.791873 0.114434
H46   H     H_    0.791190 0.966084 0.792726 0.114443
H47   H     H_    0.792064 0.033924 0.208155 0.114451
H48   H     H_    0.207969 0.966076 0.791878 0.114436
H49   H     H_    0.791197 0.033924 0.792715 0.114435
H50   H     H_    0.207960 0.966076 0.208132 0.114435
H51   H     H_    0.207977 0.033916 0.791888 0.114453
H52   H     H_    0.792056 0.966084 0.208145 0.114459
H53   H     H_    0.033916 0.208195 0.207894 0.114407
H54   H     H_    0.966084 0.791897 0.792014 0.114426
H55   H     H_    0.033916 0.208103 0.792014 0.114411
H56   H     H_    0.707077 0.466076 0.209019 0.114435
H57   H     H_    0.966084 0.791820 0.207910 0.114417
H58   H     H_    0.033924 0.791905 0.792003 0.114440
H59   H     H_    0.966076 0.208187 0.207905 0.114415
H60   H     H_    0.033924 0.791828 0.207921 0.114436
H61   H     H_    0.966076 0.208095 0.792003 0.114424
H62   H     H_    0.206029 0.210120 0.033918 0.114385
H63   H     H_    0.793971 0.789880 0.966081 0.114389
H64   H     H_    0.208981 0.792864 0.033920 0.114436
H65   H     H_    0.792865 0.208981 0.966080 0.114428
H66   H     H_    0.793971 0.789880 0.033919 0.114393
H67   H     H_    0.207973 0.533916 0.291884 0.114457
H68   H     H_    0.206029 0.210121 0.966081 0.114386
H69   H     H_    0.792865 0.208981 0.033920 0.114432
H70   H     H_    0.208981 0.792864 0.966080 0.114437
H71   H     H_    0.708811 0.033916 0.707274 0.114434
H72   H     H_    0.292032 0.966084 0.291879 0.114459
H73   H     H_    0.292031 0.033924 0.708122 0.114452
H74   H     H_    0.707936 0.966076 0.291845 0.114436
H75   H     H_    0.292040 0.033924 0.291868 0.114451
H76   H     H_    0.708802 0.966076 0.707285 0.114419
H77   H     H_    0.707944 0.033916 0.291855 0.114450
H78   H     H_    0.792033 0.466084 0.708122 0.114454
H79   H     H_    0.292023 0.966084 0.708112 0.114461
H80   H     H_    0.033916 0.708103 0.707986 0.114417
H81   H     H_    0.966084 0.291805 0.292106 0.114400
H82   H     H_    0.033916 0.708180 0.292090 0.114413
H83   H     H_    0.966084 0.291897 0.707986 0.114409
H84   H     H_    0.033924 0.291813 0.292095 0.114414
H85   H     H_    0.966076 0.708095 0.707997 0.114433
H86   H     H_    0.033924 0.291905 0.707997 0.114418
H87   H     H_    0.966076 0.708172 0.292079 0.114424
H88   H     H_    0.706029 0.710120 0.033918 0.114404
H89   H     H_    0.707959 0.466076 0.791867 0.114455
H90   H     H_    0.293971 0.289879 0.966081 0.114385
H91   H     H_    0.707135 0.291019 0.033920 0.114445
H92   H     H_    0.291019 0.707135 0.966080 0.114436
H93   H     H_    0.293971 0.289879 0.033919 0.114384
H94   H     H_    0.706029 0.710120 0.966081 0.114401
H95   H     H_    0.291019 0.707135 0.033920 0.114435
H96   H     H_    0.707135 0.291019 0.966080 0.114441
O1    O     O_3   0.750000 0.750000 0.250000 -0.436185
O2    O     O_R   0.271350 0.271350 0.831460 -0.535735
O3    O     O_R   0.228650 0.668540 0.728650 -0.535722
O4    O     O_R   0.668540 0.771350 0.271350 -0.535724
O5    O     O_R   0.331460 0.228650 0.728650 -0.535736
O6    O     O_R   0.228650 0.668540 0.271350 -0.535722
O7    O     O_R   0.771350 0.331460 0.728650 -0.535726
O8    O     O_R   0.831460 0.728650 0.728650 -0.535727
O9    O     O_R   0.168540 0.271350 0.271350 -0.535738
O10   O     O_R   0.271350 0.728650 0.831460 -0.535738
O11   O     O_R   0.728650 0.271350 0.168540 -0.535729
O12   O     O_R   0.168540 0.728650 0.271350 -0.535763
O13   O     O_R   0.831460 0.271350 0.728650 -0.535762
O14   O     O_R   0.728650 0.271350 0.831460 -0.535734
O15   O     O_R   0.271350 0.728650 0.168540 -0.535739
O16   O     O_R   0.831460 0.271350 0.271350 -0.535768
O17   O     O_3   0.250000 0.250000 0.750000 -0.436183
O18   O     O_R   0.168540 0.728650 0.728650 -0.535762
O19   O     O_R   0.271350 0.271350 0.168540 -0.535737
O20   O     O_R   0.728650 0.728650 0.831460 -0.535730
O21   O     O_R   0.168540 0.271350 0.728650 -0.535737
O22   O     O_R   0.831460 0.728650 0.271350 -0.535733
O23   O     O_R   0.728650 0.168540 0.728650 -0.535726
O24   O     O_R   0.271350 0.831460 0.271350 -0.535720
O25   O     O_R   0.728650 0.831460 0.271350 -0.535741
O26   O     O_R   0.271350 0.168540 0.728650 -0.535728
O27   O     O_R   0.271350 0.831460 0.728650 -0.535721
O28   O     O_3   0.750000 0.750000 0.750000 -0.436186
O29   O     O_R   0.728650 0.168540 0.271350 -0.535727
O30   O     O_R   0.271350 0.168540 0.271350 -0.535728
O31   O     O_R   0.728650 0.831460 0.728650 -0.535741
O32   O     O_R   0.228650 0.228650 0.168540 -0.535736
O33   O     O_R   0.771350 0.771350 0.831460 -0.535740
O34   O     O_R   0.831460 0.228650 0.228650 -0.535737
O35   O     O_R   0.168540 0.771350 0.771350 -0.535721
O36   O     O_R   0.771350 0.228650 0.831460 -0.535745
O37   O     O_R   0.228650 0.771350 0.168540 -0.535738
O38   O     O_R   0.168540 0.228650 0.771350 -0.535760
O39   O     O_3   0.250000 0.250000 0.250000 -0.436182
O40   O     O_R   0.831460 0.771350 0.228650 -0.535760
O41   O     O_R   0.228650 0.771350 0.831460 -0.535737
O42   O     O_R   0.771350 0.228650 0.168540 -0.535741
O43   O     O_R   0.831460 0.771350 0.771350 -0.535753
O44   O     O_R   0.168540 0.228650 0.228650 -0.535761
O45   O     O_R   0.771350 0.771350 0.168540 -0.535736
O46   O     O_R   0.228650 0.228650 0.831460 -0.535736
O47   O     O_R   0.168540 0.771350 0.228650 -0.535722
O48   O     O_R   0.831460 0.228650 0.771350 -0.535731
O49   O     O_R   0.228650 0.168540 0.228650 -0.535725
O50   O     O_3   0.250000 0.750000 0.750000 -0.436185
O51   O     O_R   0.771350 0.831460 0.771350 -0.535720
O52   O     O_R   0.228650 0.831460 0.771350 -0.535743
O53   O     O_R   0.771350 0.168540 0.228650 -0.535726
O54   O     O_R   0.771350 0.831460 0.228650 -0.535721
O55   O     O_R   0.228650 0.168540 0.771350 -0.535726
O56   O     O_R   0.771350 0.168540 0.771350 -0.535726
O57   O     O_R   0.228650 0.831460 0.228650 -0.535743
O58   O     O_R   0.228650 0.728650 0.668540 -0.535733
O59   O     O_R   0.771350 0.271350 0.331460 -0.535727
O60   O     O_R   0.331460 0.728650 0.228650 -0.535723
O61   O     O_3   0.750000 0.250000 0.250000 -0.436182
O62   O     O_R   0.668540 0.271350 0.771350 -0.535740
O63   O     O_R   0.771350 0.728650 0.331460 -0.535730
O64   O     O_R   0.228650 0.271350 0.668540 -0.535738
O65   O     O_R   0.668540 0.728650 0.771350 -0.535763
O66   O     O_R   0.331460 0.271350 0.228650 -0.535762
O67   O     O_R   0.228650 0.271350 0.331460 -0.535739
O68   O     O_R   0.771350 0.728650 0.668540 -0.535735
O69   O     O_R   0.331460 0.271350 0.771350 -0.535761
O70   O     O_R   0.668540 0.728650 0.228650 -0.535769
O71   O     O_R   0.771350 0.271350 0.668540 -0.535732
O72   O     O_3   0.250000 0.750000 0.250000 -0.436184
O73   O     O_R   0.228650 0.728650 0.331460 -0.535734
O74   O     O_R   0.668540 0.271350 0.228650 -0.535746
O75   O     O_R   0.331460 0.728650 0.771350 -0.535722
O76   O     O_R   0.728650 0.668540 0.228650 -0.535719
O77   O     O_R   0.271350 0.331460 0.771350 -0.535726
O78   O     O_R   0.728650 0.228650 0.331460 -0.535738
O79   O     O_R   0.271350 0.771350 0.668540 -0.535733
O80   O     O_R   0.728650 0.331460 0.771350 -0.535725
O81   O     O_R   0.271350 0.668540 0.228650 -0.535744
O82   O     O_R   0.728650 0.771350 0.668540 -0.535746
O83   O     O_3   0.750000 0.250000 0.750000 -0.436183
O84   O     O_R   0.271350 0.228650 0.331460 -0.535738
O85   O     O_R   0.271350 0.331460 0.228650 -0.535727
O86   O     O_R   0.728650 0.668540 0.771350 -0.535720
O87   O     O_R   0.271350 0.771350 0.331460 -0.535733
O88   O     O_R   0.728650 0.228650 0.668540 -0.535743
O89   O     O_R   0.271350 0.668540 0.771350 -0.535744
O90   O     O_R   0.728650 0.331460 0.228650 -0.535726
O91   O     O_R   0.271350 0.228650 0.668540 -0.535737
O92   O     O_R   0.728650 0.771350 0.331460 -0.535741
O93   O     O_R   0.668540 0.228650 0.728650 -0.535752
O94   O     O_R   0.728650 0.728650 0.168540 -0.535724
O95   O     O_R   0.331460 0.771350 0.271350 -0.535761
O96   O     O_R   0.228650 0.331460 0.728650 -0.535729
O97   O     O_R   0.771350 0.668540 0.271350 -0.535740
O98   O     O_R   0.331460 0.771350 0.728650 -0.535761
O99   O     O_R   0.668540 0.228650 0.271350 -0.535759
O100  O     O_R   0.771350 0.668540 0.728650 -0.535740
O101  O     O_R   0.228650 0.331460 0.271350 -0.535728
O102  O     O_R   0.331460 0.228650 0.271350 -0.535737
O103  O     O_R   0.668540 0.771350 0.728650 -0.535718
O104  O     O_R   0.771350 0.331460 0.271350 -0.535725
Zn1   Zn    Zn3+2 0.780520 0.719480 0.280520 0.949320
Zn2   Zn    Zn3+2 0.219480 0.719480 0.280520 0.949324
Zn3   Zn    Zn3+2 0.719480 0.280520 0.219480 0.949320
Zn4   Zn    Zn3+2 0.280520 0.719480 0.780520 0.949320
Zn5   Zn    Zn3+2 0.219480 0.280520 0.280520 0.949317
Zn6   Zn    Zn3+2 0.780520 0.719480 0.719480 0.949322
Zn7   Zn    Zn3+2 0.280520 0.280520 0.780520 0.949318
Zn8   Zn    Zn3+2 0.719480 0.719480 0.219480 0.949327
Zn9   Zn    Zn3+2 0.719480 0.780520 0.719480 0.949320
Zn10  Zn    Zn3+2 0.280520 0.219480 0.280520 0.949319
Zn11  Zn    Zn3+2 0.719480 0.219480 0.280520 0.949317
Zn12  Zn    Zn3+2 0.219480 0.280520 0.719480 0.949319
Zn13  Zn    Zn3+2 0.280520 0.780520 0.719480 0.949327
Zn14  Zn    Zn3+2 0.280520 0.219480 0.719480 0.949321
Zn15  Zn    Zn3+2 0.719480 0.780520 0.280520 0.949318
Zn16  Zn    Zn3+2 0.280520 0.780520 0.280520 0.949326
Zn17  Zn    Zn3+2 0.719480 0.219480 0.719480 0.949319
Zn18  Zn    Zn3+2 0.780520 0.219480 0.780520 0.949320
Zn19  Zn    Zn3+2 0.219480 0.780520 0.219480 0.949320
Zn20  Zn    Zn3+2 0.219480 0.219480 0.780520 0.949320
Zn21  Zn    Zn3+2 0.780520 0.780520 0.219480 0.949325
Zn22  Zn    Zn3+2 0.219480 0.219480 0.219480 0.949318
Zn23  Zn    Zn3+2 0.719480 0.719480 0.780520 0.949329
Zn24  Zn    Zn3+2 0.780520 0.780520 0.780520 0.949327
Zn25  Zn    Zn3+2 0.780520 0.219480 0.219480 0.949318
Zn26  Zn    Zn3+2 0.219480 0.780520 0.780520 0.949322
Zn27  Zn    Zn3+2 0.280520 0.280520 0.219480 0.949316
Zn28  Zn    Zn3+2 0.219480 0.719480 0.719480 0.949326
Zn29  Zn    Zn3+2 0.780520 0.280520 0.280520 0.949319
Zn30  Zn    Zn3+2 0.280520 0.719480 0.219480 0.949318
Zn31  Zn    Zn3+2 0.719480 0.280520 0.780520 0.949322
Zn32  Zn    Zn3+2 0.780520 0.280520 0.719480 0.949321

loop_
_geom_bond_atom_site_label_1
_geom_bond_atom_site_label_2
_ccdc_geom_bond_type
C99   C103  A    
C152  C209  A    
C92   H28   S    
C133  C137  A    
O64   Zn12  S    
C55   C59   A    
C70   H15   S    
C53   H45   S    
C105  C110  A    
C58   C164  A    
C7    O48   A    
C48   C237  S    
C21   O27   A    
C88   C177  A    
O23   Zn17  S    
O68   Zn6   S    
C136  H77   S    
C56   H12   S    
C87   C176  A    
O17   Zn14  S    
C142  H84   S    
C48   O101  A    
C24   C249  T    
C96   C184  A    
C96   C102  A    
C47   O81   A    
O99   Zn11  S    
C15   C271  S    
C39   C255  S    
O60   Zn30  S    
C7    O13   A    
C61   C166  A    
C209  C231  S    
C24   C171  S    
C39   O71   A    
C11   C273  S    
O84   Zn10  S    
C123  H68   S    
O50   Zn26  S    
C116  C195  A    
O10   Zn4   S    
C21   C263  S    
C32   O65   A    
C83   C171  A    
C88   H31   S    
C25   O51   A    
C220  C270  T    
C286  O45   A    
C81   C86   A    
O28   Zn23  S    
C27   O78   A    
C86   H20   S    
C90   C177  S    
O87   Zn16  S    
O39   Zn22  S    
C103  H39   S    
O85   Zn27  S    
O12   Zn2   S    
C35   C172  S    
O39   Zn27  S    
C80   C83   A    
O16   Zn29  S    
C154  C203  A    
O2    Zn7   S    
C211  C261  T    
C89   H35   S    
C214  C263  T    
C1    C159  S    
C114  H47   S    
C106  C186  A    
C55   H67   S    
C207  C229  S    
C8    O14   A    
O28   Zn6   S    
O59   Zn29  S    
C85   C169  A    
C69   H3    S    
C66   C161  A    
O1    Zn1   S    
C102  H36   S    
C2    C247  T    
C226  C282  T    
C80   H22   S    
C18   C265  S    
C131  C210  A    
C219  C275  T    
C33   C246  S    
O4    Zn15  S    
C153  C156  A    
C29   O93   A    
C145  C194  A    
C52   C58   A    
O51   Zn24  S    
C146  C183  S    
C12   O19   A    
C112  C238  T    
O1    Zn8   S    
C6    O47   A    
C95   H29   S    
C203  C225  S    
C133  C191  A    
C112  C160  S    
C138  C186  A    
C111  H48   S    
C108  C188  A    
O96   Zn12  S    
O90   Zn3   S    
C144  H86   S    
O63   Zn1   S    
C82   C85   A    
O83   Zn31  S    
C4    C285  S    
C108  C111  A    
C123  C203  A    
C165  C256  S    
O97   Zn1   S    
C232  C280  T    
C163  C234  S    
C70   C167  A    
C91   C94   A    
C233  C245  T    
C42   O75   A    
C22   C262  S    
O21   Zn12  S    
C101  C259  T    
O94   Zn8   S    
O42   Zn25  S    
C31   O91   A    
O54   Zn21  S    
O28   Zn9   S    
C141  C147  A    
C2    C169  S    
C81   H26   S    
C143  C149  A    
C162  C223  S    
C61   H6    S    
C121  H57   S    
C49   O86   A    
C72   C170  A    
C65   H2    S    
C148  H83   S    
C156  H92   S    
C125  C204  A    
C35   C243  T    
O8    Zn6   S    
C89   C95   A    
C119  C198  A    
C142  C199  A    
O17   Zn20  S    
O18   Zn28  S    
C71   H14   S    
O46   Zn20  S    
C66   H89   S    
C286  O94   A    
C179  C186  S    
C12   O32   A    
C217  C273  T    
O35   Zn26  S    
C115  H59   S    
C20   O55   A    
O72   Zn2   S    
C287  O2    A    
C84   C170  A    
C227  C285  T    
O48   Zn18  S    
C153  C210  A    
O53   Zn25  S    
C126  C205  A    
C33   O102  A    
O17   Zn7   S    
C120  C199  A    
C158  H91   S    
O66   Zn27  S    
O77   Zn7   S    
C101  C178  S    
C51   O104  A    
C58   H1    S    
O26   Zn14  S    
O58   Zn28  S    
C236  C267  T    
C94   H30   S    
C9    C280  S    
C157  C184  S    
C83   H19   S    
C134  H79   S    
C117  H61   S    
C59   C165  A    
C77   H11   S    
O52   Zn26  S    
C225  C283  T    
C145  H81   S    
O7    Zn32  S    
C155  H88   S    
C100  H37   S    
C132  H76   S    
C215  C262  T    
C16   O40   A    
C28   O95   A    
O89   Zn4   S    
C138  H71   S    
C126  H70   S    
C193  C215  S    
C6    O12   A    
C140  H73   S    
C161  C212  S    
C4    O10   A    
C79   C257  T    
C108  H51   S    
C40   O73   A    
C7    C276  S    
C20   C266  S    
C129  C208  A    
C29   O62   A    
C87   H32   S    
C229  C279  T    
C43   O97   A    
C130  H65   S    
C36   O82   A    
C81   C173  A    
C117  C122  A    
C41   O99   A    
O100  Zn6   S    
C212  C241  T    
O72   Zn30  S    
C167  C278  S    
C127  H69   S    
C29   C242  S    
O39   Zn10  S    
C91   C180  A    
C9    O15   A    
O61   Zn29  S    
C89   C178  A    
O83   Zn17  S    
C164  C245  S    
C20   O26   A    
C39   O88   A    
C152  C158  A    
C115  C194  A    
C23   C260  S    
C78   H24   S    
C150  C155  A    
C213  C260  T    
C78   C175  A    
C102  C178  A    
C74   H10   S    
O101  Zn5   S    
C100  C180  A    
C14   O20   A    
C195  C217  S    
C97   C100  A    
O98   Zn13  S    
O1    Zn15  S    
C53   C56   A    
O86   Zn23  S    
O37   Zn19  S    
C106  H49   S    
C79   C176  S    
C231  C281  T    
C21   O52   A    
C135  C251  T    
C57   C246  T    
O50   Zn28  S    
C25   O31   A    
C37   O69   A    
O95   Zn16  S    
C3    C269  S    
C34   C254  S    
C17   C264  S    
C76   C174  A    
O29   Zn11  S    
C32   O103  A    
O75   Zn4   S    
C59   H34   S    
C84   H18   S    
O73   Zn2   S    
C17   O23   A    
C18   O24   A    
C93   H27   S    
C9    O37   A    
C69   C159  A    
C31   C258  S    
C54   C161  A    
O9    Zn5   S    
C99   C181  A    
C4    O41   A    
O3    Zn28  S    
C96   H41   S    
O20   Zn23  S    
C70   C75   A    
C210  C232  S    
C130  C209  A    
C190  C268  T    
C12   C277  S    
C146  C254  T    
O28   Zn24  S    
C106  C109  A    
C14   C279  S    
C150  H94   S    
C141  H85   S    
C134  C192  A    
C5    C284  S    
C142  C145  A    
C168  C265  T    
O72   Zn16  S    
C27   O59   A    
C30   O63   A    
C1    C239  T    
C143  C200  A    
O44   Zn22  S    
O80   Zn31  S    
C34   O84   A    
O65   Zn23  S    
C208  C230  S    
O103  Zn9   S    
C143  H87   S    
C33   O66   A    
C49   C236  S    
C136  C139  A    
C194  C216  S    
C109  H46   S    
C19   O25   A    
C37   O5    A    
C82   H25   S    
C132  C138  A    
C110  C191  A    
C152  H96   S    
C44   O77   A    
C187  C190  S    
C107  H52   S    
C237  C256  T    
C120  H53   S    
O45   Zn21  S    
O43   Zn24  S    
C166  C267  S    
C71   C169  A    
C97   C183  A    
C144  C148  A    
O5    Zn14  S    
C111  C192  A    
C147  H80   S    
C17   O56   A    
C10   C274  S    
C64   C163  A    
C40   O87   A    
C76   H13   S    
C16   C272  S    
C68   C175  S    
C137  C185  A    
C99   H42   S    
C63   C164  A    
C82   C172  A    
C50   O3    A    
C105  H50   S    
C116  H58   S    
C158  C206  A    
C202  C224  S    
C55   C162  A    
C104  C176  A    
O104  Zn29  S    
C44   C235  S    
O71   Zn32  S    
O92   Zn15  S    
C46   C173  S    
C283  C287  S    
C67   H4    S    
C60   C166  A    
C140  C188  A    
O62   Zn31  S    
C75   H9    S    
O36   Zn18  S    
C27   C252  S    
C121  C200  A    
C131  H64   S    
C13   C250  T    
O57   Zn19  S    
C25   C261  S    
C93   C182  A    
O47   Zn19  S    
O6    Zn2   S    
O91   Zn14  S    
C156  C205  A    
C72   H17   S    
C3    O9    A    
C110  H44   S    
O1    Zn21  S    
C22   O53   A    
C43   C233  S    
C73   C76   A    
C141  C198  A    
C46   C242  T    
C204  C226  S    
C23   O30   A    
C119  H54   S    
C128  C207  A    
C53   C160  A    
C218  C276  T    
O67   Zn5   S    
C71   C74   A    
C196  C218  S    
C40   C257  S    
C15   O38   A    
O41   Zn26  S    
O61   Zn25  S    
C223  C240  T    
C200  C222  S    
C122  C202  A    
C80   C174  A    
C124  C181  S    
O72   Zn19  S    
C191  C213  S    
C224  C271  T    
O69   Zn7   S    
C85   H21   S    
C139  H74   S    
C63   H8    S    
C205  C227  S    
C64   H7    S    
C42   O98   A    
O19   Zn27  S    
C91   H33   S    
O38   Zn20  S    
C45   O7    A    
C125  H66   S    
C52   H56   S    
C113  C180  S    
C42   C250  S    
C124  C252  T    
C8    O36   A    
C51   C239  S    
C113  C258  T    
C197  C219  S    
C31   O64   A    
O33   Zn24  S    
C149  H82   S    
C287  O46   A    
O50   Zn4   S    
C90   C255  T    
C36   O68   A    
C98   C182  A    
C54   C60   A    
C114  C193  A    
C107  C187  A    
C75   C173  A    
C188  C201  S    
O78   Zn11  S    
O76   Zn8   S    
C60   H23   S    
C11   O35   A    
C153  H95   S    
O81   Zn30  S    
C107  C114  A    
C10   O16   A    
C49   O100  A    
O49   Zn22  S    
C56   C163  A    
O83   Zn32  S    
C37   C248  S    
C137  H72   S    
C128  H63   S    
C127  C206  A    
C68   C244  T    
C150  C207  A    
C45   O80   A    
C92   C181  A    
C47   O6    A    
C134  C140  A    
C95   C184  A    
C201  C266  T    
C38   C247  S    
O32   Zn22  S    
C87   C93   A    
C98   H43   S    
C15   O21   A    
C62   H5    S    
C30   O92   A    
C179  C264  T    
C151  C154  A    
C105  C185  A    
O55   Zn20  S    
C154  H90   S    
O74   Zn3   S    
C48   O85   A    
C61   C66   A    
C148  C196  A    
C10   O34   A    
O34   Zn25  S    
C109  C189  A    
O88   Zn17  S    
C65   C162  A    
O61   Zn11  S    
C125  C128  A    
C11   O18   A    
C147  C195  A    
C67   C160  A    
C199  C221  S    
C28   C243  S    
C151  C208  A    
C73   C171  A    
C50   O89   A    
C74   C172  A    
C222  C272  T    
C228  C284  T    
C52   C159  A    
C51   O90   A    
C123  C129  A    
C26   O58   A    
C73   H16   S    
C139  C187  A    
O79   Zn13  S    
C192  C214  S    
O27   Zn13  S    
C57   C174  S    
C23   O49   A    
C230  C277  T    
C30   C259  S    
C64   C67   A    
C88   C92   A    
C50   C238  S    
C122  H55   S    
C189  C211  S    
C43   O76   A    
C288  O8    A    
C16   O22   A    
C41   O74   A    
O17   Zn12  S    
C129  H62   S    
C103  C177  A    
C118  C121  A    
O56   Zn18  S    
C34   O67   A    
C72   C77   A    
O102  Zn10  S    
O39   Zn5   S    
C157  C253  T    
O50   Zn13  S    
C234  C235  T    
C26   O79   A    
C63   C69   A    
C151  H93   S    
O15   Zn30  S    
C6    C275  S    
C97   H40   S    
O70   Zn8   S    
C144  C202  A    
C13   C170  S    
C22   O29   A    
C288  O43   A    
O93   Zn17  S    
C282  C286  S    
C28   O60   A    
C206  C228  S    
C3    O44   A    
C155  C204  A    
C45   C241  S    
C221  C269  T    
C54   H78   S    
C132  C189  A    
C168  C185  S    
C18   O57   A    
C62   C65   A    
C248  C278  T    
C198  C220  S    
C86   C167  A    
O82   Zn9   S    
C270  C288  S    
C5    O42   A    
C38   O70   A    
C44   O96   A    
O22   Zn1   S    
C36   C253  S    
C116  C119  A    
C127  C130  A    
C133  H75   S    
C136  C193  A    
O30   Zn10  S    
C117  C196  A    
O11   Zn3   S    
C8    C281  S    
O14   Zn31  S    
C126  C131  A    
C14   O33   A    
C98   C104  A    
O40   Zn21  S    
O25   Zn15  S    
C19   O54   A    
O13   Zn32  S    
C5    O11   A    
O83   Zn18  S    
C118  H60   S    
O61   Zn3   S    
O24   Zn16  S    
C26   C251  S    
C47   C240  S    
C78   C84   A    
C62   C165  A    
C77   C175  A    
C115  C120  A    
C94   C183  A    
C41   C249  S    
C216  C274  T    
C135  C182  S    
C118  C197  A    
C104  H38   S    
O31   Zn9   S    
C32   C244  S    
C149  C197  A    
C19   C268  S    
C38   O4    A    
