data_mof_unit_55942.cif
_audit_creation_date              2012-12-11T16:26:28-0500
_audit_creation_method            fapswitch 2.2
_symmetry_space_group_name_H-M    P1
_symmetry_Int_Tables_number       1
_space_group_crystal_system       triclinic
_cell_length_a                    6.923051
_cell_length_b                    17.549148
_cell_length_c                    19.669209
_cell_angle_alpha                 108.492845
_cell_angle_beta                  88.870652
_cell_angle_gamma                 90.580772
_cell_volume                      2265.82922136

loop_
_atom_site_label
_atom_site_type_symbol
_atom_type_description
_atom_site_fract_x
_atom_site_fract_y
_atom_site_fract_z
_atom_type_partial_charge
O1    O     O_R   0.494330 0.415720 0.413720 -0.514262
O2    O     O_R   0.819330 0.430070 0.560210 -0.516747
O3    O     O_R   0.994320 0.584280 0.586280 -0.569907
C1    C     C_R   0.650277 0.418084 0.584887 0.900500
O4    O     O_R   0.823730 0.406300 0.412670 -0.551483
O5    O     O_R   0.998760 0.560340 0.437690 -0.544146
C2    C     C_R   0.659068 0.382641 0.384359 0.772310
O6    O     O_R   0.489890 0.439660 0.562310 -0.497383
O7    O     O_3   0.662340 0.550560 0.508380 -0.395471
V1    V     V_3+5 0.935370 0.490620 0.498450 1.601837
O8    O     O_R   0.328750 0.569930 0.439790 -0.523874
C3    C     C_R   0.160235 0.587152 0.419959 0.777843
O9    O     O_R   0.324340 0.593700 0.587330 -0.521583
C4    C     C_R   0.153798 0.616290 0.615459 0.741020
V2    V     V_3+5 0.435940 0.509380 0.501550 1.646525
O10   O     O_3   0.159100 0.449440 0.491620 -0.341776
H1    H     H_    0.464444 0.857088 0.585425 0.118813
C5    C     C_R   0.935086 0.604947 0.741607 -0.043817
C6    C     C_R   0.847207 0.594407 0.802318 -0.044159
C7    C     C_R   0.856659 0.654749 0.867791 -0.103942
C8    C     C_R   0.949992 0.726814 0.872653 -0.146036
C9    C     C_R   0.036004 0.740312 0.811421 0.047646
C10   C     C_R   0.036128 0.676635 0.744807 0.048553
C11   C     C_R   0.123167 0.815322 0.816237 -0.169372
C12   C     C_R   0.216289 0.825631 0.754658 0.078561
C13   C     C_R   0.225658 0.760604 0.688933 0.063626
C14   C     C_R   0.138605 0.685298 0.683958 -0.153727
C15   C     C_R   0.296593 0.900874 0.756495 -0.154476
C16   C     C_R   0.387071 0.911434 0.696262 -0.124730
C17   C     C_R   0.396460 0.848235 0.632418 -0.106682
C18   C     C_R   0.315280 0.773999 0.628278 -0.145109
H2    H     H_    0.921800 0.555673 0.692698 0.163240
H3    H     H_    0.773285 0.538604 0.798626 0.170383
H4    H     H_    0.790822 0.645821 0.915069 0.190428
H5    H     H_    0.955275 0.771194 0.925260 0.128259
H6    H     H_    0.288455 0.952976 0.803911 0.104003
H7    H     H_    0.447980 0.969377 0.698945 0.116550
H8    H     H_    0.320441 0.728206 0.576411 0.088756
C19   C     C_R   0.271266 0.611561 0.305411 0.438759
C20   C     C_R   0.152083 0.632691 0.367413 -0.201412
C21   C     C_R   0.013059 0.692798 0.376210 -0.278233
C22   C     C_R   0.995475 0.734232 0.325584 0.113262
C23   C     C_R   0.131711 0.719146 0.267950 -0.070186
C24   C     C_R   0.278606 0.661075 0.260240 -0.079791
C25   C     C_R   0.844892 0.790280 0.330892 0.166725
C26   C     C_R   0.835696 0.831450 0.280313 -0.197461
C27   C     C_R   0.974754 0.819570 0.225269 0.093606
C28   C     C_R   0.122442 0.762919 0.218328 -0.006338
C29   C     C_R   0.257254 0.748350 0.160564 -0.036861
C30   C     C_R   0.383835 0.682501 0.148616 0.391109
C31   C     C_R   0.419453 0.651660 0.204663 0.098580
C32   C     C_R   0.966299 0.863400 0.176795 -0.238697
C33   C     C_R   0.113351 0.857986 0.125243 -0.080205
C34   C     C_R   0.266913 0.802394 0.119408 0.137222
H9    H     H_    0.916204 0.705478 0.422267 0.148309
H10   H     H_    0.718886 0.873248 0.283942 0.119472
H11   H     H_    0.850198 0.905686 0.182018 0.128614
C35   C     C_R   0.465076 0.183366 0.865868 -0.112616
C36   C     C_R   0.625077 0.136257 0.870598 -0.065699
C37   C     C_R   0.793018 0.139257 0.830114 -0.164819
C38   C     C_R   0.799979 0.187845 0.785364 0.111105
C39   C     C_R   0.643145 0.238619 0.784901 0.126538
C40   C     C_R   0.477302 0.237637 0.826867 0.087728
C41   C     C_R   0.959850 0.185838 0.740272 -0.232525
C42   C     C_R   0.959228 0.229983 0.692415 -0.051387
C43   C     C_R   0.799963 0.278237 0.689502 -0.013182
C44   C     C_R   0.648397 0.287543 0.739826 -0.066497
C45   C     C_R   0.496680 0.341704 0.742052 -0.032151
C46   C     C_R   0.334298 0.341338 0.786502 -0.043130
C47   C     C_R   0.324242 0.289480 0.827705 -0.123600
C48   C     C_R   0.779307 0.310968 0.633369 0.361624
C49   C     C_R   0.644604 0.373613 0.639586 -0.330062
C50   C     C_R   0.510426 0.392738 0.698425 0.363912
H12   H     H_    0.329875 0.178316 0.892443 0.179659
H13   H     H_    0.915833 0.102042 0.831708 0.113998
H14   H     H_    0.083028 0.148269 0.740424 0.123059
H15   H     H_    0.083881 0.226035 0.657343 0.180224
H16   H     H_    0.208154 0.377076 0.786613 0.205590
H17   H     H_    0.195241 0.289432 0.859834 0.189195
H18   H     H_    0.941601 0.126685 0.400612 0.201779
C51   C     C_R   0.773949 0.392424 0.238124 -0.072140
C52   C     C_R   0.791873 0.400665 0.169953 -0.145201
C53   C     C_R   0.685666 0.350253 0.113093 0.422521
C54   C     C_R   0.573644 0.287806 0.124811 0.277167
C55   C     C_R   0.611606 0.265528 0.185833 -0.119036
C56   C     C_R   0.672898 0.326721 0.247757 0.003982
C57   C     C_R   0.607617 0.184128 0.184821 -0.099294
C58   C     C_R   0.651080 0.167620 0.249336 0.063286
C59   C     C_R   0.701681 0.233082 0.311145 -0.000653
C60   C     C_R   0.665710 0.313468 0.314458 -0.170013
C61   C     C_R   0.657539 0.088353 0.254702 0.142529
C62   C     C_R   0.761860 0.074907 0.310132 -0.147279
C63   C     C_R   0.851085 0.138315 0.360860 -0.063195
C64   C     C_R   0.816967 0.216863 0.362402 -0.046963
H19   H     H_    0.850306 0.434140 0.282033 0.191164
H20   H     H_    0.882627 0.448064 0.162560 0.188120
H21   H     H_    0.777039 0.014966 0.313572 0.125425
H22   H     H_    0.888715 0.265087 0.401907 0.203471
O11   O     O_R   0.775200 0.060470 0.937800 -0.537892
O12   O     O_R   0.441110 0.093720 0.087350 -0.499365
O13   O     O_R   0.266330 0.939630 0.062280 -0.549012
C65   C     C_R   0.607579 0.118159 0.114321 0.759276
O14   O     O_R   0.445750 0.069950 0.939820 -0.530727
O15   O     O_R   0.271000 0.915700 0.913700 -0.548170
C66   C     C_R   0.615387 0.084802 0.917937 0.750518
O16   O     O_R   0.770530 0.084400 0.086380 -0.533967
O17   O     O_3   0.602830 0.949510 0.991680 -0.393309
V3    V     V_3+5 0.329710 0.009370 0.001550 1.543276
O18   O     O_R   0.940990 0.906170 0.912570 -0.547635
C67   C     C_R   0.110975 0.883639 0.884798 0.666704
O19   O     O_R   0.936350 0.929940 0.060100 -0.553146
C68   C     C_R   0.104809 0.912280 0.079760 0.692327
V4    V     V_3+5 0.829160 0.990450 0.998310 1.466107
O20   O     O_3   0.105910 0.050480 0.008320 -0.325966
C69   C     C_3   0.689403 0.805527 0.388474 -0.792870
H23   H     H_    0.754774 0.830432 0.442146 0.211103
H24   H     H_    0.580394 0.849171 0.383060 0.214740
H25   H     H_    0.612475 0.748541 0.384793 0.206078
C70   C     C_3   0.449336 0.807889 0.077008 -0.632791
H26   H     H_    0.510637 0.868949 0.096750 0.181882
H27   H     H_    0.569174 0.771119 0.085238 0.226684
H28   H     H_    0.418860 0.792096 0.018964 0.220744
S1    S     S_3+6 0.446184 0.619758 0.060509 0.026036
O21   O     O_2   0.658113 0.628099 0.046035 -0.370802
O22   O     O_2   0.404231 0.533980 0.055427 -0.234365
O23   O     O_3   0.315541 0.642795 0.998557 -0.495531
H29   H     H_    0.379906 0.614325 0.952144 0.374332
C71   C     C_3   0.624351 0.625352 0.210137 -0.540087
H30   H     H_    0.726947 0.667910 0.197126 0.176867
H31   H     H_    0.657775 0.626786 0.265273 0.214799
H32   H     H_    0.654095 0.565323 0.171302 0.256984
S2    S     S_3+6 0.850951 0.251487 0.546617 -0.059268
O24   O     O_2   0.022164 0.289177 0.521422 -0.330881
O25   O     O_2   0.900658 0.166998 0.542834 -0.359104
O26   O     O_3   0.657780 0.248269 0.495315 -0.543943
H33   H     H_    0.558814 0.217149 0.512452 0.347497
S3    S     S_3+6 0.365320 0.480163 0.718654 -0.067448
O27   O     O_2   0.471573 0.545620 0.699172 -0.387812
O28   O     O_2   0.184844 0.458053 0.675607 -0.359547
O29   O     O_3   0.307596 0.514938 0.806636 -0.511172
H34   H     H_    0.280743 0.572842 0.816787 0.360178
S4    S     S_3+6 0.718231 0.358039 0.026212 0.143099
O30   O     O_2   0.813915 0.282563 0.979807 -0.309965
O31   O     O_2   0.528115 0.366839 0.994046 -0.236868
O32   O     O_3   0.861896 0.436443 0.027854 -0.429063
H35   H     H_    0.784572 0.484623 0.052848 0.380857
S5    S     S_3+6 0.333559 0.272770 0.093506 0.097594
O33   O     O_2   0.247451 0.350744 0.092728 -0.236611
O34   O     O_2   0.332165 0.215422 0.019080 -0.309295
O35   O     O_3   0.194837 0.234581 0.146217 -0.502762
H36   H     H_    0.158965 0.281180 0.188218 0.327446
C72   C     C_3   0.543454 0.019032 0.207281 -0.787153
H37   H     H_    0.397227 0.039310 0.198696 0.218743
H38   H     H_    0.621212 0.992831 0.155643 0.200756
H39   H     H_    0.522780 0.970666 0.232034 0.192409
S6    S     S_3+6 0.371677 0.513949 0.277874 -0.047496
O36   O     O_2   0.401574 0.482956 0.198112 -0.309470
O37   O     O_2   0.559608 0.520440 0.315875 -0.395814
O38   O     O_3   0.225972 0.448877 0.301406 -0.531263
H40   H     H_    0.293522 0.396657 0.283983 0.344257

loop_
_geom_bond_atom_site_label_1
_geom_bond_atom_site_label_2
_ccdc_geom_bond_type
C57   C58   A    
O23   H29   S    
C21   C22   A    
C6    C7    A    
C1    C49   S    
C1    O6    A    
C71   H30   S    
O32   H35   S    
O26   H33   S    
C55   C56   A    
O13   C68   A    
S3    O28   D    
C13   C14   A    
C36   C66   S    
C39   C44   A    
C53   C54   A    
C31   C71   S    
C8    C9    A    
C15   C16   A    
S5    O34   D    
O5    C3    A    
C17   C18   A    
C51   H19   S    
S1    O22   D    
C64   H22   S    
V2    O10   S    
C5    C6    A    
V3    O20   S    
C59   C64   A    
C21   H9    S    
S5    O33   D    
C48   S2    S    
O8    V2    S    
C54   C55   A    
O17   V4    S    
O19   C68   A    
C45   C46   A    
C69   H24   S    
O17   V3    S    
C40   C47   A    
O14   V3    S    
O1    V2    S    
C10   C14   A    
C4    C14   S    
C23   C28   A    
C51   C56   A    
O18   V4    S    
C7    H4    S    
O13   V3    S    
C55   C57   A    
C43   C44   A    
C36   C37   A    
C29   C34   A    
C34   C70   S    
H1    C17   S    
S4    O32   S    
C46   H16   S    
C38   C39   A    
O4    V1    S    
C62   H21   S    
C51   C52   A    
C70   H27   S    
O11   C66   A    
S3    O29   S    
O12   V3    S    
C52   H20   S    
O16   V4    S    
C44   C45   A    
C27   C28   A    
S1    O21   D    
S5    O35   S    
C11   C67   S    
C11   C12   A    
O14   C66   A    
C56   C60   A    
C59   C60   A    
C61   C62   A    
O4    C2    A    
S2    O24   D    
S1    O23   S    
C45   C50   A    
C33   C34   A    
C2    C60   S    
C5    C10   A    
C37   C38   A    
C12   C15   A    
C22   C25   A    
C3    C20   S    
C38   C41   A    
O2    C1    A    
C23   C24   A    
C43   C48   A    
O5    V1    S    
C16   C17   A    
C57   C65   S    
C25   C69   S    
O38   H40   S    
C58   C61   A    
C70   H26   S    
C69   H25   S    
C7    C8    A    
C39   C40   A    
O12   C65   A    
C30   C31   A    
C41   H14   S    
O19   V4    S    
C63   C64   A    
O29   H34   S    
C27   C32   A    
O3    C4    A    
C72   H39   S    
C24   C31   A    
C20   C21   A    
C72   H38   S    
C52   C53   A    
O6    V2    S    
O9    V2    S    
C6    H3    S    
S4    O31   D    
C35   C36   A    
C5    H2    S    
C22   C23   A    
C16   H7    S    
O2    V1    S    
C71   H32   S    
O15   V3    S    
C32   C33   A    
C35   H12   S    
V4    O20   S    
O7    V1    S    
C54   S5    S    
C35   C40   A    
C26   C27   A    
S6    O36   D    
C42   H15   S    
C47   H17   S    
O1    C2    A    
S6    O38   S    
C30   S1    S    
C49   C50   A    
C71   H31   S    
O11   V4    S    
C53   S4    S    
O8    C3    A    
C19   C24   A    
C8    H5    S    
C33   C68   S    
S3    O27   D    
C37   H13   S    
O35   H36   S    
C18   H8    S    
C19   S6    S    
C41   C42   A    
S6    O37   D    
C12   C13   A    
C48   C49   A    
O3    V1    S    
V1    O10   S    
O18   C67   A    
O15   C67   A    
C61   C72   S    
C50   S3    S    
S2    O26   S    
C28   C29   A    
C62   C63   A    
C70   H28   S    
C65   O16   A    
C9    C11   A    
C42   C43   A    
O7    V2    S    
C46   C47   A    
C32   H11   S    
C19   C20   A    
C25   C26   A    
C13   C18   A    
C58   C59   A    
C15   H6    S    
S2    O25   D    
C29   C30   A    
C26   H10   S    
S4    O30   D    
C9    C10   A    
C72   H37   S    
H18   C63   S    
O9    C4    A    
C69   H23   S    
