data_mof_unit_66148.cif
_audit_creation_date              2013-03-05T15:46:13-0500
_audit_creation_method            fapswitch 2.2
_symmetry_space_group_name_H-M    P1
_symmetry_Int_Tables_number       1
_space_group_crystal_system       triclinic
_cell_length_a                    11.162283
_cell_length_b                    11.296931
_cell_length_c                    9.971017
_cell_angle_alpha                 107.528349
_cell_angle_beta                  100.547878
_cell_angle_gamma                 90.990227
_cell_volume                      1175.17832806

loop_
_atom_site_label
_atom_site_type_symbol
_atom_site_description
_atom_site_fract_x
_atom_site_fract_y
_atom_site_fract_z
_atom_type_partial_charge
O1    O     O_R   0.511820 0.332340 0.577400 -0.561473
O2    O     O_R   0.474400 0.295500 0.332650 -0.542996
C1    C     C_R   0.487068 0.256249 0.444891 0.844626
O3    O     O_R   0.336400 0.518400 0.622370 -0.550536
O4    O     O_R   0.298980 0.481560 0.377620 -0.567334
C2    C     C_R   0.260805 0.503124 0.500144 0.856263
Cu1   Cu    Cu3+1 0.522160 0.521810 0.644910 1.040601
Cu2   Cu    Cu3+1 0.477840 0.478190 0.355090 1.086869
O5    O     O_R   0.525600 0.704500 0.667350 -0.570738
O6    O     O_R   0.488180 0.667660 0.422600 -0.549362
O7    O     O_R   0.701020 0.518440 0.622380 -0.590131
O8    O     O_R   0.663600 0.481600 0.377630 -0.537734
C3    C     C_R   0.496914 0.741556 0.553673 0.819568
C4    C     C_R   0.740482 0.498224 0.500942 0.869515
C5    C     C_3   0.095195 0.452163 0.629669 0.228078
C6    C     C_3   0.958496 0.479471 0.648152 0.183715
C7    C     C_3   0.075978 0.640537 0.521224 0.162896
C8    C     C_3   0.047571 0.410686 0.349754 0.153903
C9    C     C_3   0.123828 0.502482 0.500686 -0.189776
C10   C     C_3   0.880282 0.501273 0.503752 -0.178353
C11   C     C_3   0.929355 0.634462 0.499607 0.182199
C12   C     C_3   0.908606 0.396090 0.364306 0.199135
C13   C     C_2   0.444956 0.125491 0.419622 -0.031392
C14   C     C_2   0.503027 0.050915 0.489809 0.119850
C15   C     C_2   0.477962 0.873176 0.575054 0.048074
C16   C     C_2   0.456847 0.922011 0.464587 0.118890
N1    N     N_2   0.444530 0.445420 0.137360 -0.124157
C17   C     C_2   0.505363 0.511492 0.077991 0.286360
N2    N     N_2   0.555520 0.554510 0.862630 -0.169852
C18   C     C_2   0.513659 0.475351 0.920079 0.296152
N3    N     N_3   0.181223 0.504462 0.768203 -0.520405
H1    H     H_    0.189042 0.599518 0.812867 0.271618
H2    H     H_    0.157551 0.467655 0.845181 0.275855
I1    I     I_    0.790971 0.365933 0.156934 -0.178242
I2    I     I_    0.144297 0.749832 0.401742 -0.271521
N4    N     N_3   0.873193 0.652131 0.362681 -0.534045
H3    H     H_    0.880157 0.746186 0.368845 0.273933
H4    H     H_    0.914726 0.606568 0.279660 0.282566
N5    N     N_3   0.428642 0.841678 0.318725 -0.521579
H5    H     H_    0.460336 0.883434 0.250053 0.266302
H6    H     H_    0.334657 0.822172 0.285413 0.280983
I3    I     I_    0.692942 0.071097 0.570656 -0.197543
I4    I     I_    0.482285 0.977939 0.792444 -0.122467
I5    I     I_    0.277327 0.062504 0.267342 -0.224774
I6    I     I_    0.563563 0.293181 0.847836 -0.134544
I7    I     I_    0.618522 0.673910 0.204635 -0.238384
N6    N     N_3   0.676820 0.597107 0.919041 -0.430166
H7    H     H_    0.695521 0.667763 0.876689 0.294795
H8    H     H_    0.729921 0.523668 0.883695 0.285687
I8    I     I_    0.142076 0.257321 0.600012 -0.155778
I9    I     I_    0.319603 0.294375 0.017674 -0.088941
I10   I     I_    0.882490 0.347745 0.733304 -0.156169
I11   I     I_    0.952833 0.630075 0.848076 -0.255254
I12   I     I_    0.169978 0.786165 0.712763 -0.206606
N7    N     N_3   0.890293 0.736008 0.611451 -0.498101
H9    H     H_    0.921274 0.822414 0.607013 0.276996
H10   H     H_    0.794953 0.735679 0.591519 0.235705
I13   I     I_    0.075388 0.462129 0.156554 -0.237308
N8    N     N_3   0.093773 0.287085 0.314390 -0.503704
H11   H     H_    0.182639 0.293344 0.298388 0.267342
H12   H     H_    0.044011 0.231330 0.215201 0.290370
I14   I     I_    0.846159 0.210913 0.357409 -0.159483

loop_
_geom_bond_atom_site_label_1
_geom_bond_atom_site_label_2
_geom_bond_distance
_ccdc_geom_bond_type
O4    Cu2   2.049279 S    
C5    C9    1.632148 S    
N7    H9    1.046094 S    
N3    H2    1.046206 S    
N1    I9    2.088594 S    
C5    N3    1.477303 S    
N2    C18   1.318429 D    
Cu1   N2    2.050395 S    
C12   I14   2.170756 S    
C14   I3    2.107762 S    
C18   I6    2.087579 S    
C1    C13   1.474760 S    
N6    H7    1.043343 S    
C6    C10   1.629964 S    
Cu2   O8    2.042751 S    
C3    C15   1.462017 S    
C15   I4    2.125081 S    
C17   C18   1.523788 S    
O2    C1    1.308535 A    
N8    H11   1.037657 S    
N5    H6    1.039146 S    
C11   N4    1.466961 S    
O1    Cu1   2.035440 S    
Cu1   O7    2.049279 S    
C2    C9    1.529873 S    
C17   I7    2.120597 S    
N3    H1    1.026425 S    
N2    N6    1.384501 S    
O3    Cu1   2.042751 S    
N4    H4    1.028206 S    
N4    H3    1.046362 S    
C7    C9    1.623589 S    
O8    C4    1.323839 A    
Cu1   O5    2.006718 S    
N7    H10   1.045973 S    
O4    C2    1.322255 A    
C12   I1    2.163764 S    
O7    C4    1.320817 A    
C7    C11   1.608680 S    
C16   N5    1.437151 S    
N8    H12   1.046402 S    
O3    C2    1.311048 A    
C10   C12   1.619836 S    
C13   C14   1.351912 D    
C5    C6    1.594485 S    
N5    H5    1.045951 S    
C4    C10   1.555202 S    
C8    N8    1.461130 S    
Cu1   Cu2   2.729270 S    
C10   C11   1.607151 S    
N6    H8    1.039793 S    
C8    C9    1.620253 S    
C5    I8    2.215979 S    
N1    C17   1.328326 D    
C11   N7    1.474604 S    
Cu2   N1    2.050388 S    
O5    C3    1.311537 A    
C6    I11   2.208929 S    
C7    I2    2.170594 S    
C15   C16   1.359652 D    
C8    C12   1.594476 S    
C7    I12   2.183804 S    
C8    I13   2.243266 S    
Cu2   O6    2.035440 S    
O2    Cu2   2.006718 S    
C13   I5    2.139143 S    
C6    I10   2.153196 S    
C14   C16   1.468163 S    
O1    C1    1.317181 A    
O6    C3    1.306833 A    
