data_mof_unit_6858.cif
_audit_creation_date              2012-12-10T17:31:19-0500
_audit_creation_method            fapswitch 2.2
_symmetry_space_group_name_H-M    P1
_symmetry_Int_Tables_number       1
_space_group_crystal_system       triclinic
_cell_length_a                    18.962368
_cell_length_b                    18.81111
_cell_length_c                    12.406053
_cell_angle_alpha                 90.181578
_cell_angle_beta                  128.868444
_cell_angle_gamma                 89.783486
_cell_volume                      3445.44638722

loop_
_atom_site_label
_atom_site_type_symbol
_atom_type_description
_atom_site_fract_x
_atom_site_fract_y
_atom_site_fract_z
_atom_type_partial_charge
C1    C     C_R   0.607659 0.895105 0.646555 0.816982
C2    C     C_R   0.607040 0.104931 0.646632 0.823045
C3    C     C_R   0.107659 0.395105 0.646556 0.816982
C4    C     C_R   0.107039 0.604932 0.646631 0.823049
C5    C     C_R   0.254042 0.764444 0.055638 0.099615
C6    C     C_R   0.248338 0.230790 0.045996 0.097213
C7    C     C_R   0.754038 0.264448 0.055631 0.099616
C8    C     C_R   0.748335 0.730787 0.045991 0.097214
C9    C     C_R   0.690765 0.241488 0.073289 0.102573
C10   C     C_R   0.680756 0.750795 0.056369 0.099274
C11   C     C_R   0.190771 0.741483 0.073301 0.102578
C12   C     C_R   0.180761 0.250799 0.056375 0.099277
C13   C     C_R   0.619120 0.198374 0.976153 -0.203198
C14   C     C_R   0.607278 0.791411 0.954552 -0.200437
C15   C     C_R   0.119128 0.698366 0.976168 -0.203203
C16   C     C_R   0.107284 0.291416 0.954560 -0.200434
C17   C     C_R   0.605309 0.180970 0.856704 -0.139571
C18   C     C_R   0.597733 0.811417 0.839611 -0.144061
C19   C     C_R   0.105314 0.680964 0.856717 -0.139578
C20   C     C_R   0.097737 0.311420 0.839618 -0.144057
C21   C     C_R   0.321490 0.812580 0.153939 -0.271278
C22   C     C_R   0.317876 0.185043 0.148926 -0.270449
C23   C     C_R   0.821488 0.312582 0.153935 -0.271279
C24   C     C_R   0.817874 0.685041 0.148922 -0.270446
C25   C     C_R   0.250750 0.822885 0.261954 0.196400
C26   C     C_R   0.244085 0.173704 0.252025 0.193885
C27   C     C_R   0.750747 0.322887 0.261950 0.196395
C28   C     C_R   0.744089 0.673708 0.252032 0.193887
C29   C     C_R   0.660692 0.170311 0.721877 -0.193622
C30   C     C_R   0.662760 0.829741 0.720585 -0.199872
C31   C     C_R   0.160689 0.670311 0.721878 -0.193614
C32   C     C_R   0.162763 0.329742 0.720587 -0.199872
C33   C     C_R   0.682892 0.994407 0.278542 -0.274975
C34   C     C_R   0.182892 0.494411 0.278541 -0.274975
C35   C     C_R   0.343912 0.005135 0.631539 0.147793
C36   C     C_R   0.843912 0.505133 0.631537 0.147805
C37   C     C_R   0.309940 0.012126 0.704867 0.086611
C38   C     C_R   0.809937 0.512114 0.704863 0.086638
C39   C     C_R   0.383927 0.099114 0.342509 0.828702
C40   C     C_R   0.384772 0.900608 0.343383 0.825659
C41   C     C_R   0.883928 0.599114 0.342510 0.828703
C42   C     C_R   0.884771 0.400608 0.343383 0.825657
C43   C     C_R   0.369805 0.007811 0.848857 -0.193584
C44   C     C_R   0.869801 0.507798 0.848854 -0.193572
C45   C     C_R   0.462937 0.000777 0.921527 -0.005264
C46   C     C_R   0.962935 0.500772 0.921525 -0.005268
C47   C     C_R   0.494554 0.998729 0.841826 0.267219
C48   C     C_R   0.994553 0.498727 0.841826 0.267214
C49   C     C_R   0.526018 0.998825 0.070942 -0.022953
C50   C     C_R   0.026017 0.498822 0.070941 -0.022957
C51   C     C_R   0.618991 0.995541 0.135485 0.127527
C52   C     C_R   0.118990 0.495542 0.135485 0.127526
C53   C     C_R   0.648980 0.994577 0.057776 -0.254457
C54   C     C_R   0.148979 0.494579 0.057775 -0.254453
C55   C     C_R   0.588360 0.996808 0.914708 -0.167170
C56   C     C_R   0.088359 0.496809 0.914708 -0.167175
C57   C     C_R   0.501748 0.000098 0.160067 0.001672
C58   C     C_R   0.001747 0.500095 0.160066 0.001672
C59   C     C_R   0.657139 0.998693 0.361890 0.334860
C60   C     C_R   0.157139 0.498696 0.361890 0.334850
C61   C     C_R   0.692069 0.268609 0.178676 -0.188468
C62   C     C_R   0.681331 0.724423 0.161165 -0.180601
C63   C     C_R   0.192075 0.768604 0.178687 -0.188479
C64   C     C_R   0.181332 0.224423 0.161166 -0.180589
C65   C     C_R   0.318754 0.844134 0.254338 -0.113707
C66   C     C_R   0.315130 0.154004 0.249624 -0.110930
C67   C     C_R   0.818752 0.344135 0.254335 -0.113706
C68   C     C_R   0.815131 0.654005 0.249626 -0.110936
C69   C     C_R   0.705554 0.207022 0.681618 0.127820
C70   C     C_R   0.714609 0.797393 0.687472 0.146163
C71   C     C_R   0.205543 0.707028 0.681611 0.127792
C72   C     C_R   0.214611 0.297394 0.687474 0.146169
C73   C     C_R   0.277147 0.752776 0.776522 0.184934
C74   C     C_R   0.285008 0.250715 0.782788 0.189276
C75   C     C_R   0.777155 0.252772 0.776529 0.184945
C76   C     C_R   0.785008 0.750716 0.782790 0.189284
C77   C     C_R   0.298741 0.766665 0.904593 -0.253873
C78   C     C_R   0.300680 0.232889 0.905105 -0.262744
C79   C     C_R   0.798743 0.266666 0.904593 -0.253874
C80   C     C_R   0.800680 0.732890 0.905105 -0.262736
C81   C     C_R   0.743550 0.241598 0.936192 0.059446
C82   C     C_R   0.741060 0.755168 0.930200 0.058849
C83   C     C_R   0.243551 0.741595 0.936197 0.059445
C84   C     C_R   0.241063 0.255170 0.930203 0.058850
C85   C     C_R   0.670306 0.195965 0.838883 0.044081
C86   C     C_R   0.667509 0.800262 0.830721 0.038696
C87   C     C_R   0.170308 0.695961 0.838889 0.044088
C88   C     C_R   0.167512 0.300264 0.830725 0.038695
Cu1   Cu    Cu3+1 0.526340 1.000000 0.421010 0.966935
Cu2   Cu    Cu3+1 0.026340 0.500000 0.421010 0.966936
Cu3   Cu    Cu3+1 0.473640 0.000000 0.578990 0.965075
Cu4   Cu    Cu3+1 0.973640 0.500000 0.578990 0.965073
H1    H     H_    0.720824 0.992991 0.108492 0.157401
H2    H     H_    0.220823 0.492995 0.108492 0.157406
H3    H     H_    0.754225 0.991115 0.326453 0.155764
H4    H     H_    0.254225 0.491123 0.326453 0.155769
H5    H     H_    0.432012 0.000679 0.118486 0.127538
H6    H     H_    0.932011 0.500675 0.118486 0.127539
H7    H     H_    0.298213 0.005512 0.520863 0.173958
H8    H     H_    0.798215 0.505514 0.520861 0.173951
H9    H     H_    0.342271 0.012808 0.902527 0.129022
H10   H     H_    0.842266 0.512790 0.902521 0.129026
H11   H     H_    0.618390 0.998264 0.865440 0.209495
H12   H     H_    0.118390 0.498265 0.865440 0.209497
H13   H     H_    0.568886 0.183056 0.987127 0.176597
H14   H     H_    0.553947 0.804158 0.960126 0.179152
H15   H     H_    0.068895 0.683047 0.987145 0.176595
H16   H     H_    0.053954 0.304165 0.960136 0.179151
H17   H     H_    0.640462 0.252853 0.186571 0.183935
H18   H     H_    0.627350 0.738839 0.164743 0.179484
H19   H     H_    0.140470 0.752848 0.186585 0.183936
H20   H     H_    0.127350 0.238839 0.164742 0.179482
H21   H     H_    0.374657 0.828604 0.151003 0.174350
H22   H     H_    0.373505 0.171008 0.150347 0.175990
H23   H     H_    0.874656 0.328604 0.151002 0.174349
H24   H     H_    0.873500 0.671005 0.150341 0.175992
H25   H     H_    0.355385 0.801450 0.972584 0.162713
H26   H     H_    0.356763 0.197608 0.973771 0.162949
H27   H     H_    0.855386 0.301452 0.972584 0.162712
H28   H     H_    0.856766 0.697611 0.973774 0.162951
H29   H     H_    0.538717 0.161100 0.775281 0.213979
H30   H     H_    0.531830 0.831492 0.754840 0.210199
H31   H     H_    0.038722 0.661093 0.775298 0.213982
H32   H     H_    0.031833 0.331493 0.754846 0.210202
N1    N     N_R   0.566260 0.000000 0.302220 -0.182790
N2    N     N_R   0.066260 0.500000 0.302220 -0.182787
N3    N     N_R   0.434410 0.000000 0.697680 -0.222130
N4    N     N_R   0.934410 0.500000 0.697680 -0.222135
O1    O     O_R   0.608610 0.924520 0.551740 -0.572781
O2    O     O_R   0.608610 0.075480 0.551740 -0.567952
O3    O     O_R   0.108610 0.424520 0.551740 -0.572776
O4    O     O_R   0.108610 0.575480 0.551740 -0.567954
O5    O     O_R   0.564110 0.924510 0.685150 -0.613457
O6    O     O_R   0.564110 0.075490 0.685150 -0.616885
O7    O     O_R   0.064110 0.424510 0.685150 -0.613457
O8    O     O_R   0.064110 0.575490 0.685150 -0.616887
O9    O     O_R   0.435880 0.075470 0.314850 -0.587727
O10   O     O_R   0.435880 0.924530 0.314850 -0.589532
O11   O     O_R   0.935880 0.575470 0.314850 -0.587724
O12   O     O_R   0.935880 0.424530 0.314850 -0.589532
O13   O     O_R   0.391380 0.075460 0.448260 -0.556570
O14   O     O_R   0.391380 0.924540 0.448260 -0.554403
O15   O     O_R   0.891380 0.575460 0.448260 -0.556573
O16   O     O_R   0.891380 0.424540 0.448260 -0.554405
I1    I     I_    0.213129 0.876650 0.366926 -0.368993
I2    I     I_    0.208617 0.124706 0.363253 -0.374785
I3    I     I_    0.713132 0.376647 0.366933 -0.368999
I4    I     I_    0.708642 0.624729 0.363301 -0.374738
C89   C     C_3   0.211867 0.030964 0.634320 -0.413815
C90   C     C_3   0.145417 0.972500 0.537587 -0.303652
C91   C     C_3   0.053897 0.981629 0.505655 -0.818756
H33   H     H_    0.061636 0.976250 0.601779 0.252402
H34   H     H_    0.024594 0.034643 0.458862 0.262070
H35   H     H_    0.006430 0.939968 0.431301 0.256947
H36   H     H_    0.133868 0.975961 0.438506 0.258403
H37   H     H_    0.173381 0.919275 0.584922 0.266720
H38   H     H_    0.203057 0.042036 0.713434 0.208235
H39   H     H_    0.194038 0.081283 0.576079 0.244208
C92   C     C_3   0.711865 0.530950 0.634319 -0.413921
C93   C     C_3   0.645418 0.472517 0.537553 -0.303851
C94   C     C_3   0.553899 0.481683 0.505573 -0.819202
H40   H     H_    0.561574 0.476255 0.601602 0.252479
H41   H     H_    0.524658 0.534710 0.458917 0.262152
H42   H     H_    0.506430 0.440087 0.431135 0.257051
H43   H     H_    0.633909 0.475974 0.438522 0.258474
H44   H     H_    0.673344 0.419289 0.584851 0.266776
H45   H     H_    0.703040 0.541997 0.713407 0.208310
H46   H     H_    0.694048 0.581272 0.576127 0.244261
I5    I     I_    0.652042 0.207468 0.469797 -0.358308
I6    I     I_    0.678051 0.806157 0.485583 -0.341192
I7    I     I_    0.152004 0.707490 0.469777 -0.358343
I8    I     I_    0.178063 0.306164 0.485590 -0.341189
I9    I     I_    0.356355 0.804034 0.734318 -0.422485
I10   I     I_    0.371648 0.204196 0.749565 -0.412666
I11   I     I_    0.856369 0.304028 0.734333 -0.422457
I12   I     I_    0.871654 0.704202 0.749575 -0.412657
C95   C     C_3   0.734736 0.998014 0.516969 -0.364617
C96   C     C_3   0.801201 0.060796 0.566119 -0.360595
C97   C     C_3   0.897913 0.035756 0.636256 -0.822708
H47   H     H_    0.923077 0.002606 0.728078 0.265989
H48   H     H_    0.900472 0.004290 0.562880 0.249976
H49   H     H_    0.943035 0.082552 0.670875 0.259929
H50   H     H_    0.779658 0.096518 0.478963 0.250681
H51   H     H_    0.802454 0.093234 0.642352 0.246815
H52   H     H_    0.712680 0.998577 0.579572 0.238756
H53   H     H_    0.771399 0.946782 0.542213 0.214110
C98   C     C_3   0.234737 0.498027 0.516968 -0.364621
C99   C     C_3   0.301169 0.560831 0.566099 -0.360567
C100  C     C_3   0.397893 0.535828 0.636231 -0.822759
H54   H     H_    0.423090 0.502697 0.728080 0.265992
H55   H     H_    0.400462 0.504361 0.562874 0.249988
H56   H     H_    0.442982 0.582639 0.670802 0.259947
H57   H     H_    0.279604 0.596553 0.478934 0.250694
H58   H     H_    0.302410 0.593260 0.642329 0.246819
H59   H     H_    0.212682 0.498573 0.579573 0.238754
H60   H     H_    0.271425 0.446806 0.542221 0.214098

loop_
_geom_bond_atom_site_label_1
_geom_bond_atom_site_label_2
_ccdc_geom_bond_type
C83   C87   A    
C39   O9    A    
C40   O14   A    
C98   H60   S    
C14   C18   A    
C53   C55   A    
C58   H6    S    
C48   C56   A    
C61   H17   S    
C80   H28   S    
C96   C97   S    
C49   C57   A    
C32   C72   A    
Cu1   N1    S    
C15   C19   A    
Cu3   O6    S    
C19   H31   S    
C2    O6    A    
Cu3   N3    S    
C2    C29   S    
C9    C61   A    
C72   I8    S    
C78   H26   S    
C34   H4    S    
C38   C92   S    
C41   O15   A    
C1    O1    A    
C57   N1    A    
C12   C64   A    
C1    O5    A    
C64   H20   S    
C77   C83   A    
C23   C67   A    
C6    C22   A    
C55   H11   S    
C95   H52   S    
C92   H46   S    
C26   I2    S    
C25   C63   A    
C91   H35   S    
C15   H15   S    
C100  H55   S    
Cu4   O15   S    
C9    C13   A    
C22   C66   A    
C26   C64   A    
C27   C61   A    
C30   C70   A    
C11   C15   A    
C12   C16   A    
C41   O11   A    
C52   C54   A    
C49   C51   A    
C79   H27   S    
C50   C52   A    
C91   H33   S    
C93   H44   S    
C30   C86   A    
C89   H39   S    
C29   C85   A    
C96   H50   S    
C4    O8    A    
C97   H49   S    
C98   H59   S    
C31   C71   A    
C99   H58   S    
C33   C59   A    
C90   H37   S    
C34   C60   A    
C10   C62   A    
C35   H7    S    
C33   H3    S    
C6    C12   A    
C94   H41   S    
C58   N2    A    
C44   C46   A    
Cu2   O11   S    
C41   C68   S    
C29   C69   A    
C45   C47   A    
C46   C48   A    
C28   I4    S    
C13   H13   S    
C6    C84   A    
C75   I11   S    
C26   C66   A    
C39   O13   A    
C59   C95   S    
C31   C87   A    
C56   H12   S    
C72   C74   A    
C10   C14   A    
C79   C81   A    
C44   H10   S    
C17   C85   A    
C82   C86   A    
C24   C68   A    
C42   O12   A    
C95   H53   S    
C3    O3    A    
C40   O10   A    
C99   C100  S    
C51   C53   A    
C50   C58   A    
C37   C43   A    
C100  H56   S    
C43   H9    S    
C5    C83   A    
C38   C44   A    
C54   H2    S    
C48   N4    A    
C77   H25   S    
Cu2   Cu4   S    
C92   C93   S    
C62   H18   S    
C76   I12   S    
C16   C20   A    
C57   H5    S    
C45   C49   A    
Cu2   N2    S    
C25   C65   A    
C3    C32   S    
C36   H8    S    
C69   I5    S    
C93   H43   S    
Cu4   O8    S    
C35   N3    A    
C43   C45   A    
C80   C82   A    
Cu3   O5    S    
C18   H30   S    
C74   I10   S    
Cu2   O3    S    
C21   H21   S    
C7    C81   A    
C99   H57   S    
C24   H24   S    
C60   C98   S    
Cu1   O9    S    
C90   H36   S    
C42   O16   A    
C42   C67   S    
C39   C66   S    
C71   I7    S    
Cu4   O7    S    
Cu1   Cu3   S    
Cu1   O2    S    
C36   N4    A    
C94   H42   S    
C35   C37   A    
C47   C55   A    
C17   H29   S    
C7    C9    A    
Cu4   N4    S    
C21   C65   A    
C34   C52   A    
C95   C96   S    
C76   C80   A    
C37   C89   S    
C28   C68   A    
Cu2   O12   S    
C54   C56   A    
C5    C11   A    
C33   C51   A    
C46   C50   A    
C22   H22   S    
C11   C63   A    
C73   I9    S    
C13   C17   A    
C40   C65   S    
C93   C94   S    
Cu3   O14   S    
C60   N2    A    
C70   I6    S    
C19   C87   A    
Cu2   O4    S    
C98   C99   S    
C27   I3    S    
C94   H40   S    
C59   N1    A    
C70   C76   A    
C4    O4    A    
C18   C86   A    
C84   C88   A    
C89   H38   S    
C47   N3    A    
C7    C23   A    
C20   C88   A    
C36   C38   A    
C1    C30   S    
C8    C24   A    
C2    O2    A    
C92   H45   S    
C69   C75   A    
C3    O7    A    
C91   H34   S    
C63   H19   S    
C100  H54   S    
Cu4   O16   S    
C81   C85   A    
C20   H32   S    
C4    C31   S    
C27   C67   A    
C16   H16   S    
C23   H23   S    
C97   H47   S    
C78   C84   A    
C8    C82   A    
C5    C21   A    
C8    C10   A    
Cu1   O10   S    
C74   C78   A    
C14   H14   S    
C71   C73   A    
C73   C77   A    
C90   C91   S    
C25   I1    S    
Cu3   O13   S    
C89   C90   S    
Cu1   O1    S    
C75   C79   A    
C53   H1    S    
C96   H51   S    
C28   C62   A    
C97   H48   S    
C32   C88   A    
