data_mof_unit_20736.cif
_audit_creation_date              2012-10-26T19:02:34-0400
_audit_creation_method            fapswitch 2.2
_symmetry_space_group_name_H-M    P1
_symmetry_Int_Tables_number       1
_space_group_crystal_system       triclinic
_cell_length_a                    17.3574
_cell_length_b                    8.681772
_cell_length_c                    7.525478
_cell_angle_alpha                 103.20449
_cell_angle_beta                  92.951397
_cell_angle_gamma                 94.467073
_cell_volume                      1097.8926062

loop_
_atom_site_label
_atom_site_type_symbol
_atom_type_description
_atom_site_fract_x
_atom_site_fract_y
_atom_site_fract_z
_atom_type_partial_charge
C1    C     C_R   0.496945 0.199664 0.453445 0.528782
C2    C     C_R   0.780903 0.576370 0.643413 0.270867
C3    C     C_R   0.140422 0.514420 0.369320 0.298064
C4    C     C_R   0.862065 0.583041 0.641731 0.296229
C5    C     C_R   0.113104 0.592099 0.536544 -0.014289
C6    C     C_R   0.894976 0.499360 0.486017 -0.001587
C7    C     C_R   0.163897 0.646822 0.692094 -0.190004
C8    C     C_R   0.848027 0.421626 0.329448 -0.195352
C9    C     C_R   0.240983 0.614663 0.686931 -0.216262
C10   C     C_R   0.768135 0.427106 0.325615 -0.218049
C11   C     C_2   0.030666 0.609220 0.552814 -0.100863
C12   C     C_R   0.502910 0.800337 0.546602 0.527023
C13   C     C_2   0.978306 0.485053 0.485585 -0.074176
C14   C     C_3   0.241936 0.459958 0.063805 -0.069517
C15   C     C_3   0.752308 0.543837 0.925099 -0.090214
C16   C     C_3   0.903579 0.818151 0.847504 -0.125523
C17   C     C_3   0.070793 0.594215 0.144437 -0.136949
C18   C     C_3   0.405544 0.224074 0.976094 -0.044075
C19   C     C_3   0.594344 0.775244 0.028393 -0.034818
C20   C     C_2   0.493688 0.031184 0.428226 -0.155133
C21   C     C_2   0.505886 0.968821 0.571988 -0.155130
C22   C     C_R   0.351177 0.504091 0.521285 0.556051
C23   C     C_R   0.649005 0.500955 0.479853 0.552425
C24   C     C_R   0.268170 0.526427 0.526419 -0.016032
C25   C     C_R   0.733815 0.504890 0.480988 -0.015156
C26   C     C_R   0.217839 0.477210 0.365050 0.295034
Cu1   Cu    Cu3+1 0.508700 0.517250 0.683000 1.040003
Cu2   Cu    Cu3+1 0.491300 0.482750 0.317000 1.038993
H1    H     H_    0.732872 0.365376 0.203490 0.128518
H2    H     H_    0.185284 0.433543 0.983571 0.163600
H3    H     H_    0.283807 0.410894 0.966085 0.177712
H4    H     H_    0.812267 0.514933 0.953608 0.145484
H5    H     H_    0.713921 0.432086 0.873608 0.139215
H6    H     H_    0.732528 0.606226 0.057840 0.169034
H7    H     H_    0.855757 0.846843 0.938223 0.172360
H8    H     H_    0.896703 0.871312 0.726603 0.101748
H9    H     H_    0.958028 0.875786 0.926688 0.120928
H10   H     H_    0.120971 0.684104 0.150923 0.085929
H11   H     H_    0.022696 0.651558 0.216841 0.142995
H12   H     H_    0.279645 0.660000 0.808390 0.134620
H13   H     H_    0.049804 0.550739 0.998386 0.171189
H14   H     H_    0.375650 0.235941 0.104410 0.182762
H15   H     H_    0.459908 0.164909 0.980465 0.114111
H16   H     H_    0.366033 0.145626 0.866102 0.096339
H17   H     H_    0.539215 0.832284 0.026962 0.107429
H18   H     H_    0.623230 0.769587 0.899697 0.190212
H19   H     H_    0.633625 0.852076 0.140110 0.092609
H20   H     H_    0.997016 0.370743 0.418904 0.160603
H21   H     H_    0.013710 0.725296 0.616375 0.146416
H22   H     H_    0.143307 0.710859 0.819063 0.121952
H23   H     H_    0.873490 0.357024 0.209375 0.133926
H24   H     H_    0.480455 0.958182 0.290728 0.113523
H25   H     H_    0.518953 0.041836 0.709601 0.114676
H26   H     H_    0.258074 0.590477 0.109750 0.094327
N1    N     N_2   0.478180 0.456750 0.041980 0.097600
N2    N     N_2   0.521820 0.543250 0.958020 0.098710
O1    O     O_R   0.505650 0.286040 0.618880 -0.479777
O2    O     O_3   0.748014 0.644817 0.802573 -0.586922
O3    O     O_3   0.909144 0.652326 0.799050 -0.595136
O4    O     O_3   0.090790 0.462470 0.212757 -0.578651
O5    O     O_3   0.418697 0.371642 0.931833 -0.486418
O6    O     O_3   0.583206 0.624126 0.064833 -0.479953
O7    O     O_R   0.494350 0.713960 0.381120 -0.483784
O8    O     O_R   0.490960 0.256910 0.309800 -0.553121
O9    O     O_R   0.509040 0.743090 0.690200 -0.552825
O10   O     O_R   0.394600 0.516230 0.672450 -0.477036
O11   O     O_R   0.605400 0.483770 0.327550 -0.474563
O12   O     O_R   0.379910 0.487100 0.363380 -0.481609
O13   O     O_R   0.620090 0.512900 0.636620 -0.480562
O14   O     O_3   0.243258 0.381536 0.208992 -0.558510

loop_
_geom_bond_atom_site_label_1
_geom_bond_atom_site_label_2
_ccdc_geom_bond_type
C9    H12   S    
C13   H20   S    
C2    C4    A    
N1    N2    D    
C2    O2    S    
C9    C24   A    
C7    C9    A    
C11   H21   S    
C18   H16   S    
C11   C13   D    
C12   O9    A    
C23   O13   A    
C15   H6    S    
Cu1   O13   S    
C16   H9    S    
N2    O6    S    
C3    O4    S    
C14   H3    S    
C23   C25   S    
C19   H18   S    
C15   H4    S    
C18   O5    S    
Cu1   O10   S    
C18   H15   S    
C16   H8    S    
C6    C13   S    
C21   H25   S    
C14   O14   S    
C8    H23   S    
C22   O12   A    
C14   H2    S    
Cu1   O9    S    
Cu2   O8    S    
C10   C25   A    
C8    C10   A    
Cu2   O12   S    
Cu2   N1    S    
C24   C26   A    
C5    C11   S    
C2    C25   A    
C1    O1    A    
C17   H10   S    
C18   H14   S    
C16   H7    S    
Cu1   O1    S    
C26   O14   S    
C15   O2    S    
C22   C24   S    
C17   H13   S    
C17   O4    S    
C12   C21   S    
Cu2   O7    S    
N1    O5    S    
Cu2   O11   S    
C20   C21   D    
C4    O3    S    
C20   H24   S    
C4    C6    A    
C17   H11   S    
C19   H19   S    
C23   O11   A    
Cu1   Cu2   S    
C5    C7    A    
C12   O7    A    
Cu1   N2    S    
C22   O10   A    
C1    C20   S    
C6    C8    A    
C19   O6    S    
C14   H26   S    
C10   H1    S    
C1    O8    A    
C15   H5    S    
C3    C26   A    
C19   H17   S    
C7    H22   S    
C3    C5    A    
C16   O3    S    
