data_mof_unit_34847.cif
_audit_creation_date              2012-12-11T15:48:33-0500
_audit_creation_method            fapswitch 2.2
_symmetry_space_group_name_H-M    P1
_symmetry_Int_Tables_number       1
_space_group_crystal_system       triclinic
_cell_length_a                    11.028995
_cell_length_b                    10.938495
_cell_length_c                    18.766279
_cell_angle_alpha                 90.667239
_cell_angle_beta                  89.989064
_cell_angle_gamma                 61.236367
_cell_volume                      1984.45060837

loop_
_atom_site_label
_atom_site_type_symbol
_atom_type_description
_atom_site_fract_x
_atom_site_fract_y
_atom_site_fract_z
_atom_type_partial_charge
C1    C     C_R   0.283888 0.628138 0.616068 0.538693
C2    C     C_R   0.583588 0.123583 0.706642 -0.174340
C3    C     C_R   0.584585 0.121440 0.780156 -0.160897
C4    C     C_R   0.653887 0.619857 0.601357 0.539622
C5    C     C_3   0.925207 0.090478 0.781157 -0.191225
C6    C     C_3   0.916599 0.101933 0.700282 0.177376
C7    C     C_R   0.669224 0.163323 0.670618 0.049643
C8    C     C_R   0.188246 0.670543 0.837736 -0.037707
C9    C     C_R   0.180199 0.568605 0.796533 0.007663
C10   C     C_R   0.204993 0.559943 0.724267 0.003451
C11   C     C_R   0.225824 0.771820 0.729357 0.278586
C12   C     C_3   0.724666 0.521227 0.797911 -0.251219
C13   C     C_R   0.209994 0.772711 0.803610 -0.169695
C14   C     C_3   0.259654 0.414089 0.804030 -0.279058
C15   C     C_3   0.285923 0.405796 0.724461 -0.261398
C16   C     C_R   0.627591 0.227101 0.601592 0.522397
C17   C     C_R   0.234581 0.654788 0.689961 0.033171
C18   C     C_R   0.653850 0.646431 0.163512 0.049811
C19   C     C_R   0.763548 0.552511 0.205266 0.022812
C20   C     C_R   0.748727 0.537150 0.276142 0.005238
C21   C     C_R   0.504673 0.684566 0.267206 -0.126797
C22   C     C_R   0.519890 0.700199 0.193245 -0.108889
C23   C     C_3   0.707205 0.667630 0.812847 0.023008
C24   C     C_3   0.902469 0.540289 0.216482 -0.241456
C25   C     C_3   0.884483 0.526324 0.295034 -0.262721
C26   C     C_R   0.622308 0.609847 0.310085 0.014597
C27   C     C_R   0.629567 0.200494 0.166430 0.020687
C28   C     C_R   0.220021 0.649134 0.402335 0.506169
C29   C     C_R   0.503010 0.237587 0.201699 0.000950
C30   C     C_R   0.492715 0.262358 0.273959 -0.009424
C31   C     C_R   0.706359 0.268612 0.273758 -0.115824
C32   C     C_R   0.723488 0.233519 0.201037 -0.154002
C33   C     C_3   0.401001 0.182504 0.208354 -0.057053
C34   C     C_3   0.678064 0.640902 0.676869 0.063841
C35   C     C_3   0.409769 0.190778 0.288568 -0.241028
C36   C     C_R   0.595708 0.271019 0.312151 0.037527
C37   C     C_R   0.147637 0.680759 0.183572 0.005648
C38   C     C_R   0.149528 0.787628 0.224392 -0.060495
C39   C     C_R   0.147279 0.784074 0.296268 0.080821
C40   C     C_R   0.616521 0.589043 0.386501 0.535407
C41   C     C_R   0.171728 0.555447 0.292501 -0.166592
C42   C     C_R   0.169408 0.559600 0.217918 -0.171256
C43   C     C_3   0.065552 0.943968 0.225598 -0.179147
C44   C     C_3   0.063681 0.938085 0.307073 0.511023
C45   C     C_3   0.799917 0.672129 0.687746 0.158354
C46   C     C_R   0.160211 0.669393 0.332558 -0.009846
C47   C     C_R   0.703525 0.096023 0.894493 0.537847
C48   C     C_R   0.725567 0.686774 0.888673 0.535740
C49   C     C_R   0.120410 0.705920 0.906941 0.544059
C50   C     C_R   0.672751 0.111511 0.102684 0.563381
C51   C     C_R   0.693735 0.685741 0.095495 0.551440
C52   C     C_R   0.580942 0.294044 0.388618 0.555848
C53   C     C_R   0.092424 0.711513 0.112685 0.549511
C54   C     C_3   0.562797 0.775924 0.788793 -0.268195
C55   C     C_3   0.547954 0.761479 0.708891 -0.281600
C56   C     C_3   0.707251 0.505585 0.717974 -0.199517
C57   C     C_3   0.817653 0.685918 0.768947 -0.159454
C58   C     C_3   0.964185 0.602886 0.596509 -0.095785
C59   C     C_3   0.979182 0.976551 0.593617 -0.067804
C60   C     C_3   0.247716 0.982949 0.730479 -0.132367
C61   C     C_2   0.439439 0.041975 0.179924 0.618871
C62   C     C_3   0.070009 0.140226 0.341474 -0.105909
C63   C     C_3   0.927572 0.949257 0.405978 -0.084968
C64   C     C_R   0.684169 0.139821 0.820014 0.016064
C65   C     C_R   0.773369 0.172233 0.783041 -0.065733
C66   C     C_R   0.764703 0.185304 0.709129 0.005645
Cr1   Cr    Cr6+3 0.392960 0.397920 0.502240 0.972423
Cr2   Cr    Cr6+3 0.398340 0.708480 0.501250 1.025360
Cr3   Cr    Cr6+3 0.708670 0.393570 0.496460 0.964417
Cr4   Cr    Cr6+3 0.937650 0.938540 0.007610 1.013011
Cr5   Cr    Cr6+3 0.625330 0.937370 0.994520 1.029608
Cr6   Cr    Cr6+3 0.937940 0.625230 0.001190 1.013019
H1    H     H_    0.544080 0.883005 0.800471 0.137954
H2    H     H_    0.201907 0.859533 0.834906 0.131831
H3    H     H_    0.192158 0.369376 0.819920 0.141146
H4    H     H_    0.354661 0.379958 0.836464 0.141861
H5    H     H_    0.394415 0.373199 0.710158 0.149952
H6    H     H_    0.235026 0.355512 0.693937 0.164016
H7    H     H_    0.403349 0.734503 0.291280 0.158409
H8    H     H_    0.428872 0.758186 0.161696 0.118061
H9    H     H_    0.903112 0.638745 0.203293 0.180527
H10   H     H_    0.984202 0.442938 0.191266 0.134952
H11   H     H_    0.958624 0.422801 0.316044 0.113801
H12   H     H_    0.803537 0.415128 0.697498 0.173116
H13   H     H_    0.464427 0.735862 0.700348 0.188475
H14   H     H_    0.873913 0.616991 0.327283 0.163009
H15   H     H_    0.784933 0.282934 0.300759 0.141769
H16   H     H_    0.816438 0.219339 0.174261 0.120562
H17   H     H_    0.297996 0.257975 0.188321 0.098870
H18   H     H_    0.309316 0.253764 0.315076 0.101826
H19   H     H_    0.473651 0.088336 0.314370 0.186985
H20   H     H_    0.177747 0.466937 0.319428 0.127747
H21   H     H_    0.170024 0.476034 0.187278 0.119474
H22   H     H_    0.962079 0.980468 0.201652 0.162589
H23   H     H_    0.922542 0.605830 0.785417 0.174297
H24   H     H_    0.525195 0.859708 0.681470 0.115726
H25   H     H_    0.125549 0.993010 0.204018 0.140439
H26   H     H_    0.809336 0.789702 0.780918 0.099546
H27   H     H_    0.771775 0.775575 0.663632 0.100920
H28   H     H_    0.828895 0.438979 0.814550 0.139501
H29   H     H_    0.646567 0.505880 0.828465 0.114580
H30   H     H_    0.620767 0.481697 0.709642 0.093893
H31   H     H_    0.998168 0.680621 0.609646 0.141469
H32   H     H_    0.879719 0.646653 0.556639 0.114745
H33   H     H_    0.052148 0.510075 0.571771 0.162519
H34   H     H_    0.505685 0.108336 0.678824 0.122088
H35   H     H_    0.062575 0.004041 0.583962 0.164540
H36   H     H_    0.885181 0.048572 0.565170 0.101697
H37   H     H_    0.010163 0.873217 0.569197 0.132473
H38   H     H_    0.306129 0.947057 0.779995 0.081996
H39   H     H_    0.151833 0.077872 0.742425 0.110423
H40   H     H_    0.304053 0.019538 0.695389 0.121968
H41   H     H_    0.389278 0.939624 0.104073 0.333264
H42   H     H_    0.038119 0.181855 0.286936 0.095688
H43   H     H_    0.979409 0.181715 0.378103 0.156552
H44   H     H_    0.140411 0.178409 0.361636 0.116917
H45   H     H_    0.507961 0.101117 0.805177 0.136606
H46   H     H_    0.003110 0.964347 0.438929 0.140953
H47   H     H_    0.944587 0.841189 0.409827 0.095070
H48   H     H_    0.823691 0.016418 0.429130 0.159894
H49   H     H_    0.960916 0.983664 0.801057 0.184826
H50   H     H_    0.969504 0.150524 0.808391 0.073027
H51   H     H_    0.962219 0.164339 0.677312 0.098787
H52   H     H_    0.485107 0.758825 0.818627 0.123215
O1    O     O_R   0.507380 0.255700 0.581440 -0.531625
O2    O     O_R   0.837170 0.593410 0.915250 -0.531078
O3    O     O_R   0.065200 0.635530 0.931570 -0.496634
O4    O     O_R   0.280320 0.527350 0.578930 -0.529322
O5    O     O_R   0.068260 0.828890 0.091840 -0.525823
O6    O     O_R   0.798870 0.057410 0.079340 -0.516154
O7    O     O_R   0.584930 0.080350 0.076780 -0.482240
O8    O     O_R   0.626960 0.809650 0.067060 -0.477884
O9    O     O_R   0.816040 0.596610 0.076510 -0.527514
O10   O     O_R   0.045610 0.638500 0.081060 -0.509072
O11   O     O_3   0.833640 0.833710 0.001100 -0.254606
O12   O     O_R   0.524480 0.695810 0.424040 -0.481353
O13   O     O_R   0.260510 0.739590 0.584590 -0.479267
O14   O     O_R   0.532300 0.695080 0.573820 -0.514747
O15   O     O_R   0.744840 0.503500 0.576370 -0.495939
O16   O     O_R   0.699120 0.276560 0.571960 -0.522023
O17   O     O_R   0.498940 0.256500 0.419860 -0.514657
O18   O     O_R   0.272500 0.528080 0.429150 -0.528017
O19   O     O_R   0.252060 0.740380 0.423010 -0.500649
O20   O     O_3   0.924014 0.561352 0.659114 -0.576985
O21   O     O_3   0.954444 0.971325 0.667034 -0.540581
O22   O     O_3   0.226042 0.882636 0.691872 -0.525351
O23   O     O_R   0.736390 0.504290 0.414790 -0.537669
O24   O     O_2   0.548771 0.941841 0.196536 -0.509012
O25   O     O_R   0.348875 0.030427 0.131508 -0.724446
O26   O     O_3   0.141563 0.993347 0.341640 -0.557724
O27   O     O_3   0.927328 0.985760 0.334039 -0.575426
O28   O     O_R   0.691300 0.277290 0.422170 -0.528987
O29   O     O_3   0.499990 0.499990 0.499980 -0.301614
O30   O     O_R   0.089400 0.825690 0.930570 -0.537626
O31   O     O_R   0.818460 0.054440 0.929850 -0.506036
O32   O     O_R   0.606060 0.077150 0.915510 -0.538431
O33   O     O_R   0.646550 0.806680 0.917570 -0.517398

loop_
_geom_bond_atom_site_label_1
_geom_bond_atom_site_label_2
_ccdc_geom_bond_type
Cr3   O15   S    
C21   C26   A    
C34   C56   S    
C8    C13   A    
C29   C33   S    
C27   C29   A    
C42   H21   S    
C11   C13   A    
C41   C42   A    
Cr2   O14   S    
C2    C7    A    
C1    O4    A    
C43   C44   S    
C3    C64   A    
C40   O12   A    
C12   C23   S    
C45   C57   S    
C29   C30   A    
C20   C26   A    
C30   C35   S    
C5    C6    S    
C61   O24   D    
C62   H42   S    
C10   C15   S    
Cr1   O1    S    
Cr5   O11   S    
C38   C39   A    
C15   H6    S    
C20   C25   S    
Cr5   O32   S    
C10   C17   A    
C32   H16   S    
C5    H49   S    
Cr4   O6    S    
C43   H22   S    
C62   H43   S    
Cr2   O19   S    
C18   C19   A    
C37   C42   A    
C24   H10   S    
C50   O6    A    
C59   H37   S    
Cr5   O8    S    
C19   C20   A    
C8    C9    A    
C45   O20   S    
C41   C46   A    
C3    H45   S    
C9    C10   A    
C31   C36   A    
C36   C52   S    
C27   C50   S    
C37   C53   S    
C22   H8    S    
Cr3   O16   S    
C58   H32   S    
C34   C55   S    
Cr4   O30   S    
C21   C22   A    
Cr2   O13   S    
C16   O16   A    
C60   O22   S    
C6    H51   S    
Cr5   O33   S    
C52   O17   A    
C18   C51   S    
C56   H12   S    
C49   O3    A    
C4    C34   S    
C44   O27   S    
C31   H15   S    
Cr6   O3    S    
Cr4   O31   S    
H41   O25   S    
C49   O30   A    
Cr2   O12   S    
C24   C25   S    
C5    C65   S    
Cr2   O29   S    
C45   H27   S    
C47   C64   S    
C34   C45   S    
C6    O21   S    
Cr6   O11   S    
C48   O2    A    
C5    H50   S    
C2    H34   S    
Cr4   O5    S    
C59   H35   S    
Cr6   O2    S    
C14   H4    S    
C55   H13   S    
C24   H9    S    
C62   H44   S    
C37   C38   A    
C60   H40   S    
C33   H17   S    
C54   H1    S    
C63   H47   S    
Cr6   O10   S    
C31   C32   A    
C52   O28   A    
C28   C46   S    
C21   H7    S    
C9    C14   S    
C28   O19   A    
C63   O27   S    
C12   C56   S    
C39   C46   A    
C59   O21   S    
C7    C16   S    
C57   H23   S    
Cr4   O11   S    
Cr3   O23   S    
C38   C43   S    
C53   O5    A    
Cr1   O17   S    
C1    O13   A    
C23   C54   S    
Cr3   O29   S    
C16   O1    A    
C23   C57   S    
C54   H52   S    
C54   C55   S    
C11   C17   A    
C23   C48   S    
C62   O26   S    
C40   O23   A    
C27   C32   A    
C18   C22   A    
Cr3   O28   S    
C53   O10   A    
C43   H25   S    
C55   H24   S    
C63   H46   S    
C51   O8    A    
C11   O22   S    
C39   C44   S    
C48   O33   A    
C1    C17   S    
C59   H36   S    
C30   C36   A    
Cr1   O29   S    
C58   H33   S    
C64   C65   A    
C2    C3    A    
C56   H30   S    
C12   H29   S    
C60   H39   S    
Cr1   O4    S    
C14   H3    S    
C4    O15   A    
C63   H48   S    
C51   O9    A    
C26   C40   S    
Cr6   O9    S    
C15   H5    S    
C47   O31   A    
C57   H26   S    
C25   H14   S    
C33   C35   S    
C19   C24   S    
C44   O26   S    
C12   H28   S    
C60   H38   S    
C50   O7    A    
C4    O14   A    
C35   H18   S    
C58   O20   S    
C6    C66   S    
C41   H20   S    
C28   O18   A    
C13   H2    S    
Cr5   O7    S    
C33   C61   S    
C65   C66   A    
C47   O32   A    
C25   H11   S    
C14   C15   S    
C58   H31   S    
Cr1   O18   S    
C61   O25   S    
C8    C49   S    
C7    C66   A    
C35   H19   S    
