data_mof_unit_20543.cif
_audit_creation_date              2012-12-10T20:28:45-0500
_audit_creation_method            fapswitch 2.2
_symmetry_space_group_name_H-M    P1
_symmetry_Int_Tables_number       1
_space_group_crystal_system       triclinic
_cell_length_a                    10.665107
_cell_length_b                    10.726916
_cell_length_c                    9.854537
_cell_angle_alpha                 88.421153
_cell_angle_beta                  88.648969
_cell_angle_gamma                 90.505593
_cell_volume                      1126.60363526

loop_
_atom_site_label
_atom_site_type_symbol
_atom_type_description
_atom_site_fract_x
_atom_site_fract_y
_atom_site_fract_z
_atom_type_partial_charge
C1    C     C_R   0.505046 0.260315 0.501445 0.904714
C2    C     C_R   0.584425 0.939103 0.399087 0.022463
C3    C     C_R   0.504728 0.871479 0.491685 -0.118017
C4    C     C_R   0.262816 0.522622 0.501378 0.968402
C5    C     C_R   0.425511 0.932659 0.580831 0.038837
C6    C     C_3   0.410476 0.913389 0.730849 -0.465904
C7    C     C_3   0.420743 0.053258 0.739421 0.227267
C8    C     C_R   0.397513 0.457111 0.074989 0.153578
C9    C     C_R   0.594607 0.554895 0.067813 -0.152222
C10   C     C_R   0.594991 0.554400 0.923894 -0.152582
C11   C     C_R   0.397344 0.458182 0.931887 0.160720
C12   C     C_R   0.061775 0.542944 0.628692 -0.023725
C13   C     C_3   0.342994 0.330722 0.927309 0.136445
C14   C     C_3   0.341539 0.327940 0.081995 0.363515
C15   C     C_R   0.503650 0.739617 0.497789 0.890829
C16   C     C_R   0.741777 0.496243 0.498766 0.903983
C17   C     C_R   0.107705 0.575705 0.757224 0.554818
C18   C     C_R   0.044749 0.530752 0.876003 -0.154667
C19   C     C_R   0.941103 0.452256 0.866754 -0.182494
C20   C     C_R   0.890164 0.431474 0.740488 -0.135357
C21   C     C_R   0.941997 0.491080 0.621623 -0.038271
C22   C     C_R   0.131434 0.556698 0.505968 -0.176660
C23   C     C_R   0.071059 0.576721 0.382953 0.393031
C24   C     C_R   0.942031 0.552468 0.378605 -0.010582
C25   C     C_R   0.878041 0.504718 0.497251 -0.157337
C26   C     C_R   0.430448 0.059850 0.587466 0.030787
C27   C     C_R   0.512742 0.128275 0.502638 -0.069939
C28   C     C_R   0.588649 0.068923 0.405463 0.088091
H1    H     H_    0.489629 0.862679 0.778085 0.231369
H2    H     H_    0.087560 0.642141 0.194498 0.320474
H3    H     H_    0.522034 0.071023 0.897359 0.316775
H4    H     H_    0.191969 0.244106 0.880780 0.343462
H5    H     H_    0.230146 0.324466 0.240282 0.361384
H6    H     H_    0.511879 0.238296 0.091584 0.145054
H7    H     H_    0.385675 0.144970 0.118771 0.173010
H8    H     H_    0.226538 0.670868 0.860959 0.314993
H9    H     H_    0.882750 0.667252 0.225580 0.164901
H10   H     H_    0.916773 0.518281 0.179030 0.191295
H11   H     H_    0.766413 0.111635 0.343290 0.200427
H12   H     H_    0.334735 0.097017 0.781116 0.087769
H13   H     H_    0.659744 0.119141 0.219306 0.201710
H14   H     H_    0.614954 0.832884 0.234155 0.211659
H15   H     H_    0.721126 0.813208 0.359563 0.189053
H16   H     H_    0.671286 0.598384 0.118610 0.164248
H17   H     H_    0.672793 0.596486 0.866496 0.166042
H18   H     H_    0.409144 0.267133 0.877850 0.117524
H19   H     H_    0.079408 0.551844 0.975084 0.144006
H20   H     H_    0.897765 0.410442 0.957617 0.160939
H21   H     H_    0.810165 0.369065 0.737496 0.180246
H22   H     H_    0.315656 0.877366 0.760678 0.201171
N1    N     N_R   0.499160 0.499140 0.142800 -0.119428
N2    N     N_R   0.499160 0.499180 0.857150 -0.125345
N3    N     N_3   0.423508 0.232392 0.139874 -0.442474
N4    N     N_3   0.876641 0.572841 0.254471 -0.446617
N5    N     N_3   0.675627 0.140140 0.320430 -0.431123
N6    N     N_3   0.667912 0.878525 0.305887 -0.473940
O1    O     O_R   0.500020 0.316790 0.614690 -0.598370
O2    O     O_3   0.533040 0.090180 0.798695 -0.748539
O3    O     O_3   0.223726 0.331147 0.871429 -0.708989
O4    O     O_3   0.220141 0.324354 0.140521 -0.714782
O5    O     O_3   0.207901 0.657509 0.764273 -0.782883
O6    O     O_R   0.500000 0.316760 0.385350 -0.599261
O7    O     O_R   0.316770 0.500020 0.614690 -0.559226
O8    O     O_R   0.316760 0.499980 0.385350 -0.583520
O9    O     O_R   0.500000 0.683240 0.614650 -0.606177
O10   O     O_R   0.499980 0.683210 0.385310 -0.629362
O11   O     O_R   0.683240 0.500020 0.614650 -0.645709
O12   O     O_R   0.683230 0.499980 0.385310 -0.592771
O13   O     O_3   0.141632 0.619408 0.270867 -0.749444
Zn1   Zn    Zn3+2 0.500010 0.500020 0.653130 0.988078
Zn2   Zn    Zn3+2 0.499990 0.499980 0.346870 0.982653

loop_
_geom_bond_atom_site_label_1
_geom_bond_atom_site_label_2
_ccdc_geom_bond_type
C12   C17   A    
C2    C28   A    
C23   C24   A    
C24   C25   A    
C6    C7    S    
C13   O3    S    
C1    O1    A    
O1    Zn1   S    
H7    N3    S    
C4    C22   S    
C9    C10   A    
C4    O8    A    
C7    O2    S    
O10   Zn2   S    
H10   N4    S    
O7    Zn1   S    
C7    H12   S    
O11   Zn1   S    
C10   N2    A    
C18   H19   S    
H2    O13   S    
C10   H17   S    
C2    C3    A    
C3    C5    A    
C3    C15   S    
C16   O11   A    
C2    N6    S    
C13   C14   S    
C1    O6    A    
C11   C13   S    
C8    N1    A    
C26   C27   A    
C20   H21   S    
C7    C26   S    
N1    Zn2   S    
C8    C11   A    
C16   O12   A    
H9    N4    S    
H3    O2    S    
C4    O7    A    
C28   N5    S    
O6    Zn2   S    
C17   C18   A    
H5    O4    S    
O12   Zn2   S    
H8    O5    S    
C5    C6    S    
C17   O5    S    
N2    Zn1   S    
C24   N4    S    
C5    C26   A    
C15   O9    A    
C12   C22   A    
H15   N6    S    
C16   C25   S    
C6    H1    S    
C14   O4    S    
C20   C21   A    
H6    N3    S    
C21   C25   A    
C18   C19   A    
O8    Zn2   S    
C27   C28   A    
C1    C27   S    
C23   O13   S    
C13   H18   S    
H13   N5    S    
C9    H16   S    
C8    C14   S    
C11   N2    A    
H4    O3    S    
H14   N6    S    
O9    Zn1   S    
C19   H20   S    
C15   O10   A    
C14   N3    S    
C12   C21   A    
C22   C23   A    
C6    H22   S    
C19   C20   A    
H11   N5    S    
C9    N1    A    
