data_mof_unit_13291.cif
_audit_creation_date              2012-12-10T16:52:04-0500
_audit_creation_method            fapswitch 2.2
_symmetry_space_group_name_H-M    P1
_symmetry_Int_Tables_number       1
_space_group_crystal_system       triclinic
_cell_length_a                    7.761446
_cell_length_b                    8.568653
_cell_length_c                    14.938966
_cell_angle_alpha                 91.190142
_cell_angle_beta                  85.60073
_cell_angle_gamma                 93.816747
_cell_volume                      988.271208543

loop_
_atom_site_label
_atom_site_type_symbol
_atom_type_description
_atom_site_fract_x
_atom_site_fract_y
_atom_site_fract_z
_atom_type_partial_charge
C1    C     C_R   0.545923 0.794800 0.497659 0.966694
C2    C     C_R   0.454077 0.205200 0.502341 0.966694
C3    C     C_R   0.793073 0.630552 0.944823 0.146515
C4    C     C_R   0.206927 0.369447 0.055177 0.146515
C5    C     C_2   0.570068 0.958360 0.496279 -0.363057
C6    C     C_2   0.429932 0.041640 0.503721 -0.363056
C7    C     C_R   0.501598 0.498933 0.673076 0.890284
C8    C     C_R   0.498402 0.501067 0.326924 0.890284
C9    C     C_R   0.350485 0.440889 0.191050 -0.216208
C10   C     C_R   0.649515 0.559111 0.808949 -0.216208
C11   C     C_R   0.495774 0.504328 0.231451 -0.070846
C12   C     C_R   0.504226 0.495672 0.768549 -0.070845
C13   C     C_R   0.640860 0.568125 0.181091 -0.188851
C14   C     C_R   0.359140 0.431875 0.818908 -0.188851
C15   C     C_R   0.642990 0.567683 0.088616 0.099861
C16   C     C_R   0.357010 0.432317 0.911384 0.099861
C17   C     C_R   0.498087 0.501273 0.046653 0.039092
C18   C     C_R   0.501913 0.498727 0.953347 0.039092
C19   C     C_R   0.349967 0.436963 0.098099 0.072724
C20   C     C_R   0.650033 0.563037 0.901901 0.072723
C21   C     C_R   0.788449 0.631775 0.037950 -0.198052
C22   C     C_R   0.211551 0.368225 0.962050 -0.198053
H1    H     H_    0.240928 0.391996 0.232811 0.181209
H2    H     H_    0.759072 0.608003 0.767189 0.181209
H3    H     H_    0.751950 0.618276 0.214097 0.164859
H4    H     H_    0.248050 0.381724 0.785902 0.164859
H5    H     H_    0.898986 0.682939 0.070843 0.183420
H6    H     H_    0.101014 0.317061 0.929157 0.183420
H7    H     H_    0.702314 0.009686 0.489154 0.183390
H8    H     H_    0.297686 0.990314 0.510846 0.183390
H9    H     H_    0.014044 0.382901 0.431965 0.198520
H10   H     H_    0.985956 0.617099 0.568035 0.198519
N1    N     N_2   0.950330 0.457950 0.475660 -0.171850
N2    N     N_2   0.049670 0.542050 0.524340 -0.171850
O1    O     O_R   0.389250 0.738570 0.505970 -0.609621
O2    O     O_R   0.610750 0.261430 0.494030 -0.609621
O3    O     O_R   0.678390 0.711620 0.490370 -0.632186
O4    O     O_R   0.321610 0.288380 0.509630 -0.632186
O5    O     O_R   0.355420 0.513510 0.639950 -0.610424
O6    O     O_R   0.644580 0.486490 0.360050 -0.610424
O7    O     O_R   0.644560 0.486560 0.624350 -0.631086
O8    O     O_R   0.355440 0.513440 0.375650 -0.631086
Zn1   Zn    Zn3+2 0.306940 0.517990 0.510420 0.962541
Zn2   Zn    Zn3+2 0.693060 0.482010 0.489580 0.962541
I1    I     I_    0.019589 0.736372 0.875615 -0.396928
I2    I     I_    0.980412 0.263628 0.124385 -0.396927

loop_
_geom_bond_atom_site_label_1
_geom_bond_atom_site_label_2
_ccdc_geom_bond_type
O5    Zn1   S    
H9    N1    S    
C4    C22   A    
C2    O4    A    
O6    Zn2   S    
C18   C20   A    
C1    O3    A    
C9    C11   A    
C10   H2    S    
O3    Zn2   S    
C7    O7    A    
C17   C18   A    
C21   H5    S    
C3    I1    S    
O4    Zn1   S    
C4    I2    S    
C14   H4    S    
C11   C13   A    
C13   H3    S    
C2    C6    S    
C15   C21   A    
C10   C12   A    
C8    C11   S    
C1    C5    S    
C22   H6    S    
C6    H8    S    
C12   C14   A    
N1    N2    D    
C5    H7    S    
C13   C15   A    
C5    C6    D    
O7    Zn2   S    
C14   C16   A    
C7    C12   S    
C3    C21   A    
O2    Zn2   S    
O8    Zn1   S    
C8    O8    A    
C3    C20   A    
O1    Zn1   S    
C1    O1    A    
C16   C18   A    
C2    O2    A    
C15   C17   A    
C7    O5    A    
C9    H1    S    
C16   C22   A    
C8    O6    A    
C17   C19   A    
C4    C19   A    
C9    C19   A    
N2    Zn1   S    
C10   C20   A    
N1    Zn2   S    
H10   N2    S    
