data_mof_unit_24843.cif
_audit_creation_date              2012-12-10T17:03:00-0500
_audit_creation_method            fapswitch 2.2
_symmetry_space_group_name_H-M    P1
_symmetry_Int_Tables_number       1
_space_group_crystal_system       triclinic
_cell_length_a                    9.874557
_cell_length_b                    11.012152
_cell_length_c                    13.354665
_cell_angle_alpha                 95.05297
_cell_angle_beta                  81.48341
_cell_angle_gamma                 109.895056
_cell_volume                      1349.35116321

loop_
_atom_site_label
_atom_site_type_symbol
_atom_type_description
_atom_site_fract_x
_atom_site_fract_y
_atom_site_fract_z
_atom_type_partial_charge
C1    C     C_R   0.556106 0.745158 0.501658 0.743171
C2    C     C_R   0.435038 0.494465 0.973278 0.090622
C3    C     C_R   0.465919 0.534805 0.872052 0.053045
C4    C     C_R   0.542945 0.546304 0.039678 0.085801
C5    C     C_R   0.671483 0.647995 0.008139 0.111289
C6    C     C_R   0.691445 0.697911 0.912646 -0.221731
C7    C     C_R   0.589842 0.643105 0.845894 -0.182959
C8    C     C_R   0.527637 0.498567 0.136033 -0.222726
C9    C     C_R   0.756752 0.659648 0.172429 0.009064
C10   C     C_R   0.372397 0.465972 0.799601 -0.155456
C11   C     C_2   0.577656 0.884322 0.502111 0.210679
C12   C     C_R   0.421902 0.485463 0.690399 0.819377
C13   C     C_2   0.468099 0.923158 0.480482 -0.094602
C14   C     C_2   0.442499 0.126829 0.450814 0.176686
C15   C     C_2   0.454530 0.049090 0.518479 0.305161
C16   C     C_2   0.916351 0.474468 0.506203 -0.065764
C17   C     C_2   0.072176 0.498507 0.520756 0.382161
C18   C     C_R   0.448813 0.256880 0.486265 0.865757
C19   C     C_R   0.579234 0.521410 0.310573 0.780557
C20   C     C_R   0.777765 0.701298 0.073156 -0.157157
C21   C     C_R   0.627811 0.557287 0.204310 -0.113878
C22   C     C_R   0.238418 0.369587 0.832724 -0.001921
C23   C     C_R   0.199314 0.347170 0.935755 -0.224442
C24   C     C_R   0.296598 0.405737 0.004727 -0.177978
Cu1   Cu    Cu3+1 0.362000 0.479240 0.482530 1.043423
Cu2   Cu    Cu3+1 0.638000 0.520760 0.517470 0.967119
H1    H     H_    0.904383 0.644884 0.563501 0.173706
H2    H     H_    0.786768 0.779195 0.888978 0.142962
H3    H     H_    0.874882 0.779901 0.047464 0.174328
H4    H     H_    0.436259 0.415766 0.161032 0.162268
H5    H     H_    0.259202 0.380715 0.082603 0.176583
H6    H     H_    0.095618 0.276970 0.962557 0.146351
H7    H     H_    0.609066 0.688226 0.774078 0.160499
N1    N     N_2   0.845330 0.551960 0.543750 -0.302845
N2    N     N_2   0.154690 0.448120 0.456210 -0.250992
O1    O     O_R   0.426290 0.668220 0.490680 -0.575003
O2    O     O_R   0.659360 0.703290 0.520190 -0.588715
O3    O     O_R   0.326580 0.473880 0.629020 -0.476496
O4    O     O_R   0.559660 0.508940 0.658530 -0.586396
O5    O     O_R   0.340640 0.296710 0.479810 -0.562645
O6    O     O_R   0.573710 0.331780 0.509320 -0.570516
O7    O     O_R   0.440340 0.491060 0.341470 -0.545991
O8    O     O_R   0.673420 0.526120 0.370980 -0.561037
C25   C     C_2   0.866870 0.730200 0.240946 0.339823
H8    H     H_    0.844304 0.721619 0.322019 0.093748
O9    O     O_2   0.986404 0.801871 0.206977 -0.559031
C26   C     C_2   0.359929 0.847022 0.411248 0.421610
H9    H     H_    0.251750 0.854280 0.422096 0.044086
O10   O     O_2   0.394319 0.784487 0.337794 -0.533826
O11   O     O_3   0.474388 0.100204 0.347616 -0.596490
C27   C     C_3   0.390256 0.140986 0.289777 0.099779
H10   H     H_    0.432729 0.247703 0.284829 0.161599
H11   H     H_    0.273604 0.109136 0.322433 0.157719
C28   C     C_3   0.400602 0.082109 0.182772 -0.701929
H12   H     H_    0.357568 0.974969 0.184608 0.276525
H13   H     H_    0.336040 0.114813 0.136312 0.200733
H14   H     H_    0.515533 0.112979 0.147382 0.244303
O12   O     O_3   0.696782 0.970848 0.542557 -0.628772
C29   C     C_3   0.819001 0.995437 0.467736 0.043710
H15   H     H_    0.811196 0.059445 0.410460 0.182396
H16   H     H_    0.830017 0.905552 0.427915 0.147141
C30   C     C_3   0.956255 0.061703 0.517491 -0.694057
H17   H     H_    0.970711 0.995003 0.569546 0.245707
H18   H     H_    0.052099 0.088878 0.458565 0.212127
H19   H     H_    0.949484 0.150174 0.561515 0.246474
O13   O     O_3   0.111035 0.533807 0.617827 -0.537648
C31   C     C_3   0.126568 0.664429 0.645158 0.095717
H20   H     H_    0.023665 0.669438 0.688769 0.140080
H21   H     H_    0.158111 0.727276 0.578823 0.103837
C32   C     C_3   0.241019 0.718412 0.717236 -0.750027
H22   H     H_    0.349651 0.722293 0.678901 0.224318
H23   H     H_    0.245723 0.818068 0.743736 0.211707
H24   H     H_    0.213044 0.657197 0.784079 0.240227
C33   C     C_2   0.841428 0.349471 0.457084 0.437027
H25   H     H_    0.820287 0.261416 0.495644 0.045570
O14   O     O_2   0.806709 0.343874 0.372337 -0.527384
C34   C     C_2   0.132194 0.430305 0.352165 0.557075
H26   H     H_    0.080599 0.487596 0.319498 0.052761
O15   O     O_2   0.170458 0.349305 0.298566 -0.581747
C35   C     C_2   0.138732 0.283349 0.763814 0.414820
H27   H     H_    0.022229 0.255393 0.785590 0.049216
O16   O     O_2   0.184875 0.235058 0.686363 -0.523369
O17   O     O_3   0.405474 0.067994 0.619897 -0.603544
C36   C     C_3   0.516282 0.087425 0.681038 0.114442
H28   H     H_    0.623306 0.151845 0.645644 0.173740
H29   H     H_    0.523667 0.992744 0.697195 0.177199
C37   C     C_3   0.478309 0.151997 0.781552 -0.767487
H30   H     H_    0.474694 0.248874 0.768522 0.259350
H31   H     H_    0.370883 0.092339 0.819053 0.253207
H32   H     H_    0.561908 0.163502 0.832152 0.196177

loop_
_geom_bond_atom_site_label_1
_geom_bond_atom_site_label_2
_ccdc_geom_bond_type
C37   H30   S    
C14   C18   S    
C1    C11   S    
C36   C37   S    
C4    C8    A    
C26   O10   D    
C5    C20   A    
C34   H26   S    
C10   C22   A    
C17   O13   S    
C33   O14   D    
C16   C33   S    
C19   C21   S    
C36   H29   S    
C3    C7    A    
Cu1   O5    S    
C5    C6    A    
Cu2   O4    S    
C18   O5    A    
C30   H18   S    
C16   N1    D    
Cu2   N1    S    
C6    H2    S    
O17   C36   S    
C25   O9    D    
C16   C17   S    
C29   C30   S    
C23   C24   A    
C32   H22   S    
C11   O12   S    
C19   O7    A    
C1    O2    A    
O13   C31   S    
C29   H15   S    
C7    H7    S    
C19   O8    A    
Cu2   O8    S    
C8    C21   A    
C20   H3    S    
C34   O15   D    
H1    N1    S    
C28   H13   S    
C29   H16   S    
C33   H25   S    
C31   H20   S    
C36   H28   S    
C35   O16   D    
C18   O6    A    
C13   C26   S    
C4    C5    A    
C15   O17   S    
O12   C29   S    
N2    C34   S    
C27   H10   S    
C31   H21   S    
C2    C4    A    
C30   H17   S    
Cu1   O3    S    
C9    C20   A    
C26   H9    S    
C32   H24   S    
O11   C27   S    
C10   C12   S    
Cu1   N2    S    
C13   C15   S    
C2    C24   A    
C25   H8    S    
C28   H12   S    
C9    C25   S    
C30   H19   S    
C14   C15   D    
C35   H27   S    
Cu1   O7    S    
Cu2   O2    S    
C6    C7    A    
C31   C32   S    
C8    H4    S    
C23   H6    S    
C27   C28   S    
C12   O4    A    
C37   H31   S    
C2    C3    A    
Cu1   Cu2   S    
C24   H5    S    
C22   C35   S    
C3    C10   A    
C11   C13   D    
C9    C21   A    
C14   O11   S    
C12   O3    A    
Cu1   O1    S    
C1    O1    A    
C37   H32   S    
C22   C23   A    
C32   H23   S    
C17   N2    D    
C27   H11   S    
Cu2   O6    S    
C28   H14   S    
