data_mof_unit_44339.cif
_audit_creation_date              2013-03-05T16:06:21-0500
_audit_creation_method            fapswitch 2.2
_symmetry_space_group_name_H-M    P1
_symmetry_Int_Tables_number       1
_space_group_crystal_system       triclinic
_cell_length_a                    10.820791
_cell_length_b                    9.631977
_cell_length_c                    27.739477
_cell_angle_alpha                 89.974008
_cell_angle_beta                  92.608717
_cell_angle_gamma                 89.98161
_cell_volume                      2888.1672079

loop_
_atom_site_label
_atom_site_type_symbol
_atom_site_description
_atom_site_fract_x
_atom_site_fract_y
_atom_site_fract_z
_atom_type_partial_charge
O1    O     O_R   0.319640 0.618740 0.500000 -0.610579
O2    O     O_R   0.680360 0.381260 0.500000 -0.597603
O3    O     O_R   0.680360 0.618740 0.500000 -0.610756
O4    O     O_R   0.319640 0.381260 0.500000 -0.598089
C1    C     C_R   0.262411 0.500078 0.499998 0.788125
C2    C     C_R   0.737589 0.500053 0.499999 0.788063
O5    O     O_R   0.500020 0.618770 0.430260 -0.595651
O6    O     O_R   0.499980 0.381230 0.569740 -0.604964
O7    O     O_R   0.499980 0.618770 0.569740 -0.596049
O8    O     O_R   0.500020 0.381230 0.430260 -0.604245
C3    C     C_R   0.500397 0.500047 0.407524 0.802268
C4    C     C_R   0.499499 0.499956 0.592481 0.802377
Cu1   Cu    Cu3+1 0.500000 0.640660 0.500000 0.935219
Cu2   Cu    Cu3+1 0.500000 0.359340 0.500000 0.936992
C5    C     C_R   0.399778 0.550935 0.176533 0.597426
C6    C     C_R   0.603789 0.527010 0.823468 0.605004
O9    O     O_2   0.296541 0.577985 0.200428 -0.513058
O10   O     O_2   0.709507 0.533664 0.799525 -0.520979
N1    N     N_R   0.505319 0.510833 0.201571 -0.456667
N2    N     N_R   0.493629 0.508414 0.798437 -0.440833
C7    C     C_R   0.612231 0.483564 0.178861 0.618653
C8    C     C_R   0.384112 0.502270 0.821077 0.588058
C9    C     C_R   0.484189 0.376782 0.277544 0.033826
C10   C     C_R   0.508396 0.374281 0.722212 0.034735
C11   C     C_R   0.483781 0.377016 0.328131 -0.292145
C12   C     C_R   0.510378 0.375321 0.671666 -0.294348
C13   C     C_R   0.522683 0.624771 0.329684 -0.162344
C14   C     C_R   0.480760 0.624719 0.670536 -0.166612
C15   C     C_R   0.524148 0.625900 0.279598 -0.129993
C16   C     C_R   0.478740 0.625229 0.720618 -0.134733
C17   C     C_R   0.504988 0.503379 0.253219 0.337304
C18   C     C_R   0.492725 0.501499 0.746758 0.349346
C19   C     C_R   0.506561 0.535543 0.101726 -0.091744
C20   C     C_R   0.496436 0.533551 0.898292 -0.065381
C21   C     C_R   0.398308 0.564109 0.126210 -0.059170
C22   C     C_R   0.607465 0.539407 0.873786 -0.059964
C23   C     C_R   0.292222 0.610699 0.100379 -0.104098
C24   C     C_R   0.719565 0.563194 0.899577 -0.103363
C25   C     C_R   0.615489 0.494132 0.128089 -0.015506
C26   C     C_R   0.382227 0.514146 0.871971 -0.069556
C27   C     C_R   0.502237 0.500516 0.354437 -0.038408
C28   C     C_R   0.497144 0.499988 0.645573 -0.038687
H1    H     H_    0.538316 0.721287 0.348993 0.190218
H2    H     H_    0.468981 0.722146 0.651416 0.192237
H3    H     H_    0.539960 0.722748 0.261006 0.152091
H4    H     H_    0.466765 0.722538 0.739396 0.151077
H5    H     H_    0.212269 0.642888 0.119719 0.220315
H6    H     H_    0.803337 0.577973 0.880210 0.223015
C29   C     C_R   0.388645 0.551903 0.973789 -0.034510
C30   C     C_R   0.615926 0.528830 0.026326 0.012419
C31   C     C_R   0.615626 0.551267 0.975627 -0.028336
C32   C     C_R   0.392767 0.575821 0.024406 -0.031179
C33   C     C_R   0.500219 0.546193 0.949254 0.097583
C34   C     C_R   0.505233 0.547416 0.050796 0.104719
C35   C     C_R   0.277245 0.522581 0.947749 -0.173207
C36   C     C_R   0.720788 0.478347 0.052642 -0.274985
C37   C     C_R   0.272089 0.505310 0.897843 0.169118
C38   C     C_R   0.722401 0.462632 0.102757 0.183663
O11   O     O_2   0.278588 0.485245 0.794034 -0.544257
O12   O     O_2   0.714306 0.446884 0.205580 -0.480349
C39   C     C_R   0.289395 0.622591 0.050025 -0.056485
C40   C     C_R   0.724808 0.574489 0.949928 -0.048828
H7    H     H_    0.522814 0.278385 0.652648 0.156357
H8    H     H_    0.467635 0.280600 0.347002 0.155180
H9    H     H_    0.192473 0.506941 0.966215 0.193835
H10   H     H_    0.801820 0.444736 0.034451 0.161248
C41   C     C_R   0.063916 0.374366 0.500181 -0.137114
C42   C     C_R   0.936029 0.626569 0.500094 -0.154926
C43   C     C_R   0.936147 0.374354 0.499677 -0.136562
C44   C     C_R   0.063905 0.626585 0.500025 -0.154799
H11   H     H_    0.111799 0.275748 0.500679 0.196680
H12   H     H_    0.887971 0.725240 0.500228 0.165915
H13   H     H_    0.888316 0.275738 0.499069 0.196937
H14   H     H_    0.111909 0.725261 0.499996 0.165806
C45   C     C_R   0.871601 0.500342 0.499902 -0.044964
C46   C     C_R   0.128398 0.500373 0.500090 -0.044856
C47   C     C_R   0.417864 0.074011 0.470503 0.072581
C48   C     C_R   0.574380 0.925809 0.532412 0.066206
C49   C     C_R   0.582159 0.073913 0.529481 0.072001
C50   C     C_R   0.425679 0.925913 0.467578 0.064376
N3    N     N_R   0.500000 0.852070 0.500000 -0.265223
N4    N     N_R   0.500000 0.147930 0.500000 -0.262463
C51   C     C_2   0.315577 0.145741 0.442982 0.435927
H15   H     H_    0.328841 0.242478 0.424669 0.112252
O13   O     O_2   0.211799 0.095626 0.440676 -0.569030
C52   C     C_2   0.643215 0.853505 0.572518 0.464829
H16   H     H_    0.695301 0.760309 0.566813 0.108274
O14   O     O_2   0.642030 0.899265 0.613552 -0.570401
C53   C     C_2   0.684438 0.145584 0.556965 0.438370
H17   H     H_    0.670988 0.241978 0.575453 0.112097
O15   O     O_2   0.788361 0.095760 0.559065 -0.569218
C54   C     C_2   0.357055 0.853684 0.427451 0.469428
H18   H     H_    0.304325 0.760987 0.433214 0.107339
O16   O     O_2   0.359176 0.898928 0.386356 -0.567217
C55   C     C_2   0.523193 0.238843 0.747431 0.414800
H19   H     H_    0.536804 0.145099 0.726603 0.079704
O17   O     O_2   0.520132 0.229052 0.791225 -0.525193
C56   C     C_2   0.461357 0.243039 0.252051 0.421150
H20   H     H_    0.449694 0.148727 0.272811 0.081934
O18   O     O_2   0.454353 0.235493 0.208096 -0.522656
N5    N     N_3   0.152870 0.477348 0.875303 -0.522906
H21   H     H_    0.155595 0.382454 0.857122 0.271410
H22   H     H_    0.128741 0.557835 0.851412 0.277406
N6    N     N_3   0.833181 0.412739 0.127257 -0.486313
H23   H     H_    0.853989 0.315266 0.113144 0.233723
H24   H     H_    0.905450 0.480311 0.119667 0.243338
C57   C     C_2   0.185976 0.702655 0.026287 0.392058
H25   H     H_    0.195674 0.747418 0.990772 0.107580
O19   O     O_2   0.089608 0.722273 0.046542 -0.536941
C58   C     C_2   0.840391 0.630455 0.973558 0.376018
H26   H     H_    0.838426 0.679832 0.008649 0.122165
O20   O     O_2   0.938770 0.624321 0.953747 -0.532332

loop_
_geom_bond_atom_site_label_1
_geom_bond_atom_site_label_2
_geom_bond_distance
_ccdc_geom_bond_type
N5    H21   1.045195 S    
C13   C15   1.390206 A    
C55   H19   1.085790 S    
O3    C2    1.299970 A    
N1    C17   1.434626 S    
N6    H24   1.046261 S    
C2    C45   1.450244 S    
C42   C45   1.401597 A    
C5    N1    1.364955 A    
C19   C25   1.415679 A    
O1    C1    1.300104 A    
C6    N2    1.363819 A    
N1    C7    1.367651 A    
C10   C12   1.403282 A    
C32   C39   1.425316 A    
C52   O14   1.221419 D    
C41   H11   1.081649 S    
C47   C51   1.485701 S    
Cu1   N3    2.036296 S    
C14   C28   1.402184 A    
O7    Cu1   1.945922 S    
C58   H26   1.084626 S    
C4    C28   1.474102 S    
C40   C58   1.486820 S    
C44   H14   1.083296 S    
C57   H25   1.084668 S    
C36   H10   1.080978 S    
C43   H13   1.081641 S    
C23   H5    1.083830 S    
C24   H6    1.083942 S    
O3    Cu1   1.962958 S    
O6    C4    1.306393 A    
C48   C52   1.483604 S    
C38   N6    1.433516 S    
N5    H22   1.045021 S    
Cu1   Cu2   2.709668 S    
C57   O19   1.221511 D    
O2    C2    1.301214 A    
C31   C40   1.425020 A    
O2    Cu2   1.963092 S    
C5    C21   1.401001 A    
N6    H23   1.045759 S    
C35   H9    1.081352 S    
C32   C34   1.417838 A    
C7    O12   1.348753 S    
O8    Cu2   1.945922 S    
C10   C55   1.485169 S    
C11   C27   1.405377 A    
C8    O11   1.347483 S    
C48   C49   1.431539 A    
C50   N3    1.376487 A    
C29   C35   1.405611 A    
C25   C38   1.413574 A    
C14   H2    1.082356 S    
C30   C36   1.407390 A    
C15   H3    1.083123 S    
C31   C33   1.419149 A    
C11   H8    1.083975 S    
C9    C17   1.416373 A    
C50   C54   1.483306 S    
O5    C3    1.306262 A    
C12   H7    1.083983 S    
C10   C18   1.415991 A    
C13   C27   1.402159 A    
C51   H15   1.073851 S    
C7    C25   1.414064 A    
C42   H12   1.083304 S    
C29   C32   1.421661 A    
C8    C26   1.417514 A    
C54   O16   1.221422 D    
C30   C31   1.422646 A    
C30   C34   1.414731 A    
C6    O10   1.350193 S    
C51   O13   1.221470 D    
N2    C8    1.367507 A    
C56   O18   1.220376 D    
C35   C37   1.393013 A    
C44   C46   1.401498 A    
C20   C26   1.418954 A    
C53   O15   1.221445 D    
Cu2   N4    2.036297 S    
C12   C28   1.405691 A    
N2    C18   1.434697 S    
C47   C50   1.431512 A    
C19   C34   1.416756 A    
C5    O9    1.350011 S    
O6    Cu2   1.946112 S    
C26   C37   1.421450 A    
C21   C23   1.398953 A    
C52   H16   1.075370 S    
C16   H4    1.083108 S    
O4    C1    1.301081 A    
C49   N4    1.378507 A    
C23   C39   1.400354 A    
C55   O17   1.220368 D    
C37   N5    1.433383 S    
C1    C46   1.450243 S    
C22   C24   1.398945 A    
C15   C17   1.399374 A    
C6    C22   1.399720 A    
C16   C18   1.399333 A    
C48   N3    1.376831 A    
C47   N4    1.378802 A    
C29   C33   1.413724 A    
C14   C16   1.390420 A    
C54   H18   1.075554 S    
C19   C21   1.407667 A    
C36   C38   1.397622 A    
C43   C45   1.400121 A    
C20   C22   1.408220 A    
C9    C11   1.403462 A    
O4    Cu2   1.962958 S    
C39   C57   1.487465 S    
O7    C4    1.306643 A    
C58   O20   1.221468 D    
C49   C53   1.485542 S    
O8    C3    1.306559 A    
C13   H1    1.082604 S    
O5    Cu1   1.946112 S    
C9    C56   1.485177 S    
O1    Cu1   1.963092 S    
C20   C33   1.417682 A    
C42   C44   1.383811 A    
C56   H20   1.085824 S    
C3    C27   1.473657 S    
C41   C46   1.400222 A    
C41   C43   1.381991 A    
C53   H17   1.073960 S    
C24   C40   1.399577 A    
