data_mof_unit_43343.cif
_audit_creation_date              2013-03-05T15:46:35-0500
_audit_creation_method            fapswitch 2.2
_symmetry_space_group_name_H-M    P1
_symmetry_Int_Tables_number       1
_space_group_crystal_system       triclinic
_cell_length_a                    17.319295
_cell_length_b                    24.426639
_cell_length_c                    14.805585
_cell_angle_alpha                 89.88034
_cell_angle_beta                  125.27037
_cell_angle_gamma                 90.383557
_cell_volume                      5113.650583

loop_
_atom_site_label
_atom_site_type_symbol
_atom_site_description
_atom_site_fract_x
_atom_site_fract_y
_atom_site_fract_z
_atom_type_partial_charge
C1    C     C_R   0.329024 0.357826 0.907704 -0.130606
C2    C     C_R   0.688337 0.374258 0.093062 -0.109909
C3    C     C_R   0.846528 0.849958 0.907164 -0.110688
C4    C     C_R   0.154003 0.850458 0.090209 -0.132296
H1    H     H_    0.281528 0.344726 0.822963 0.111217
H2    H     H_    0.745324 0.369751 0.179204 0.101043
H3    H     H_    0.807677 0.836920 0.821885 0.089642
H4    H     H_    0.200707 0.837438 0.175298 0.110151
N1    N     N_R   0.394180 0.396910 0.943210 -0.046021
N2    N     N_R   0.605820 0.396910 0.056790 -0.048485
N3    N     N_R   0.894180 0.896910 0.943210 -0.044802
N4    N     N_R   0.105820 0.896910 0.056790 -0.043937
C5    C     C_R   0.445449 0.650640 0.094267 -0.113667
C6    C     C_R   0.598674 0.622199 0.906944 -0.089950
C7    C     C_R   0.944707 0.151802 0.091991 -0.108123
C8    C     C_R   0.051491 0.152735 0.908165 -0.041285
H5    H     H_    0.490176 0.663636 0.179808 0.103611
H6    H     H_    0.571372 0.625346 0.820826 0.105927
H7    H     H_    0.992975 0.165265 0.176673 0.135063
H8    H     H_    0.003258 0.165770 0.823347 0.116910
N5    N     N_R   0.450950 0.603070 0.056740 -0.046098
N6    N     N_R   0.549050 0.603070 0.943260 -0.045486
N7    N     N_R   0.950950 0.103070 0.056740 -0.051213
N8    N     N_R   0.049050 0.103070 0.943260 -0.051106
C9    C     C_R   0.488308 0.455001 0.259439 -0.092532
C10   C     C_R   0.446272 0.454866 0.693288 -0.107205
C11   C     C_R   0.050489 0.955280 0.305777 -0.088030
C12   C     C_R   0.017989 0.954743 0.748513 -0.103487
H9    H     H_    0.488792 0.413477 0.282408 0.150624
H10   H     H_    0.430840 0.412610 0.668302 0.161395
H11   H     H_    0.064025 0.913033 0.330713 0.157966
H12   H     H_    0.024229 0.912544 0.734743 0.154954
N9    N     N_R   0.525650 0.471570 0.206150 -0.061335
N10   N     N_R   0.474350 0.471570 0.793850 -0.058862
N11   N     N_R   0.025650 0.971570 0.206150 -0.059299
N12   N     N_R   0.974350 0.971570 0.793850 -0.061261
C13   C     C_R   0.232632 0.546363 0.750235 -0.084179
C14   C     C_R   0.753186 0.546016 0.304228 -0.106205
C15   C     C_R   0.742879 0.045683 0.698693 -0.116260
C16   C     C_R   0.267854 0.046301 0.247376 -0.065369
H13   H     H_    0.214320 0.588590 0.746657 0.102196
H14   H     H_    0.759283 0.587514 0.332761 0.092938
H15   H     H_    0.731259 0.087731 0.671065 0.110132
H16   H     H_    0.289072 0.088763 0.257111 0.110125
N13   N     N_R   0.319480 0.528420 0.793810 -0.043191
N14   N     N_R   0.680520 0.528420 0.206190 -0.042016
N15   N     N_R   0.819480 0.028420 0.793810 -0.046373
N16   N     N_R   0.180520 0.028420 0.206190 -0.045453
C17   C     C_R   0.485263 0.546133 0.254602 -0.100183
C18   C     C_R   0.446020 0.545501 0.693647 -0.119405
C19   C     C_R   0.049607 0.046170 0.304054 -0.093424
C20   C     C_R   0.018505 0.046156 0.749425 -0.100451
H17   H     H_    0.479137 0.588646 0.267064 0.154984
H18   H     H_    0.429768 0.587666 0.669181 0.166708
H19   H     H_    0.062726 0.088753 0.326228 0.166223
H20   H     H_    0.026215 0.088782 0.737846 0.155585
N17   N     N_R   0.525640 0.528390 0.206120 -0.063057
N18   N     N_R   0.474360 0.528390 0.793880 -0.059369
N19   N     N_R   0.025640 0.028390 0.206120 -0.060831
N20   N     N_R   0.974360 0.028390 0.793880 -0.062176
C21   C     C_R   0.229310 0.454978 0.741938 -0.055272
C22   C     C_R   0.755132 0.455092 0.304882 -0.112428
C23   C     C_R   0.742778 0.954216 0.698010 -0.100276
C24   C     C_R   0.268225 0.954557 0.248717 -0.053146
H21   H     H_    0.204440 0.413394 0.721518 0.096865
H22   H     H_    0.765479 0.413386 0.333985 0.092586
H23   H     H_    0.731230 0.912168 0.670355 0.090999
H24   H     H_    0.289818 0.912409 0.261396 0.099396
N21   N     N_R   0.319490 0.471590 0.793840 -0.044650
N22   N     N_R   0.680510 0.471590 0.206160 -0.042877
N23   N     N_R   0.819490 0.971590 0.793840 -0.044700
N24   N     N_R   0.180510 0.971590 0.206160 -0.045190
C25   C     C_R   0.350191 0.651039 0.910755 -0.093587
C26   C     C_R   0.690194 0.624252 0.091612 -0.070141
C27   C     C_R   0.850020 0.151131 0.908295 -0.087572
C28   C     C_R   0.144653 0.152533 0.091301 -0.134715
N25   N     N_R   0.394130 0.603080 0.943110 -0.053509
N26   N     N_R   0.605870 0.603080 0.056890 -0.057536
N27   N     N_R   0.894130 0.103080 0.943110 -0.054084
N28   N     N_R   0.105870 0.103080 0.056890 -0.051662
C29   C     C_R   0.420147 0.357888 0.091923 -0.081533
C30   C     C_R   0.596948 0.373651 0.907771 -0.109874
C31   C     C_R   0.938266 0.849336 0.091495 -0.118821
C32   C     C_R   0.060559 0.850683 0.906242 -0.115039
N29   N     N_R   0.450990 0.396900 0.056840 -0.049043
N30   N     N_R   0.549010 0.396900 0.943160 -0.046336
N31   N     N_R   0.950990 0.896900 0.056840 -0.046445
N32   N     N_R   0.049010 0.896900 0.943160 -0.041517
C33   C     C_R   0.338685 0.335818 0.999565 0.097069
C34   C     C_R   0.685856 0.359476 0.001114 0.080937
C35   C     C_R   0.873584 0.818482 0.998651 0.078943
C36   C     C_R   0.129209 0.822044 0.996601 0.090914
C37   C     C_R   0.380685 0.681003 0.004975 0.130076
C38   C     C_R   0.689132 0.635214 0.998459 0.083671
C39   C     C_R   0.883473 0.183875 0.000452 0.078256
C40   C     C_R   0.108761 0.185483 0.999415 0.083145
C41   C     C_R   0.455097 0.500755 0.283790 0.175837
C42   C     C_R   0.423204 0.500411 0.626062 0.150810
C43   C     C_R   0.071515 0.001357 0.372201 0.142710
C44   C     C_R   0.051304 0.000700 0.724109 0.173652
C45   C     C_R   0.173952 0.501241 0.717156 0.048135
C46   C     C_R   0.801987 0.501138 0.368176 0.081431
C47   C     C_R   0.694151 0.999968 0.635886 0.065193
C48   C     C_R   0.324286 0.000703 0.273170 0.040614
Ni1   Ni    Ni4+2 0.434860 0.434850 0.869700 0.259442
Ni2   Ni    Ni4+2 0.565140 0.434850 0.130300 0.226539
Ni3   Ni    Ni4+2 0.934860 0.934850 0.869700 0.216657
Ni4   Ni    Ni4+2 0.065140 0.934850 0.130300 0.249356
Ni5   Ni    Ni4+2 0.565130 0.565140 0.130240 0.223273
Ni6   Ni    Ni4+2 0.434870 0.565140 0.869760 0.267375
Ni7   Ni    Ni4+2 0.065130 0.065140 0.130240 0.257782
Ni8   Ni    Ni4+2 0.934870 0.065140 0.869760 0.230776
C49   C     C_R   0.023346 0.552715 0.619432 0.120061
C50   C     C_R   0.929149 0.552622 0.532060 0.106625
C51   C     C_R   0.565236 0.050439 0.477153 0.160619
C52   C     C_R   0.473114 0.050894 0.382931 0.156037
C53   C     C_R   0.071903 0.503231 0.661699 0.053130
C54   C     C_R   0.881637 0.503088 0.484469 0.037030
C55   C     C_R   0.611851 0.000846 0.521681 0.025977
C56   C     C_R   0.426475 0.001769 0.332264 0.035386
C57   C     C_R   0.018301 0.454787 0.634453 -0.147047
C58   C     C_R   0.922791 0.454669 0.545238 -0.159955
C59   C     C_R   0.569247 0.952001 0.463357 -0.166442
C60   C     C_R   0.477235 0.952555 0.368291 -0.148755
H25   H     H_    0.051670 0.416062 0.671799 0.130289
H26   H     H_    0.886074 0.415777 0.516607 0.135629
H27   H     H_    0.603850 0.912935 0.494166 0.131100
H28   H     H_    0.443840 0.913847 0.329576 0.133843
C61   C     C_3   0.940972 0.602007 0.480962 -0.418449
C62   C     C_3   0.043944 0.602118 0.576226 -0.418658
C63   C     C_3   0.494821 0.095636 0.331689 -0.461954
C64   C     C_3   0.594831 0.095364 0.434354 -0.486878
H29   H     H_    0.902319 0.638095 0.481210 0.193145
H30   H     H_    0.090801 0.593423 0.549346 0.239774
H31   H     H_    0.456344 0.133927 0.321887 0.211907
H32   H     H_    0.647538 0.081881 0.418993 0.204844
C65   C     C_R   0.276568 0.759926 0.920250 0.326536
C66   C     C_R   0.849044 0.680394 0.092449 0.348898
C67   C     C_R   0.804595 0.273260 0.906388 0.357351
C68   C     C_R   0.206152 0.266684 0.097203 0.311472
C69   C     C_R   0.750547 0.315419 0.906736 -0.256599
C70   C     C_R   0.277538 0.293345 0.098211 -0.190172
C71   C     C_R   0.201859 0.786538 0.909760 -0.211344
C72   C     C_R   0.889537 0.730218 0.092905 -0.254727
H33   H     H_    0.700722 0.337050 0.830815 0.171398
H34   H     H_    0.340404 0.305492 0.176300 0.209650
H35   H     H_    0.158809 0.812967 0.839751 0.219364
H36   H     H_    0.952410 0.745002 0.169212 0.178814
C73   C     C_R   0.758973 0.328198 0.004242 0.074176
C74   C     C_R   0.266287 0.304968 0.998576 0.071703
C75   C     C_R   0.187811 0.782642 0.993801 0.037434
C76   C     C_R   0.846995 0.761273 0.995731 0.071794
C77   C     C_R   0.832365 0.305206 0.104381 -0.133686
C78   C     C_R   0.179966 0.293108 0.897867 -0.143462
C79   C     C_R   0.245701 0.750751 0.086865 -0.117211
C80   C     C_R   0.774194 0.738023 0.895148 -0.134899
H37   H     H_    0.845616 0.316177 0.182780 0.129521
H38   H     H_    0.165335 0.304856 0.819036 0.132282
H39   H     H_    0.235713 0.747927 0.152546 0.160240
H40   H     H_    0.742744 0.759019 0.817225 0.126359
C81   C     C_R   0.318033 0.722815 0.096396 -0.128295
C82   C     C_R   0.732673 0.689627 0.894474 -0.168432
C83   C     C_R   0.882341 0.261822 0.103851 -0.110018
C84   C     C_R   0.112834 0.262278 0.897353 -0.097744
C85   C     C_R   0.331277 0.725490 0.011455 -0.066530
C86   C     C_R   0.761556 0.664703 0.994699 -0.009744
C87   C     C_R   0.861228 0.241528 0.003455 -0.009529
C88   C     C_R   0.132850 0.242497 0.997553 0.012679
C89   C     C_R   0.367802 0.550548 0.450535 0.194097
C90   C     C_R   0.380577 0.550796 0.365100 0.229331
C91   C     C_R   0.123622 0.051380 0.641444 0.205036
C92   C     C_R   0.127627 0.052205 0.549271 0.204143
C93   C     C_R   0.403415 0.501116 0.336627 -0.238206
C94   C     C_R   0.379682 0.500964 0.505792 -0.203007
C95   C     C_R   0.114413 0.002538 0.492791 -0.214043
C96   C     C_R   0.102989 0.001352 0.671497 -0.225497
C97   C     C_R   0.379596 0.451588 0.365059 0.232523
C98   C     C_R   0.365815 0.451715 0.449462 0.191242
C99   C     C_R   0.132423 0.953228 0.550943 0.193638
C100  C     C_R   0.123684 0.952283 0.639333 0.226223
H41   H     H_    0.929747 0.593087 0.400581 0.256462
H42   H     H_    0.064530 0.638336 0.631240 0.201176
H43   H     H_    0.488747 0.082136 0.256093 0.212728
H44   H     H_    0.614167 0.133470 0.484162 0.217916
N33   N     N_R   0.297097 0.768417 0.839956 0.242205
O1    O     O_R   0.384251 0.769780 0.870581 -0.364776
O2    O     O_R   0.229086 0.776338 0.736419 -0.288424
N34   N     N_R   0.896802 0.646592 0.189709 0.220907
O3    O     O_R   0.958715 0.667864 0.286473 -0.381298
O4    O     O_R   0.888846 0.593537 0.180021 -0.393920
N35   N     N_R   0.802792 0.264138 0.809413 0.222455
O5    O     O_R   0.880878 0.253055 0.819626 -0.433754
O6    O     O_R   0.727288 0.275197 0.711720 -0.385392
N36   N     N_R   0.209152 0.263243 0.196115 0.242558
O7    O     O_R   0.130815 0.261045 0.189307 -0.375494
O8    O     O_R   0.289366 0.265212 0.293241 -0.299745
H45   H     H_    0.359254 0.696300 0.167071 0.203407
H46   H     H_    0.670974 0.676150 0.815904 0.143355
H47   H     H_    0.930008 0.241193 0.181599 0.153756
H48   H     H_    0.051731 0.248600 0.818285 0.164159
N37   N     N_R   0.329655 0.597482 0.469994 0.257837
O9    O     O_R   0.258458 0.591381 0.476820 -0.344621
O10   O     O_R   0.371627 0.644934 0.493145 -0.333940
N38   N     N_R   0.358545 0.598985 0.299237 0.246660
O11   O     O_R   0.406506 0.644025 0.343661 -0.401089
O12   O     O_R   0.295286 0.596602 0.192706 -0.387608
N39   N     N_R   0.152605 0.098487 0.712347 0.252707
O13   O     O_R   0.112548 0.145698 0.673055 -0.360003
O14   O     O_R   0.213100 0.092919 0.818789 -0.372000
N40   N     N_R   0.158531 0.100759 0.523823 0.256931
O15   O     O_R   0.230745 0.098589 0.518266 -0.353227
O16   O     O_R   0.108927 0.145362 0.494028 -0.344638
N41   N     N_R   0.358610 0.403253 0.300527 0.251730
O17   O     O_R   0.296932 0.405213 0.193768 -0.391490
O18   O     O_R   0.408843 0.359407 0.346275 -0.363921
N42   N     N_R   0.325630 0.404925 0.467659 0.260306
O19   O     O_R   0.364119 0.356909 0.486854 -0.290255
O20   O     O_R   0.255914 0.411540 0.476811 -0.351173
N43   N     N_R   0.172310 0.907481 0.530650 0.259002
O21   O     O_R   0.136328 0.858590 0.514602 -0.298469
O22   O     O_R   0.240369 0.915636 0.518859 -0.357506
N44   N     N_R   0.145817 0.903490 0.703019 0.257453
O23   O     O_R   0.210315 0.904848 0.809234 -0.379183
O24   O     O_R   0.093858 0.859785 0.657703 -0.368460
H49   H     H_    0.303865 0.664187 0.825763 0.136753
H50   H     H_    0.746914 0.631226 0.177263 0.130279
H51   H     H_    0.806016 0.162796 0.822351 0.145129
H52   H     H_    0.185650 0.164578 0.177024 0.154912
H53   H     H_    0.455759 0.344813 0.176495 0.110322
H54   H     H_    0.569881 0.367596 0.822018 0.117730
H55   H     H_    0.982353 0.835615 0.176353 0.119349
H56   H     H_    0.019107 0.837547 0.820767 0.105932

loop_
_geom_bond_atom_site_label_1
_geom_bond_atom_site_label_2
_geom_bond_distance
_ccdc_geom_bond_type
C68   C88   1.402846 A    
C31   N31   1.336547 A    
C91   C92   1.405978 A    
C1    C33   1.379164 A    
N23   Ni3   1.867460 S    
C28   H52   1.076840 S    
N40   O15   1.301373 A    
C89   C90   1.404352 A    
C70   H34   1.074035 S    
C21   C45   1.391889 A    
N8    Ni8   1.856780 S    
C25   C37   1.381620 A    
C72   H36   1.080844 S    
C48   C56   1.452480 S    
C55   C59   1.403682 A    
C38   C86   1.470943 S    
C65   C85   1.398941 A    
N38   O12   1.302044 A    
C27   C39   1.386534 A    
C59   C60   1.389472 A    
C62   H30   1.112544 S    
N41   O17   1.300844 A    
C79   C81   1.364492 A    
C7    H7    1.080059 S    
C11   C43   1.397188 A    
C18   H18   1.075101 S    
C27   N27   1.334780 A    
N27   Ni8   1.853100 S    
C77   C83   1.375664 A    
C1    H1    1.076769 S    
C66   N34   1.438086 S    
C24   H24   1.076263 S    
C78   C84   1.377345 A    
C8    H8    1.080080 S    
C68   C70   1.385956 A    
C78   H38   1.080191 S    
C63   H31   1.111789 S    
C77   H37   1.079183 S    
C7    C39   1.386382 A    
C35   C76   1.461291 S    
C42   C94   1.479549 S    
N33   O2    1.300500 A    
C16   C48   1.386855 A    
N1    Ni1   1.847262 S    
C51   C52   1.386190 A    
C17   N17   1.333100 A    
N39   O14   1.301518 A    
C22   N22   1.338658 A    
C3    C35   1.383070 A    
C54   C58   1.408041 A    
C4    H4    1.080483 S    
C2    C34   1.385557 A    
C53   C57   1.407000 A    
C73   C77   1.399609 A    
N11   Ni4   1.852799 S    
C20   N20   1.334766 A    
N1    N29   1.373596 A    
C82   C86   1.402089 A    
C20   H20   1.074789 S    
C63   H43   1.112487 S    
C10   N10   1.335456 A    
N17   Ni5   1.846801 S    
N31   Ni4   1.856661 S    
C76   C80   1.398389 A    
N34   O4    1.301769 A    
N3    N31   1.373596 A    
N6    Ni6   1.856780 S    
C44   C96   1.487731 S    
N19   Ni7   1.846801 S    
C89   C94   1.408330 A    
C40   C88   1.455925 S    
C100  N44   1.428454 S    
C75   C79   1.386050 A    
C4    N4    1.327459 A    
C94   C98   1.403371 A    
C26   H50   1.078028 S    
C90   N38   1.433007 S    
C46   C54   1.458157 S    
C92   C95   1.415276 A    
C69   H33   1.082014 S    
C60   H28   1.081269 S    
C29   C33   1.384151 A    
C12   C44   1.397871 A    
C71   C75   1.401877 A    
N36   O7    1.301878 A    
C30   H54   1.079850 S    
C80   C82   1.376627 A    
C8    N8    1.328748 A    
C29   H53   1.076730 S    
N12   Ni3   1.846082 S    
C19   C43   1.385289 A    
N37   O10   1.300775 A    
C2    H2    1.077031 S    
N16   N24   1.388163 A    
C34   C73   1.461009 S    
N8    N28   1.373597 A    
C67   N35   1.435797 S    
C65   N33   1.438327 S    
C51   C64   1.494375 S    
N41   O18   1.300633 A    
C9    H9    1.067646 S    
N11   N19   1.387922 A    
C23   H23   1.080264 S    
C18   C42   1.382969 A    
C8    C40   1.376664 A    
C49   C62   1.499093 S    
N4    N32   1.373595 A    
C79   H39   1.083579 S    
N39   O13   1.300553 A    
C18   N18   1.332985 A    
N24   Ni4   1.856831 S    
C12   H12   1.069375 S    
C22   H22   1.080312 S    
C1    N1    1.328071 A    
N42   O19   1.300408 A    
N6    N26   1.373597 A    
C23   C47   1.384907 A    
C62   H42   1.112025 S    
N43   O21   1.300470 A    
N4    Ni4   1.854263 S    
N32   Ni3   1.867576 S    
N21   Ni1   1.867460 S    
N13   Ni6   1.856825 S    
C4    C36   1.378267 A    
C15   H15   1.081055 S    
C89   N37   1.437051 S    
C11   N11   1.336472 A    
C30   N30   1.340270 A    
N13   N21   1.388164 A    
C20   C44   1.397183 A    
N25   Ni6   1.853100 S    
C52   C56   1.395029 A    
C51   C55   1.396060 A    
C5    C37   1.360315 A    
N34   O3    1.301470 A    
C58   H26   1.081138 S    
C83   C87   1.400644 A    
N35   O6    1.301459 A    
C57   H25   1.081940 S    
N20   Ni8   1.853518 S    
C97   N41   1.427187 S    
C28   C40   1.382177 A    
N43   O22   1.301499 A    
C96   C100  1.413207 A    
C59   H27   1.080726 S    
C37   C85   1.424781 S    
C84   C88   1.399923 A    
C64   H32   1.112478 S    
C91   N39   1.437620 S    
C36   C75   1.421266 S    
N36   O8    1.300935 A    
C5    N5    1.316540 A    
N44   O24   1.300975 A    
N15   N23   1.388164 A    
C57   C58   1.399146 A    
C50   C54   1.399345 A    
C10   C42   1.389253 A    
C61   H29   1.111736 S    
C9    C41   1.399895 A    
C33   C74   1.451372 S    
C23   N23   1.332791 A    
C10   H10   1.075823 S    
N40   O16   1.300970 A    
C11   H11   1.076046 S    
N3    Ni3   1.847262 S    
C50   C61   1.497096 S    
C49   C53   1.400908 A    
N2    Ni2   1.854263 S    
N30   Ni1   1.867576 S    
C19   N19   1.329834 A    
C92   N40   1.434423 S    
C13   N13   1.325787 A    
N29   Ni2   1.856661 S    
C2    N2    1.326633 A    
N22   Ni2   1.856831 S    
C71   H35   1.076201 S    
C65   C71   1.378275 A    
C31   C35   1.388216 A    
C67   C87   1.416268 A    
C15   N15   1.329826 A    
C49   C50   1.377552 A    
C21   N21   1.342120 A    
N35   O5    1.301418 A    
C24   C48   1.387587 A    
C61   H41   1.111259 S    
C16   N16   1.333253 A    
N2    N30   1.373595 A    
N9    N17   1.387922 A    
C99   N43   1.437947 S    
N18   Ni6   1.853518 S    
N10   Ni1   1.846082 S    
C6    H6    1.076564 S    
C47   C55   1.451919 S    
N9    Ni2   1.852799 S    
C32   N32   1.321032 A    
N42   O20   1.301558 A    
N12   N20   1.387921 A    
C39   C87   1.470031 S    
N5    Ni5   1.867691 S    
C28   N28   1.329083 A    
C15   C47   1.381759 A    
C80   H40   1.079930 S    
C98   N42   1.437989 S    
C99   C100  1.401647 A    
N7    Ni7   1.867691 S    
C91   C96   1.412252 A    
C95   C99   1.407064 A    
C25   H49   1.079878 S    
C3    H3    1.079828 S    
C30   C34   1.395853 A    
N37   O9    1.301663 A    
C81   H45   1.079204 S    
C66   C86   1.413989 A    
C45   C53   1.457861 S    
C6    N6    1.331683 A    
C27   H51   1.078235 S    
C61   C62   1.504956 S    
C72   C76   1.402469 A    
C66   C72   1.398646 A    
C64   H44   1.111670 S    
C14   N14   1.327107 A    
C13   C45   1.378390 A    
C67   C69   1.398308 A    
C70   C74   1.400595 A    
N33   O1    1.301588 A    
C69   C73   1.400277 A    
C52   C63   1.493894 S    
C31   H55   1.080547 S    
C17   H17   1.071699 S    
N28   Ni7   1.846092 S    
C7    N7    1.330610 A    
N26   Ni5   1.846092 S    
C19   H19   1.073984 S    
C24   N24   1.334121 A    
C21   H21   1.074122 S    
C13   H13   1.073360 S    
C63   C64   1.506717 S    
C32   H56   1.081309 S    
C81   C85   1.403946 A    
N14   N22   1.388163 A    
C17   C41   1.392603 A    
C3    N3    1.327587 A    
C56   C60   1.404428 A    
C82   H46   1.079241 S    
C83   H47   1.079888 S    
C5    H5    1.081767 S    
C14   H14   1.079784 S    
C84   H48   1.080813 S    
C16   H16   1.079785 S    
N16   Ni7   1.867452 S    
C43   C95   1.486105 S    
N38   O11   1.301085 A    
C12   N12   1.334894 A    
C14   C46   1.377085 A    
C97   C98   1.401083 A    
C74   C78   1.401370 A    
N14   Ni5   1.867452 S    
N5    N25   1.373596 A    
C26   C38   1.394076 A    
N10   N18   1.387921 A    
C25   N25   1.330233 A    
C32   C36   1.364925 A    
N7    N27   1.373596 A    
C93   C97   1.415185 A    
C68   N36   1.437379 S    
N44   O23   1.301119 A    
C6    C38   1.391043 A    
C29   N29   1.332198 A    
C41   C93   1.490640 S    
N15   Ni8   1.856825 S    
C9    N9    1.337531 A    
C22   C46   1.384096 A    
C90   C93   1.417013 A    
C26   N26   1.337360 A    
