data_mof_unit_51915.cif
_audit_creation_date              2012-12-10T18:21:24-0500
_audit_creation_method            fapswitch 2.2
_symmetry_space_group_name_H-M    P1
_symmetry_Int_Tables_number       1
_space_group_crystal_system       triclinic
_cell_length_a                    14.959558
_cell_length_b                    14.108909
_cell_length_c                    10.634965
_cell_angle_alpha                 89.345169
_cell_angle_beta                  88.498337
_cell_angle_gamma                 89.017544
_cell_volume                      2243.41194831

loop_
_atom_site_label
_atom_site_type_symbol
_atom_type_description
_atom_site_fract_x
_atom_site_fract_y
_atom_site_fract_z
_atom_type_partial_charge
C1    C     C_R   0.326765 0.500477 0.499670 0.876109
C2    C     C_R   0.041352 0.646712 0.617781 -0.218577
C3    C     C_R   0.090332 0.573476 0.559109 0.126872
C4    C     C_R   0.499937 0.500267 0.257753 0.899899
C5    C     C_R   0.046332 0.498824 0.500489 0.058828
C6    C     C_R   0.095390 0.424726 0.441374 0.119051
C7    C     C_R   0.051246 0.350581 0.384127 -0.220154
C8    C     C_R   0.958274 0.349744 0.385339 -0.221467
C9    C     C_R   0.182775 0.573281 0.558356 -0.280465
C10   C     C_R   0.230991 0.500595 0.498712 -0.057538
C11   C     C_R   0.187923 0.426339 0.440642 -0.264337
C12   C     C_3   0.590859 0.537436 0.921492 -0.496825
C13   C     C_R   0.552458 0.797540 0.412971 -0.096499
C14   C     C_R   0.549515 0.201780 0.409986 -0.116161
C15   C     C_R   0.448225 0.800437 0.586453 0.204467
C16   C     C_R   0.453965 0.199749 0.593070 0.246305
C17   C     C_R   0.464063 0.898780 0.602101 0.046892
C18   C     C_R   0.465701 0.099682 0.603830 0.024603
C19   C     C_R   0.673186 0.499300 0.499848 0.922485
C20   C     C_R   0.510220 0.948888 0.506311 0.047940
C21   C     C_R   0.510425 0.050006 0.506585 0.056784
C22   C     C_R   0.554465 0.898194 0.409765 0.011774
C23   C     C_R   0.816581 0.423339 0.444666 -0.244423
C24   C     C_R   0.553272 0.100983 0.408816 0.019186
C25   C     C_R   0.436690 0.948824 0.709882 -0.201027
C26   C     C_R   0.434588 0.047426 0.709572 -0.233998
C27   C     C_R   0.599245 0.049699 0.313478 -0.201464
C28   C     C_R   0.600244 0.949471 0.314315 -0.189156
C29   C     C_R   0.499344 0.499509 0.742297 0.857358
C30   C     C_3   0.418132 0.558221 0.074863 -0.433357
C31   C     C_3   0.487220 0.397363 0.072880 -0.484754
C32   C     C_3   0.421691 0.562472 0.930386 -0.408373
C33   C     C_3   0.488707 0.396747 0.930402 -0.428255
C34   C     C_R   0.768802 0.498040 0.501181 -0.061259
C35   C     C_3   0.589089 0.548912 0.067134 1.003659
C36   C     C_3   0.500763 0.500434 0.121344 0.040649
C37   C     C_3   0.500083 0.498924 0.878678 0.096238
C38   C     C_3   0.362443 0.754369 0.635915 -0.351459
C39   C     C_3   0.289859 0.813426 0.705075 -0.982184
C40   C     C_3   0.383438 0.247615 0.677277 -0.388814
C41   C     C_3   0.289061 0.217865 0.644403 -0.884444
C42   C     C_3   0.660027 0.697986 0.083700 -0.266823
C43   C     C_3   0.690845 0.418494 0.117647 -0.437350
C44   C     C_R   0.812060 0.572364 0.558468 -0.270892
C45   C     C_R   0.904425 0.572815 0.559540 0.121099
C46   C     C_R   0.953325 0.498228 0.501228 0.057727
C47   C     C_R   0.909192 0.423179 0.443510 0.118781
C48   C     C_R   0.948510 0.646532 0.617667 -0.219084
H1    H     H_    0.415699 0.631442 0.112726 0.222213
H2    H     H_    0.417565 0.912442 0.795756 0.168318
H3    H     H_    0.408434 0.081230 0.793606 0.155916
H4    H     H_    0.633936 0.087032 0.237745 0.132175
H5    H     H_    0.635811 0.912190 0.239370 0.131480
H6    H     H_    0.354946 0.524308 0.107994 0.165341
H7    H     H_    0.421083 0.371127 0.107672 0.198292
H8    H     H_    0.356906 0.538717 0.893467 0.160940
H9    H     H_    0.424669 0.367594 0.898374 0.181439
H10   H     H_    0.431120 0.637339 0.899482 0.198237
H11   H     H_    0.544153 0.349459 0.895666 0.186765
H12   H     H_    0.535675 0.344233 0.108710 0.183863
H13   H     H_    0.602490 0.607183 0.874507 0.176692
H14   H     H_    0.646883 0.491245 0.887272 0.142613
H15   H     H_    0.781687 0.366536 0.399901 0.145956
H16   H     H_    0.773723 0.629264 0.603154 0.154758
H17   H     H_    0.911233 0.703827 0.662853 0.145542
H18   H     H_    0.305100 0.820954 0.805843 0.260784
H19   H     H_    0.278552 0.883082 0.658025 0.285106
H20   H     H_    0.225496 0.775624 0.703950 0.244876
H21   H     H_    0.328571 0.732912 0.549918 0.236280
H22   H     H_    0.377761 0.691355 0.694356 0.230967
H23   H     H_    0.074758 0.704116 0.663123 0.143971
H24   H     H_    0.276767 0.233291 0.543614 0.267305
H25   H     H_    0.279047 0.141232 0.663008 0.262145
H26   H     H_    0.239138 0.258378 0.702363 0.250002
H27   H     H_    0.396071 0.232832 0.777778 0.161009
H28   H     H_    0.383366 0.324130 0.669573 0.271419
H29   H     H_    0.703846 0.675476 0.003009 0.161240
H30   H     H_    0.696647 0.689395 0.172762 0.200210
H31   H     H_    0.644287 0.774526 0.070864 0.154723
H32   H     H_    0.671004 0.384912 0.029468 0.161162
H33   H     H_    0.662871 0.380737 0.201381 0.185101
H34   H     H_    0.217123 0.628250 0.606426 0.150338
H35   H     H_    0.764547 0.409884 0.121671 0.210766
H36   H     H_    0.226474 0.370336 0.394396 0.152608
H37   H     H_    0.088573 0.293441 0.338686 0.144944
H38   H     H_    0.924796 0.292017 0.340722 0.142602
H39   H     H_    0.590208 0.757168 0.343260 0.167894
H40   H     H_    0.584878 0.241784 0.337502 0.131209
N1    N     N_R   0.500070 0.750030 0.500050 -0.136392
N2    N     N_R   0.500070 0.249970 0.500050 -0.121695
O1    O     O_R   0.367860 0.580280 0.500020 -0.650625
O2    O     O_3   0.669795 0.516078 0.125579 -0.636406
O3    O     O_R   0.367860 0.419720 0.500020 -0.632464
O4    O     O_R   0.500000 0.580270 0.314790 -0.586610
O5    O     O_R   0.500000 0.419730 0.314790 -0.643126
O6    O     O_R   0.632160 0.580270 0.499960 -0.616461
O7    O     O_R   0.632160 0.419730 0.499960 -0.624974
O8    O     O_R   0.500030 0.580270 0.685200 -0.643169
O9    O     O_R   0.500030 0.419730 0.685200 -0.652024
O10   O     O_3   0.578677 0.648087 0.091927 -0.641678
Zn1   Zn    Zn3+2 0.500020 0.607200 0.499990 0.939264
Zn2   Zn    Zn3+2 0.500020 0.392800 0.499990 0.921596

loop_
_geom_bond_atom_site_label_1
_geom_bond_atom_site_label_2
_ccdc_geom_bond_type
C4    C36   S    
C16   N2    A    
C18   C21   A    
C43   H35   S    
C39   H20   S    
C35   C36   S    
C18   C26   A    
C24   C27   A    
C32   H10   S    
C38   H22   S    
C19   O7    A    
C7    C8    A    
C7    H37   S    
C45   C46   A    
C44   H16   S    
C30   H6    S    
C29   O8    A    
C38   C39   S    
C17   C20   A    
C14   C24   A    
C12   C37   S    
C25   H2    S    
C14   N2    A    
C41   H26   S    
N2    Zn2   S    
O4    Zn1   S    
C31   C33   S    
C48   H17   S    
C9    C10   A    
O7    Zn2   S    
O5    Zn2   S    
C9    H34   S    
C13   N1    A    
C35   O2    S    
C23   H15   S    
C38   H21   S    
C42   H31   S    
C33   H11   S    
C22   C28   A    
O6    Zn1   S    
O1    Zn1   S    
C44   C45   A    
C23   C47   A    
C29   O9    A    
C34   C44   A    
C6    C11   A    
C2    C48   A    
C25   C26   A    
C33   C37   S    
C40   H28   S    
C31   H12   S    
C15   C38   S    
C3    C9    A    
C42   O10   S    
C15   N1    A    
C4    O5    A    
C12   H14   S    
C23   C34   A    
C13   H39   S    
C32   C37   S    
C12   C35   S    
C16   C40   S    
C41   H24   S    
C4    O4    A    
C1    O3    A    
C40   C41   S    
C30   H1    S    
C20   C22   A    
C42   H30   S    
C43   H33   S    
C39   H18   S    
C35   O10   S    
C27   H4    S    
C45   C48   A    
C15   C17   A    
C46   C47   A    
C33   H9    S    
N1    Zn1   S    
C39   H19   S    
C1    C10   S    
C3    C5    A    
C19   C34   S    
O3    Zn2   S    
C28   H5    S    
C6    C7    A    
C11   H36   S    
O8    Zn1   S    
C5    C46   A    
C43   O2    S    
C40   H27   S    
C30   C36   S    
C17   C25   A    
C2    C3    A    
C43   H32   S    
C8    C47   A    
C14   H40   S    
C26   H3    S    
C30   C32   S    
C12   H13   S    
C5    C6    A    
C13   C22   A    
C8    H38   S    
C10   C11   A    
C41   H25   S    
O9    Zn2   S    
C20   C21   A    
C42   H29   S    
C16   C18   A    
C1    O1    A    
C21   C24   A    
C29   C37   S    
C27   C28   A    
C31   C36   S    
C31   H7    S    
C32   H8    S    
C19   O6    A    
C2    H23   S    
