data_mof_unit_36417.cif
_audit_creation_date              2012-12-11T14:51:46-0500
_audit_creation_method            fapswitch 2.2
_symmetry_space_group_name_H-M    P1
_symmetry_Int_Tables_number       1
_space_group_crystal_system       triclinic
_cell_length_a                    6.966623
_cell_length_b                    16.714498
_cell_length_c                    16.884447
_cell_angle_alpha                 101.297824
_cell_angle_beta                  90.211602
_cell_angle_gamma                 90.884644
_cell_volume                      1927.71222991

loop_
_atom_site_label
_atom_site_type_symbol
_atom_type_description
_atom_site_fract_x
_atom_site_fract_y
_atom_site_fract_z
_atom_type_partial_charge
O1    O     O_R   0.506340 0.439070 0.579550 -0.539941
O2    O     O_R   0.170010 0.404890 0.412100 -0.531775
O3    O     O_R   0.005010 0.560930 0.420450 -0.525811
C1    C     C_R   0.338601 0.381077 0.383719 0.739217
O4    O     O_R   0.176280 0.429360 0.578400 -0.540302
O5    O     O_R   0.011320 0.585570 0.587940 -0.544670
C2    C     C_R   0.344596 0.413407 0.604648 0.693011
O6    O     O_R   0.500030 0.414430 0.412060 -0.540776
O7    O     O_3   0.340950 0.551220 0.502940 -0.360579
V1    V     V_3+5 0.064020 0.490500 0.499460 1.475939
O8    O     O_R   0.681910 0.595110 0.587900 -0.534928
C3    C     C_R   0.851716 0.617082 0.617531 0.711201
O9    O     O_R   0.675640 0.570640 0.421600 -0.523870
C4    C     C_R   0.845156 0.587027 0.395889 0.790675
V2    V     V_3+5 0.564670 0.509500 0.500540 1.485054
O10   O     O_3   0.837610 0.448780 0.497060 -0.374215
C5    C     C_R   0.904212 0.861302 0.165612 -0.052348
C6    C     C_R   0.859862 0.636491 0.332150 -0.137091
C7    C     C_R   0.973911 0.647999 0.198814 -0.161180
C8    C     C_R   0.942278 0.601693 0.257821 0.118479
C9    C     C_R   0.804507 0.719133 0.346080 0.067573
C10   C     C_R   0.837940 0.766652 0.285836 0.071333
C11   C     C_R   0.924347 0.730808 0.211256 0.076187
C12   C     C_R   0.956670 0.778019 0.150339 0.118787
C13   C     C_R   0.819364 0.895346 0.239202 -0.176354
C14   C     C_R   0.787183 0.849247 0.298309 -0.089445
H1    H     H_    0.776416 0.958626 0.250942 0.155078
H2    H     H_    0.038423 0.617720 0.143059 0.173971
H3    H     H_    0.721016 0.879584 0.353572 0.189648
C15   C     C_3   0.740279 0.801427 0.747878 -0.164187
C16   C     C_3   0.893671 0.776457 0.681623 -0.154367
H4    H     H_    0.905594 0.799671 0.624618 0.161889
H5    H     H_    0.628378 0.846582 0.744440 0.131824
C17   C     C_3   0.866260 0.686452 0.688871 -0.052159
C18   C     C_3   0.714964 0.710988 0.754525 0.217354
C19   C     C_3   0.871612 0.720864 0.820724 -0.180269
C20   C     C_3   0.025023 0.695683 0.754269 -0.169921
C21   C     C_3   0.050195 0.786124 0.747652 0.209837
C22   C     C_3   0.899007 0.810958 0.813237 -0.054337
H6    H     H_    0.861412 0.698301 0.878213 0.127156
H7    H     H_    0.135640 0.649532 0.756996 0.125540
C23   C     C_3   0.509043 0.244321 0.308889 -0.187035
C24   C     C_3   0.358029 0.177655 0.274137 0.158814
H8    H     H_    0.611652 0.239974 0.358202 0.156694
C25   C     C_3   0.408803 0.188272 0.187871 -0.139661
C26   C     C_3   0.559268 0.254545 0.221814 -0.169762
C27   C     C_3   0.403658 0.320759 0.226693 -0.123236
C28   C     C_3   0.252507 0.253712 0.192536 0.199265
C29   C     C_3   0.204148 0.243706 0.279224 0.117751
C30   C     C_3   0.353563 0.310082 0.313221 -0.088621
H9    H     H_    0.704773 0.259592 0.197736 0.188367
H10   H     H_    0.423134 0.379790 0.206751 0.179884
C31   C     C_R   0.418368 0.136744 0.830827 -0.137062
C32   C     C_R   0.351004 0.363006 0.667748 -0.091476
C33   C     C_R   0.274843 0.345907 0.804182 0.230532
C34   C     C_R   0.273292 0.392548 0.743681 -0.200143
C35   C     C_R   0.420484 0.283309 0.650572 -0.154123
C36   C     C_R   0.418336 0.233414 0.709615 0.013040
C37   C     C_R   0.359235 0.267367 0.789550 0.016764
C38   C     C_R   0.386148 0.221478 0.851151 0.108344
C39   C     C_R   0.464505 0.101348 0.749920 0.071391
C40   C     C_R   0.473004 0.150539 0.690400 0.184563
H11   H     H_    0.207006 0.451908 0.755432 0.127907
H12   H     H_    0.471408 0.260825 0.590110 0.148974
O11   O     O_R   0.266070 0.085680 0.087850 -0.527147
O12   O     O_R   0.590090 0.070660 0.921580 -0.529167
O13   O     O_R   0.754780 0.914400 0.912080 -0.546890
C41   C     C_R   0.422309 0.087178 0.895535 0.761983
O14   O     O_R   0.596110 0.095130 0.087880 -0.531151
O15   O     O_R   0.760850 0.939050 0.079570 -0.541275
C42   C     C_R   0.427091 0.118271 0.116768 0.776556
O16   O     O_R   0.260010 0.061030 0.920360 -0.531787
O17   O     O_3   0.425070 0.948840 0.997010 -0.380478
V3    V     V_3+5 0.702100 0.009490 0.000550 1.497508
O18   O     O_R   0.090200 0.929250 0.078500 -0.533064
C43   C     C_R   0.920405 0.913147 0.104202 0.711544
O19   O     O_R   0.084180 0.904770 0.912200 -0.546112
C44   C     C_R   0.914078 0.881711 0.883458 0.680921
V4    V     V_3+5 0.201420 0.990350 0.999580 1.480560
O20   O     O_3   0.928580 0.051150 0.002990 -0.348707
C45   C     C_3   0.038359 0.738395 0.069088 -0.787891
H13   H     H_    0.945403 0.685892 0.040855 0.211792
H14   H     H_    0.047030 0.779406 0.025096 0.196295
H15   H     H_    0.185640 0.716868 0.077492 0.222597
C46   C     C_3   0.237411 0.831478 0.742221 -0.790105
H16   H     H_    0.315500 0.802384 0.687192 0.224905
H17   H     H_    0.205815 0.895474 0.738724 0.209267
H18   H     H_    0.325190 0.830685 0.796938 0.214591
I1    I     I_    0.326413 0.063391 0.312059 -0.388308
I2    I     I_    0.045451 0.259679 0.099739 -0.272090
C47   C     C_3   0.004763 0.237022 0.313237 -0.720434
H19   H     H_    0.926701 0.184000 0.276612 0.219186
H20   H     H_    0.015703 0.228451 0.376619 0.224707
H21   H     H_    0.926177 0.293948 0.311926 0.220766
I3    I     I_    0.477251 0.281349 0.969487 -0.260945
C48   C     C_3   0.515177 0.012202 0.726543 -0.716334
H22   H     H_    0.420573 0.981478 0.676336 0.237155
H23   H     H_    0.667124 0.006562 0.706906 0.232143
H24   H     H_    0.498248 0.978641 0.776438 0.171097
I4    I     I_    0.097243 0.392014 0.904717 -0.288095
I5    I     I_    0.562066 0.096548 0.570102 -0.359977
I6    I     I_    0.015664 0.476968 0.228656 -0.377781
I7    I     I_    0.676209 0.770900 0.459493 -0.408427
C49   C     C_3   0.526274 0.666106 0.759544 -0.785745
H25   H     H_    0.447962 0.695824 0.814272 0.209631
H26   H     H_    0.439524 0.667439 0.704660 0.220210
H27   H     H_    0.553868 0.601716 0.763257 0.206096

loop_
_geom_bond_atom_site_label_1
_geom_bond_atom_site_label_2
_ccdc_geom_bond_type
C36   C40   A    
O12   C41   A    
C33   C34   A    
O11   V4    S    
C33   C37   A    
C25   C42   S    
C17   C20   S    
O17   V3    S    
C4    C6    S    
O2    C1    A    
C7    C8    A    
C12   C45   S    
C49   H26   S    
C45   H13   S    
C39   C48   S    
O19   C44   A    
C24   I1    S    
C15   C18   S    
C19   C20   S    
O16   V4    S    
O5    C3    A    
C15   C16   S    
C46   H18   S    
C8    I6    S    
V2    O10   S    
C6    C9    A    
C48   H24   S    
C17   C18   S    
C23   C26   S    
O14   C42   A    
C31   C41   S    
O8    V2    S    
C18   C19   S    
C48   H23   S    
C33   I4    S    
O15   V3    S    
C5    C43   S    
C11   C12   A    
O1    V2    S    
O7    V1    S    
C1    O6    A    
C40   I5    S    
O19   V4    S    
C37   C38   A    
C28   I2    S    
O9    C4    A    
O13   C44   A    
C23   H8    S    
C29   C47   S    
C49   H25   S    
C45   H14   S    
C31   C38   A    
C27   C30   S    
C46   H17   S    
C32   C34   A    
C16   C17   S    
C5    C12   A    
C21   C46   S    
C22   C44   S    
C19   H6    S    
C18   C49   S    
C47   H19   S    
O4    C2    A    
C24   C29   S    
C36   C37   A    
C46   H16   S    
C26   H9    S    
C1    C30   S    
C7    C11   A    
O18   C43   A    
C20   C21   S    
V3    O20   S    
C47   H20   S    
C16   H4    S    
C41   O16   A    
C48   H22   S    
O17   V4    S    
C34   H11   S    
O14   V3    S    
O13   V3    S    
C7    H2    S    
C24   C25   S    
O3    C4    A    
C23   C30   S    
C28   C29   S    
O6    V2    S    
O9    V2    S    
O15   C43   A    
C23   C24   S    
C31   C39   A    
O2    V1    S    
C45   H15   S    
C35   H12   S    
C25   C28   S    
C26   C27   S    
C15   H5    S    
O1    C2    A    
C19   C22   S    
C27   C28   S    
O5    V1    S    
O8    C3    A    
C27   H10   S    
C13   H1    S    
C16   C21   S    
C5    C13   A    
C13   C14   A    
O4    V1    S    
O3    V1    S    
O11   C42   A    
C47   H21   S    
C35   C36   A    
C21   C22   S    
O18   V4    S    
C15   C22   S    
C6    C8    A    
C20   H7    S    
C39   C40   A    
V4    O20   S    
C9    I7    S    
C38   I3    S    
C25   C26   S    
C14   H3    S    
C29   C30   S    
C10   C14   A    
C10   C11   A    
V1    O10   S    
C2    C32   S    
C9    C10   A    
C3    C17   S    
C49   H27   S    
O7    V2    S    
C32   C35   A    
O12   V3    S    
