data_mof_unit_45356.cif
_audit_creation_date              2012-12-10T17:33:03-0500
_audit_creation_method            fapswitch 2.2
_symmetry_space_group_name_H-M    P1
_symmetry_Int_Tables_number       1
_space_group_crystal_system       triclinic
_cell_length_a                    12.356942
_cell_length_b                    13.139122
_cell_length_c                    14.279814
_cell_angle_alpha                 93.420547
_cell_angle_beta                  107.611423
_cell_angle_gamma                 116.87514
_cell_volume                      1917.78924519

loop_
_atom_site_label
_atom_site_type_symbol
_atom_type_description
_atom_site_fract_x
_atom_site_fract_y
_atom_site_fract_z
_atom_type_partial_charge
C1    C     C_R   0.653439 0.715992 0.512859 0.782319
C2    C     C_R   0.842460 0.489910 0.916273 0.091161
C3    C     C_R   0.779727 0.486547 0.985322 0.172711
C4    C     C_R   0.953864 0.474572 0.944306 0.062817
C5    C     C_R   0.009811 0.469417 0.045493 0.065940
C6    C     C_R   0.943788 0.465649 0.112072 -0.229631
C7    C     C_R   0.830307 0.473002 0.081906 -0.237046
C8    C     C_R   0.008885 0.460931 0.873850 -0.225768
C9    C     C_R   0.120047 0.449925 0.903092 -0.233949
C10   C     C_R   0.181986 0.454417 0.003567 0.168529
C11   C     C_R   0.128645 0.465890 0.076056 0.089328
C12   C     C_R   0.617621 0.515816 0.686495 0.784904
C13   C     C_R   0.297604 0.448293 0.032519 -0.199763
C14   C     C_R   0.362789 0.456060 0.133304 -0.207505
C15   C     C_R   0.198479 0.477219 0.177441 -0.256209
C16   C     C_R   0.158872 0.953596 0.394753 0.152134
C17   C     C_R   0.251904 0.160068 0.469011 -0.100062
C18   C     C_R   0.742788 0.931515 0.587141 0.167387
C19   C     C_R   0.828209 0.049046 0.594862 -0.177673
C20   C     C_R   0.921381 0.079954 0.551745 -0.213960
C21   C     C_R   0.931277 0.993655 0.496917 0.093552
C22   C     C_R   0.830426 0.876253 0.471733 -0.003441
C23   C     C_R   0.345850 0.284537 0.485969 0.815467
C24   C     C_R   0.038932 0.020044 0.467181 0.033789
C25   C     C_R   0.039078 0.931275 0.404976 0.062502
C26   C     C_R   0.918707 0.826389 0.354808 0.112332
C27   C     C_R   0.819156 0.797655 0.392882 -0.178800
C28   C     C_R   0.148369 0.132116 0.500690 -0.242269
C29   C     C_R   0.260071 0.070413 0.419345 -0.195120
C30   C     C_R   0.740532 0.842420 0.522329 -0.126483
C31   C     C_R   0.252479 0.682154 0.664841 -0.312584
C32   C     C_R   0.655281 0.342974 0.362338 0.063324
C33   C     C_R   0.733321 0.310070 0.330442 -0.263050
C34   C     C_R   0.381502 0.483015 0.313338 0.795932
C35   C     C_R   0.868483 0.369769 0.381411 -0.204834
C36   C     C_R   0.928111 0.464027 0.465610 -0.010001
C37   C     C_R   0.843814 0.495350 0.495125 0.291900
C38   C     C_R   0.067542 0.527890 0.521839 -0.037130
C39   C     C_R   0.118465 0.620445 0.606341 0.182306
C40   C     C_R   0.035562 0.650770 0.632740 -0.294767
C41   C     C_R   0.901974 0.590323 0.578279 -0.200847
C42   C     C_R   0.159803 0.504182 0.499106 0.012633
C43   C     C_R   0.336813 0.653041 0.639733 0.040535
C44   C     C_R   0.676436 0.514630 0.791783 -0.047941
C45   C     C_R   0.313854 0.471665 0.206274 -0.049745
C46   C     C_R   0.666004 0.495785 0.956590 -0.219086
C47   C     C_R   0.613997 0.508919 0.859985 -0.195129
C48   C     C_R   0.791856 0.509392 0.821429 -0.256047
Cu1   Cu    Cu3+1 0.416420 0.526630 0.522910 0.921094
Cu2   Cu    Cu3+1 0.583580 0.473370 0.477090 0.917857
H1    H     H_    0.782135 0.468560 0.134870 0.147727
H2    H     H_    0.338167 0.438497 0.977284 0.129235
H3    H     H_    0.346293 0.090703 0.402276 0.154058
H4    H     H_    0.155381 0.200967 0.550986 0.156006
H5    H     H_    0.983820 0.172769 0.562769 0.137380
H6    H     H_    0.828099 0.118583 0.639607 0.140164
H7    H     H_    0.729075 0.716071 0.355376 0.175913
H8    H     H_    0.439391 0.698712 0.686184 0.137209
H9    H     H_    0.166975 0.493969 0.236176 0.149427
H10   H     H_    0.291796 0.752148 0.730324 0.140402
H11   H     H_    0.129460 0.435745 0.435756 0.120417
H12   H     H_    0.550659 0.295976 0.321945 0.124893
H13   H     H_    0.923896 0.340318 0.353556 0.134452
H14   H     H_    0.688739 0.237807 0.265799 0.147005
H15   H     H_    0.847911 0.621273 0.604762 0.204889
H16   H     H_    0.452321 0.451857 0.154239 0.148879
H17   H     H_    0.158814 0.439469 0.846714 0.145520
H18   H     H_    0.524041 0.512422 0.838179 0.152502
H19   H     H_    0.841058 0.521764 0.768983 0.149658
H20   H     H_    0.974394 0.452725 0.187314 0.141712
N1    N     N_R   0.290690 0.566960 0.557640 -0.175030
N2    N     N_R   0.709100 0.433710 0.442970 -0.201546
O1    O     O_R   0.545970 0.684450 0.528810 -0.572733
O2    O     O_R   0.687130 0.639470 0.490120 -0.600747
O3    O     O_R   0.519670 0.535100 0.660030 -0.585295
O4    O     O_R   0.660830 0.490120 0.621340 -0.596952
O5    O     O_R   0.312870 0.360530 0.509880 -0.583574
O6    O     O_R   0.454030 0.315550 0.471190 -0.583773
O7    O     O_R   0.339170 0.509880 0.378660 -0.587956
O8    O     O_R   0.480330 0.464900 0.339970 -0.594061
C49   C     C_3   0.886220 0.751881 0.254087 -0.425484
C50   C     C_3   0.769576 0.745701 0.170861 -0.834761
H21   H     H_    0.676943 0.689680 0.181517 0.241502
H22   H     H_    0.782594 0.834995 0.170071 0.259555
H23   H     H_    0.762087 0.707237 0.096352 0.248898
H24   H     H_    0.968041 0.789308 0.226877 0.211139
H25   H     H_    0.864778 0.661856 0.262276 0.202957
C51   C     C_3   0.188264 0.856602 0.370608 -0.435574
C52   C     C_3   0.304819 0.865706 0.456185 -0.809151
H26   H     H_    0.396608 0.945927 0.464792 0.241680
H27   H     H_    0.288465 0.867028 0.528494 0.259659
H28   H     H_    0.316557 0.788505 0.439091 0.248422
H29   H     H_    0.105503 0.768697 0.360993 0.211883
H30   H     H_    0.208405 0.860584 0.299776 0.200005
C53   C     C_3   0.662627 0.908231 0.653685 -0.394784
C54   C     C_3   0.714114 0.862459 0.742963 -0.817130
H31   H     H_    0.704823 0.776611 0.717352 0.248849
H32   H     H_    0.818601 0.926010 0.787578 0.249537
H33   H     H_    0.658251 0.851965 0.793071 0.227345
H34   H     H_    0.668274 0.990442 0.685983 0.188715
H35   H     H_    0.557292 0.849731 0.609626 0.218516
H36   H     H_    0.074450 0.722306 0.696897 0.155260
H37   H     H_    0.616339 0.491233 0.008438 0.133299
H38   H     H_    0.966129 0.454550 0.794359 0.152272

loop_
_geom_bond_atom_site_label_1
_geom_bond_atom_site_label_2
_ccdc_geom_bond_type
C19   H6    S    
C17   C29   A    
C53   C54   S    
C48   H19   S    
C4    C8    A    
C49   C50   S    
C32   N2    A    
C26   C27   A    
C17   C23   S    
C31   C43   A    
C1    O2    A    
C36   C37   A    
C5    C11   A    
C3    C7    A    
Cu2   O2    S    
C5    C6    A    
C54   H33   S    
C18   C19   A    
Cu2   N2    S    
C42   N1    A    
C43   H8    S    
C34   O8    A    
C46   C47   A    
C11   C15   A    
C19   C20   A    
C31   C39   A    
C8    C9    A    
C54   H32   S    
Cu1   O3    S    
C18   C30   A    
C52   H27   S    
C9    C10   A    
C49   H24   S    
C44   C47   A    
C51   C52   S    
C21   C22   A    
C18   C53   S    
C37   N2    A    
C20   H5    S    
Cu2   O6    S    
C14   C45   A    
C51   H30   S    
C24   C25   A    
C27   H7    S    
C39   C40   A    
C28   H4    S    
C53   H34   S    
C41   H15   S    
C2    C48   A    
C16   C29   A    
Cu1   O7    S    
C35   C36   A    
C31   H10   S    
C2    C4    A    
C9    H17   S    
Cu2   O4    S    
C34   O7    A    
C13   H2    S    
C54   H31   S    
C14   H16   S    
C34   C45   S    
C23   O5    A    
C52   H28   S    
C8    H38   S    
C42   H11   S    
C49   H25   S    
C40   C41   A    
Cu1   Cu2   S    
C26   C49   S    
C50   H22   S    
C22   C27   A    
C12   O4    A    
Cu1   O1    S    
C21   C24   A    
C15   C45   A    
C47   H18   S    
C16   C25   A    
C6    H20   S    
C51   H29   S    
C43   N1    A    
C22   C30   A    
C17   C28   A    
C15   H9    S    
C24   C28   A    
C4    C5    A    
C10   C13   A    
Cu2   O8    S    
C38   C42   A    
C6    C7    A    
C50   H23   S    
C46   H37   S    
C3    C46   A    
C1    O1    A    
C32   C33   A    
C36   C38   A    
C2    C3    A    
C25   C26   A    
C7    H1    S    
C12   C44   S    
C38   C39   A    
C29   H3    S    
C33   H14   S    
C1    C30   S    
C33   C35   A    
Cu1   O5    S    
C23   O6    A    
C37   C41   A    
C10   C11   A    
C40   H36   S    
C44   C48   A    
C20   C21   A    
C50   H21   S    
Cu1   N1    S    
C12   O3    A    
C16   C51   S    
C35   H13   S    
C32   H12   S    
C52   H26   S    
C13   C14   A    
C53   H35   S    
